873
  Marvin  02231216192D 0   1.00000     0.00000     0

 18 20  0  0  0  0  0  0  0  0999 V2000
    0.1358    0.8621    0.0000 Cl  0  0  0  0  0  0  0  0  0
    0.8502    0.4496    0.0000 C   0  0  0  0  0  0  0  0  0
    1.5647    0.8621    0.0000 C   0  0  0  0  0  0  0  0  0
    2.2792    0.4496    0.0000 C   0  0  0  0  0  0  0  0  0
    2.9937    0.8621    0.0000 N   0  0  0  0  0  0  0  0  0
    3.7081    0.4496    0.0000 C   0  0  0  0  0  0  0  0  0
    3.7081   -0.3754    0.0000 C   0  0  0  0  0  0  0  0  0
    2.9937   -0.7879    0.0000 N   0  0  0  0  0  0  0  0  0
    2.2792   -0.3754    0.0000 C   0  0  0  0  0  0  0  0  0
    1.5647   -0.7879    0.0000 C   0  0  0  0  0  0  0  0  0
    0.8502   -0.3754    0.0000 C   0  0  0  0  0  0  0  0  0
    4.4226   -0.7879    0.0000 N   0  0  0  0  0  0  0  0  0
    5.1371   -0.3754    0.0000 C   0  0  0  0  0  0  0  0  0
    5.8515   -0.7879    0.0000 C   0  0  0  0  0  0  0  0  0
    5.8515   -1.6129    0.0000 N   0  0  0  0  0  0  0  0  0
    5.1371   -2.0254    0.0000 C   0  0  0  0  0  0  0  0  0
    4.4226   -1.6129    0.0000 C   0  0  0  0  0  0  0  0  0
    6.5660   -2.0254    0.0000 C   0  0  0  0  0  0  0  0  0
  1  2  1  0  0  0  0
  2  3  4  0  0  0  0
  2 11  4  0  0  0  0
  3  4  4  0  0  0  0
  4  5  4  0  0  0  0
  4  9  4  0  0  0  0
  5  6  4  0  0  0  0
  6  7  4  0  0  0  0
  7  8  4  0  0  0  0
  7 12  1  0  0  0  0
  8  9  4  0  0  0  0
  9 10  4  0  0  0  0
 10 11  4  0  0  0  0
 12 13  1  0  0  0  0
 12 17  1  0  0  0  0
 13 14  1  0  0  0  0
 14 15  1  0  0  0  0
 15 16  1  0  0  0  0
 15 18  1  0  0  0  0
 16 17  1  0  0  0  0
M  END
>  <Name_Molregno>
873

>  <HISTAMINE H4>
7.04

$$$$
1186
  Marvin  02231216192D 0   1.00000     0.00000     0

 18 20  0  0  0  0  0  0  0  0999 V2000
   -0.7670   -2.8141    0.0000 O   0  0  0  0  0  0  0  0  0
   -0.0525   -2.4016    0.0000 C   0  0  0  0  0  0  0  0  0
    0.6620   -2.8141    0.0000 N   0  0  0  0  0  0  0  0  0
    1.3764   -2.4016    0.0000 C   0  0  0  0  0  0  0  0  0
    1.3764   -1.5766    0.0000 C   0  0  0  0  0  0  0  0  0
    0.6620   -1.1641    0.0000 N   0  0  0  0  0  0  0  0  0
   -0.0525   -1.5766    0.0000 C   0  0  0  0  0  0  0  0  0
   -0.7670   -1.1641    0.0000 N   0  0  0  0  0  0  0  0  0
   -1.4814   -1.5766    0.0000 C   0  0  0  0  0  0  0  0  0
   -2.1959   -1.1641    0.0000 C   0  0  0  0  0  0  0  0  0
   -2.1959   -0.3391    0.0000 N   0  0  0  0  0  0  0  0  0
   -1.4814    0.0734    0.0000 C   0  0  0  0  0  0  0  0  0
   -0.7670   -0.3391    0.0000 C   0  0  0  0  0  0  0  0  0
   -2.9104    0.0734    0.0000 C   0  0  0  0  0  0  0  0  0
    2.0909   -1.1641    0.0000 C   0  0  0  0  0  0  0  0  0
    2.8054   -1.5766    0.0000 C   0  0  0  0  0  0  0  0  0
    2.8054   -2.4016    0.0000 C   0  0  0  0  0  0  0  0  0
    2.0909   -2.8141    0.0000 C   0  0  0  0  0  0  0  0  0
  1  2  1  0  0  0  0
  2  3  4  0  0  0  0
  2  7  4  0  0  0  0
  3  4  4  0  0  0  0
  4  5  4  0  0  0  0
  4 18  4  0  0  0  0
  5  6  4  0  0  0  0
  5 15  4  0  0  0  0
  6  7  4  0  0  0  0
  7  8  1  0  0  0  0
  8  9  1  0  0  0  0
  8 13  1  0  0  0  0
  9 10  1  0  0  0  0
 10 11  1  0  0  0  0
 11 12  1  0  0  0  0
 11 14  1  0  0  0  0
 12 13  1  0  0  0  0
 15 16  4  0  0  0  0
 16 17  4  0  0  0  0
 17 18  4  0  0  0  0
M  END
>  <Name_Molregno>
1186

>  <HISTAMINE H4>
7.21

$$$$
2488
  Marvin  02231216192D 0   1.00000     0.00000     0

 24 27  0  0  0  0  0  0  0  0999 V2000
   -0.6933   -2.3271    0.0000 Cl  0  0  0  0  0  0  0  0  0
    0.0950   -2.5703    0.0000 C   0  0  0  0  0  0  0  0  0
    0.6998   -2.0092    0.0000 C   0  0  0  0  0  0  0  0  0
    1.4881   -2.2523    0.0000 C   0  0  0  0  0  0  0  0  0
    2.0025   -1.6073    0.0000 N   0  0  0  0  0  0  0  0  0
    2.8275   -1.6073    0.0000 C   0  0  0  0  0  0  0  0  0
    3.1855   -0.8640    0.0000 N   0  0  0  0  0  0  0  0  0
    2.7207   -0.1824    0.0000 C   0  0  0  0  0  0  0  0  0
    3.0787    0.5609    0.0000 C   0  0  0  0  0  0  0  0  0
    3.9014    0.6226    0.0000 N   0  0  0  0  0  0  0  0  0
    4.3661   -0.0591    0.0000 C   0  0  0  0  0  0  0  0  0
    4.0082   -0.8024    0.0000 C   0  0  0  0  0  0  0  0  0
    4.2593    1.3659    0.0000 C   0  0  0  0  0  0  0  0  0
    3.3419   -2.2523    0.0000 C   0  0  0  0  0  0  0  0  0
    3.1583   -3.0567    0.0000 C   0  0  0  0  0  0  0  0  0
    2.4150   -3.4146    0.0000 N   0  0  0  0  0  0  0  0  0
    1.6717   -3.0567    0.0000 C   0  0  0  0  0  0  0  0  0
    1.0669   -3.6178    0.0000 C   0  0  0  0  0  0  0  0  0
    0.2786   -3.3746    0.0000 C   0  0  0  0  0  0  0  0  0
    2.4150   -4.2396    0.0000 C   0  0  0  0  0  0  0  0  0
    3.7631   -3.6178    0.0000 C   0  0  0  0  0  0  0  0  0
    4.5514   -3.3746    0.0000 C   0  0  0  0  0  0  0  0  0
    4.7350   -2.5703    0.0000 C   0  0  0  0  0  0  0  0  0
    4.1302   -2.0092    0.0000 C   0  0  0  0  0  0  0  0  0
  1  2  1  0  0  0  0
  2  3  4  0  0  0  0
  2 19  4  0  0  0  0
  3  4  4  0  0  0  0
  4  5  1  0  0  0  0
  4 17  4  0  0  0  0
  5  6  2  0  0  0  0
  6  7  1  0  0  0  0
  6 14  1  0  0  0  0
  7  8  1  0  0  0  0
  7 12  1  0  0  0  0
  8  9  1  0  0  0  0
  9 10  1  0  0  0  0
 10 11  1  0  0  0  0
 10 13  1  0  0  0  0
 11 12  1  0  0  0  0
 14 15  4  0  0  0  0
 14 24  4  0  0  0  0
 15 16  1  0  0  0  0
 15 21  4  0  0  0  0
 16 17  1  0  0  0  0
 16 20  1  0  0  0  0
 17 18  4  0  0  0  0
 18 19  4  0  0  0  0
 21 22  4  0  0  0  0
 22 23  4  0  0  0  0
 23 24  4  0  0  0  0
M  END
>  <Name_Molregno>
2488

>  <HISTAMINE H4>
5.85

$$$$
2779
  Marvin  02231216192D 0   1.00000     0.00000     0

 23 26  0  0  0  0  0  0  0  0999 V2000
   -0.5622   -2.2603    0.0000 Cl  0  0  0  0  0  0  0  0  0
    0.2262   -2.5035    0.0000 C   0  0  0  0  0  0  0  0  0
    0.8309   -1.9424    0.0000 C   0  0  0  0  0  0  0  0  0
    1.6193   -2.1855    0.0000 C   0  0  0  0  0  0  0  0  0
    2.1337   -1.5405    0.0000 N   0  0  0  0  0  0  0  0  0
    2.9587   -1.5405    0.0000 C   0  0  0  0  0  0  0  0  0
    3.3166   -0.7972    0.0000 N   0  0  0  0  0  0  0  0  0
    2.8519   -0.1156    0.0000 C   0  0  0  0  0  0  0  0  0
    3.2098    0.6277    0.0000 C   0  0  0  0  0  0  0  0  0
    4.0325    0.6894    0.0000 N   0  0  0  0  0  0  0  0  0
    4.4973    0.0077    0.0000 C   0  0  0  0  0  0  0  0  0
    4.1393   -0.7356    0.0000 C   0  0  0  0  0  0  0  0  0
    4.3905    1.4327    0.0000 C   0  0  0  0  0  0  0  0  0
    3.4730   -2.1855    0.0000 C   0  0  0  0  0  0  0  0  0
    3.2895   -2.9898    0.0000 C   0  0  0  0  0  0  0  0  0
    2.5462   -3.3478    0.0000 O   0  0  0  0  0  0  0  0  0
    1.8029   -2.9898    0.0000 C   0  0  0  0  0  0  0  0  0
    1.1981   -3.5510    0.0000 C   0  0  0  0  0  0  0  0  0
    0.4098   -3.3078    0.0000 C   0  0  0  0  0  0  0  0  0
    3.8942   -3.5510    0.0000 C   0  0  0  0  0  0  0  0  0
    4.6826   -3.3078    0.0000 C   0  0  0  0  0  0  0  0  0
    4.8662   -2.5035    0.0000 C   0  0  0  0  0  0  0  0  0
    4.2614   -1.9424    0.0000 C   0  0  0  0  0  0  0  0  0
  1  2  1  0  0  0  0
  2  3  4  0  0  0  0
  2 19  4  0  0  0  0
  3  4  4  0  0  0  0
  4  5  1  0  0  0  0
  4 17  4  0  0  0  0
  5  6  2  0  0  0  0
  6  7  1  0  0  0  0
  6 14  1  0  0  0  0
  7  8  1  0  0  0  0
  7 12  1  0  0  0  0
  8  9  1  0  0  0  0
  9 10  1  0  0  0  0
 10 11  1  0  0  0  0
 10 13  1  0  0  0  0
 11 12  1  0  0  0  0
 14 15  4  0  0  0  0
 14 23  4  0  0  0  0
 15 16  1  0  0  0  0
 15 20  4  0  0  0  0
 16 17  1  0  0  0  0
 17 18  4  0  0  0  0
 18 19  4  0  0  0  0
 20 21  4  0  0  0  0
 21 22  4  0  0  0  0
 22 23  4  0  0  0  0
M  END
>  <Name_Molregno>
2779

>  <HISTAMINE H4>
7.37

$$$$
10383
  Marvin  02231216192D 0   1.00000     0.00000     0

  9  9  0  0  1  0  0  0  0  0999 V2000
   -2.0047   -1.9979    0.0000 N   0  0  0  0  0  0  0  0  0
   -2.2597   -1.2133    0.0000 C   0  0  0  0  0  0  0  0  0
   -1.5922   -0.7283    0.0000 C   0  0  0  0  0  0  0  0  0
   -0.9248   -1.2133    0.0000 N   0  0  0  0  0  0  0  0  0
   -1.1797   -1.9979    0.0000 C   0  0  0  0  0  0  0  0  0
   -1.5922    0.0967    0.0000 C   0  0  0  0  0  0  0  0  0
   -0.8778    0.5092    0.0000 C   0  0  0  0  0  0  0  0  0
   -0.8778    1.3342    0.0000 N   0  0  0  0  0  0  0  0  0
   -0.1633    0.0967    0.0000 C   0  0  0  0  0  0  0  0  0
  1  2  4  0  0  0  0
  1  5  4  0  0  0  0
  2  3  4  0  0  0  0
  3  4  4  0  0  0  0
  3  6  1  0  0  0  0
  4  5  4  0  0  0  0
  6  7  1  0  0  0  0
  7  8  1  0  0  0  0
  7  9  1  0  0  0  0
M  STY  1   1 DAT
M  SAL   1  1   1
M  SDT   1 MRV_IMPLICIT_H                                        
M  SDD   1     0.0000    0.0000    DR    ALL  0       0  
M  SED   1 IMPL_H1
M  END
>  <Name_Molregno>
10383

>  <HISTAMINE H3>
8.98

>  <HISTAMINE H4>
6.74

$$$$
10519
  Marvin  02231216192D 0   1.00000     0.00000     0

 10  9  0  0  0  0  0  0  0  0999 V2000
    2.1160    0.4045    0.0000 S   0  0  0  0  0  0  0  0  0
    1.4016   -0.0080    0.0000 C   0  0  0  0  0  0  0  0  0
    0.6871    0.4045    0.0000 C   0  0  0  0  0  0  0  0  0
   -0.0274   -0.0080    0.0000 C   0  0  0  0  0  0  0  0  0
   -0.7419    0.4045    0.0000 N   0  0  0  0  0  0  0  0  0
   -1.4563   -0.0080    0.0000 C   0  0  0  0  0  0  0  0  0
   -0.7419    1.2295    0.0000 C   0  0  0  0  0  0  0  0  0
    2.8305   -0.0080    0.0000 C   0  0  0  0  0  0  0  0  0
    3.5450    0.4045    0.0000 N   0  0  0  0  0  0  0  0  0
    2.8305   -0.8330    0.0000 N   0  0  0  0  0  0  0  0  0
  1  2  1  0  0  0  0
  1  8  1  0  0  0  0
  2  3  1  0  0  0  0
  3  4  1  0  0  0  0
  4  5  1  0  0  0  0
  5  6  1  0  0  0  0
  5  7  1  0  0  0  0
  8  9  1  0  0  0  0
  8 10  2  0  0  0  0
M  END
>  <Name_Molregno>
10519

>  <HISTAMINE H3>
6.08

>  <HISTAMINE H4>
6.24

$$$$
14718
  Marvin  02231216192D 0   1.00000     0.00000     0

 20 22  0  0  0  0  0  0  0  0999 V2000
   -0.1307   -0.2468    0.0000 O   0  0  0  0  0  0  0  0  0
    0.5837    0.1657    0.0000 C   0  0  0  0  0  0  0  0  0
    1.2982   -0.2468    0.0000 C   0  0  0  0  0  0  0  0  0
    2.0127    0.1657    0.0000 C   0  0  0  0  0  0  0  0  0
    2.7272   -0.2468    0.0000 C   0  0  0  0  0  0  0  0  0
    3.4808    0.0888    0.0000 N   0  0  0  0  0  0  0  0  0
    4.0329   -0.5243    0.0000 C   0  0  0  0  0  0  0  0  0
    3.6204   -1.2388    0.0000 N   0  0  0  0  0  0  0  0  0
    2.8134   -1.0672    0.0000 C   0  0  0  0  0  0  0  0  0
   -0.8452    0.1657    0.0000 C   0  0  0  0  0  0  0  0  0
   -1.5597   -0.2468    0.0000 C   0  0  0  0  0  0  0  0  0
   -2.2741    0.1657    0.0000 C   0  0  0  0  0  0  0  0  0
   -2.2741    0.9907    0.0000 C   0  0  0  0  0  0  0  0  0
   -1.5597    1.4032    0.0000 C   0  0  0  0  0  0  0  0  0
   -0.8452    0.9907    0.0000 C   0  0  0  0  0  0  0  0  0
   -2.9886    1.4032    0.0000 C   0  0  0  0  0  0  0  0  0
   -3.7031    0.9907    0.0000 O   0  0  0  0  0  0  0  0  0
   -2.9886    2.2282    0.0000 C   0  0  0  0  0  0  0  0  0
   -3.4011    2.9427    0.0000 C   0  0  0  0  0  0  0  0  0
   -2.5761    2.9427    0.0000 C   0  0  0  0  0  0  0  0  0
  1  2  1  0  0  0  0
  1 10  1  0  0  0  0
  2  3  1  0  0  0  0
  3  4  1  0  0  0  0
  4  5  1  0  0  0  0
  5  6  4  0  0  0  0
  5  9  4  0  0  0  0
  6  7  4  0  0  0  0
  7  8  4  0  0  0  0
  8  9  4  0  0  0  0
 10 11  4  0  0  0  0
 10 15  4  0  0  0  0
 11 12  4  0  0  0  0
 12 13  4  0  0  0  0
 13 14  4  0  0  0  0
 13 16  1  0  0  0  0
 14 15  4  0  0  0  0
 16 17  2  0  0  0  0
 16 18  1  0  0  0  0
 18 19  1  0  0  0  0
 18 20  1  0  0  0  0
 19 20  1  0  0  0  0
M  STY  1   1 DAT
M  SAL   1  1   8
M  SDT   1 MRV_IMPLICIT_H                                        
M  SDD   1     0.0000    0.0000    DR    ALL  0       0  
M  SED   1 IMPL_H1
M  END
>  <Name_Molregno>
14718

>  <Alpha-2A>
7.37

>  <Alpha-2C>
7.2

>  <HISTAMINE H1>
5

>  <HISTAMINE H2>
5

>  <HISTAMINE H3>
7.19

>  <HISTAMINE H4>
5.97

$$$$
22383
  Marvin  02231216192D 0   1.00000     0.00000     0

 11 11  0  0  0  0  0  0  0  0999 V2000
   -4.0086    0.2676    0.0000 N   0  0  0  0  0  0  0  0  0
   -3.2016    0.0961    0.0000 C   0  0  0  0  0  0  0  0  0
   -3.1154   -0.7244    0.0000 C   0  0  0  0  0  0  0  0  0
   -3.8691   -1.0599    0.0000 N   0  0  0  0  0  0  0  0  0
   -4.4211   -0.4468    0.0000 C   0  0  0  0  0  0  0  0  0
   -2.4009   -1.1369    0.0000 C   0  0  0  0  0  0  0  0  0
   -1.6865   -0.7244    0.0000 C   0  0  0  0  0  0  0  0  0
   -0.9720   -1.1369    0.0000 C   0  0  0  0  0  0  0  0  0
   -0.2575   -0.7244    0.0000 C   0  0  0  0  0  0  0  0  0
    0.4569   -1.1369    0.0000 C   0  0  0  0  0  0  0  0  0
    1.1714   -0.7244    0.0000 N   0  0  0  0  0  0  0  0  0
  1  2  4  0  0  0  0
  1  5  4  0  0  0  0
  2  3  4  0  0  0  0
  3  4  4  0  0  0  0
  3  6  1  0  0  0  0
  4  5  4  0  0  0  0
  6  7  1  0  0  0  0
  7  8  1  0  0  0  0
  8  9  1  0  0  0  0
  9 10  1  0  0  0  0
 10 11  1  0  0  0  0
M  STY  1   1 DAT
M  SAL   1  1   1
M  SDT   1 MRV_IMPLICIT_H                                        
M  SDD   1     0.0000    0.0000    DR    ALL  0       0  
M  SED   1 IMPL_H1
M  END
>  <Name_Molregno>
22383

>  <HISTAMINE H3>
8.3

>  <HISTAMINE H4>
6.6

$$$$
22384
  Marvin  02231216192D 0   1.00000     0.00000     0

 12 12  0  0  0  0  0  0  0  0999 V2000
    3.0853    0.1267    0.0000 S   0  0  0  0  0  0  0  0  0
    2.3708   -0.2858    0.0000 C   0  0  0  0  0  0  0  0  0
    1.6563    0.1267    0.0000 C   0  0  0  0  0  0  0  0  0
    0.9419   -0.2858    0.0000 C   0  0  0  0  0  0  0  0  0
    0.2274    0.1267    0.0000 C   0  0  0  0  0  0  0  0  0
   -0.5263   -0.2089    0.0000 N   0  0  0  0  0  0  0  0  0
   -1.0783    0.4042    0.0000 C   0  0  0  0  0  0  0  0  0
   -0.6658    1.1187    0.0000 N   0  0  0  0  0  0  0  0  0
    0.1412    0.9472    0.0000 C   0  0  0  0  0  0  0  0  0
    3.7998   -0.2858    0.0000 C   0  0  0  0  0  0  0  0  0
    4.5142    0.1267    0.0000 N   0  0  0  0  0  0  0  0  0
    3.7998   -1.1108    0.0000 N   0  0  0  0  0  0  0  0  0
  1  2  1  0  0  0  0
  1 10  1  0  0  0  0
  2  3  1  0  0  0  0
  3  4  1  0  0  0  0
  4  5  1  0  0  0  0
  5  6  4  0  0  0  0
  5  9  4  0  0  0  0
  6  7  4  0  0  0  0
  7  8  4  0  0  0  0
  8  9  4  0  0  0  0
 10 11  1  0  0  0  0
 10 12  2  0  0  0  0
M  STY  1   1 DAT
M  SAL   1  1   8
M  SDT   1 MRV_IMPLICIT_H                                        
M  SDD   1     0.0000    0.0000    DR    ALL  0       0  
M  SED   1 IMPL_H1
M  END
>  <Name_Molregno>
22384

>  <HISTAMINE H3>
8.6

>  <HISTAMINE H4>
7.9

$$$$
42179
  Marvin  02231216192D 0   1.00000     0.00000     0

 31 34  0  0  0  0  0  0  0  0999 V2000
    0.8929    1.6421    0.0000 O   0  0  0  0  0  0  0  0  0
    1.6074    2.0546    0.0000 C   0  0  0  0  0  0  0  0  0
    0.8929    0.8171    0.0000 C   0  0  0  0  0  0  0  0  0
    1.6074    0.4046    0.0000 C   0  0  0  0  0  0  0  0  0
    1.6074   -0.4204    0.0000 C   0  0  0  0  0  0  0  0  0
    0.8929   -0.8329    0.0000 C   0  0  0  0  0  0  0  0  0
    0.1785   -0.4204    0.0000 C   0  0  0  0  0  0  0  0  0
    0.1785    0.4046    0.0000 C   0  0  0  0  0  0  0  0  0
   -0.5360    0.8171    0.0000 N   0  0  0  0  0  0  0  0  0
   -1.2505    0.4046    0.0000 C   0  0  0  0  0  0  0  0  0
   -1.9649    0.8171    0.0000 C   0  0  0  0  0  0  0  0  0
   -1.9649    1.6421    0.0000 N   0  0  0  0  0  0  0  0  0
   -1.2505    2.0546    0.0000 C   0  0  0  0  0  0  0  0  0
   -0.5360    1.6421    0.0000 C   0  0  0  0  0  0  0  0  0
   -2.6794    2.0546    0.0000 C   0  0  0  0  0  0  0  0  0
   -3.3939    1.6421    0.0000 C   0  0  0  0  0  0  0  0  0
   -4.1083    2.0546    0.0000 N   0  0  0  0  0  0  0  0  0
   -4.8228    1.6421    0.0000 C   0  0  0  0  0  0  0  0  0
   -4.8228    0.8171    0.0000 O   0  0  0  0  0  0  0  0  0
   -5.5373    2.0546    0.0000 C   0  0  0  0  0  0  0  0  0
   -6.2518    1.6421    0.0000 C   0  0  0  0  0  0  0  0  0
   -6.9662    2.0546    0.0000 C   0  0  0  0  0  0  0  0  0
   -6.9662    2.8796    0.0000 C   0  0  0  0  0  0  0  0  0
   -6.2518    3.2921    0.0000 C   0  0  0  0  0  0  0  0  0
   -5.5373    2.8796    0.0000 C   0  0  0  0  0  0  0  0  0
   -4.1083    2.8796    0.0000 C   0  0  0  0  0  0  0  0  0
   -4.8228    3.2921    0.0000 N   0  0  0  0  0  0  0  0  0
   -4.8228    4.1171    0.0000 C   0  0  0  0  0  0  0  0  0
   -4.1083    4.5296    0.0000 C   0  0  0  0  0  0  0  0  0
   -3.3939    4.1171    0.0000 C   0  0  0  0  0  0  0  0  0
   -3.3939    3.2921    0.0000 C   0  0  0  0  0  0  0  0  0
  1  2  1  0  0  0  0
  1  3  1  0  0  0  0
  3  4  4  0  0  0  0
  3  8  4  0  0  0  0
  4  5  4  0  0  0  0
  5  6  4  0  0  0  0
  6  7  4  0  0  0  0
  7  8  4  0  0  0  0
  8  9  1  0  0  0  0
  9 10  1  0  0  0  0
  9 14  1  0  0  0  0
 10 11  1  0  0  0  0
 11 12  1  0  0  0  0
 12 13  1  0  0  0  0
 12 15  1  0  0  0  0
 13 14  1  0  0  0  0
 15 16  1  0  0  0  0
 16 17  1  0  0  0  0
 17 18  1  0  0  0  0
 17 26  1  0  0  0  0
 18 19  2  0  0  0  0
 18 20  1  0  0  0  0
 20 21  1  0  0  0  0
 20 25  1  0  0  0  0
 21 22  1  0  0  0  0
 22 23  1  0  0  0  0
 23 24  1  0  0  0  0
 24 25  1  0  0  0  0
 26 27  4  0  0  0  0
 26 31  4  0  0  0  0
 27 28  4  0  0  0  0
 28 29  4  0  0  0  0
 29 30  4  0  0  0  0
 30 31  4  0  0  0  0
M  END
>  <Name_Molregno>
42179

>  <5-HT1A>
9.12

>  <5-HT1B>
5

>  <5-HT1D>
5

>  <5-HT1E>
5

>  <5-HT2A>
5.2

>  <5-HT5>
5

>  <5-HT6>
5

>  <5-HT7>
5

>  <Alpha-1A>
7.71

>  <Alpha-1B>
6.33

>  <Alpha-2A>
5

>  <Alpha-2B>
5

>  <Alpha-2C>
5.59

>  <DOPAMINE D1>
5

>  <DOPAMINE D2>
6.57

>  <DOPAMINE D3>
7.17

>  <DOPAMINE D4>
7.79

>  <DOPAMINE D5>
5

>  <HISTAMINE H1>
5

>  <HISTAMINE H2>
5

>  <HISTAMINE H4>
5

>  <Muscarinic acetylcholine receptor M2>
5

>  <Muscarinic acetylcholine receptor M5>
5

$$$$
58349
  Marvin  02231216192D 0   1.00000     0.00000     0

 17 19  0  0  0  0  0  0  0  0999 V2000
    0.2117    0.2218    0.0000 N   0  0  0  0  0  0  0  0  0
    0.9262    0.6343    0.0000 C   0  0  0  0  0  0  0  0  0
    0.9262    1.4593    0.0000 C   0  0  0  0  0  0  0  0  0
    0.2117    1.8718    0.0000 C   0  0  0  0  0  0  0  0  0
   -0.5028    1.4593    0.0000 C   0  0  0  0  0  0  0  0  0
   -0.5028    0.6343    0.0000 C   0  0  0  0  0  0  0  0  0
   -1.2172    0.2218    0.0000 N   0  0  0  0  0  0  0  0  0
   -1.2172   -0.6032    0.0000 C   0  0  0  0  0  0  0  0  0
   -1.9317   -1.0157    0.0000 C   0  0  0  0  0  0  0  0  0
   -2.6462   -0.6032    0.0000 N   0  0  0  0  0  0  0  0  0
   -2.6462    0.2218    0.0000 C   0  0  0  0  0  0  0  0  0
   -1.9317    0.6343    0.0000 C   0  0  0  0  0  0  0  0  0
   -3.3607   -1.0157    0.0000 C   0  0  0  0  0  0  0  0  0
    1.6406    1.8718    0.0000 C   0  0  0  0  0  0  0  0  0
    2.3551    1.4593    0.0000 C   0  0  0  0  0  0  0  0  0
    2.3551    0.6343    0.0000 C   0  0  0  0  0  0  0  0  0
    1.6406    0.2218    0.0000 C   0  0  0  0  0  0  0  0  0
  1  2  4  0  0  0  0
  1  6  4  0  0  0  0
  2  3  4  0  0  0  0
  2 17  4  0  0  0  0
  3  4  4  0  0  0  0
  3 14  4  0  0  0  0
  4  5  4  0  0  0  0
  5  6  4  0  0  0  0
  6  7  1  0  0  0  0
  7  8  1  0  0  0  0
  7 12  1  0  0  0  0
  8  9  1  0  0  0  0
  9 10  1  0  0  0  0
 10 11  1  0  0  0  0
 10 13  1  0  0  0  0
 11 12  1  0  0  0  0
 14 15  4  0  0  0  0
 15 16  4  0  0  0  0
 16 17  4  0  0  0  0
M  END
>  <Name_Molregno>
58349

>  <HISTAMINE H3>
6.39

>  <HISTAMINE H4>
5.16

$$$$
88815
  Marvin  02231216192D 0   1.00000     0.00000     0

 14 15  0  0  1  0  0  0  0  0999 V2000
   -3.2072   -0.1654    0.0000 S   0  0  0  0  0  0  0  0  0
   -2.4226   -0.4204    0.0000 C   0  0  0  0  0  0  0  0  0
   -1.7081   -0.0079    0.0000 C   0  0  0  0  0  0  0  0  0
   -0.9937   -0.4204    0.0000 C   0  0  0  0  0  0  0  0  0
   -0.2792   -0.0079    0.0000 N   0  0  0  0  0  0  0  0  0
    0.4353   -0.4204    0.0000 C   0  0  0  0  0  0  0  0  0
    1.1498   -0.0079    0.0000 C   0  0  0  0  0  0  0  0  0
    1.8642   -0.4204    0.0000 C   0  0  0  0  0  0  0  0  0
   -0.9937   -1.2454    0.0000 C   0  0  0  0  0  0  0  0  0
   -1.7081   -1.6579    0.0000 C   0  0  0  0  0  0  0  0  0
   -2.4226   -1.2454    0.0000 C   0  0  0  0  0  0  0  0  0
   -3.2072   -1.5003    0.0000 N   0  0  0  0  0  0  0  0  0
   -3.6921   -0.8329    0.0000 C   0  0  0  0  0  0  0  0  0
   -4.5171   -0.8329    0.0000 N   0  0  0  0  0  0  0  0  0
  1  2  4  0  0  0  0
  1 13  4  0  0  0  0
  2  3  1  0  0  0  0
  2 11  4  0  0  0  0
  3  4  1  0  0  0  0
  4  5  1  0  0  0  0
  4  9  1  0  0  0  0
  5  6  1  0  0  0  0
  6  7  1  0  0  0  0
  7  8  1  0  0  0  0
  9 10  1  0  0  0  0
 10 11  1  0  0  0  0
 11 12  4  0  0  0  0
 12 13  4  0  0  0  0
 13 14  1  0  0  0  0
M  END
>  <Name_Molregno>
88815

>  <5-HT1A>
5.67

>  <5-HT1B>
5.26

>  <5-HT1D>
5.39

>  <5-HT1E>
5

>  <5-HT2A>
5

>  <5-HT2C>
5

>  <5-HT3>
5

>  <5-HT5>
5

>  <5-HT6>
5

>  <5-HT7>
5.93

>  <Alpha-1A>
5

>  <Alpha-1B>
5

>  <Alpha-2A>
6.44

>  <Alpha-2B>
6.68

>  <Alpha-2C>
6.14

>  <Beta-1>
5

>  <Beta-2>
5

>  <DOPAMINE D1>
5

>  <DOPAMINE D2>
6.55

>  <DOPAMINE D3>
8.51

>  <DOPAMINE D4>
7.4

>  <DOPAMINE D5>
5

>  <Dopamine transporter>
5

>  <HISTAMINE H1>
5

>  <HISTAMINE H2>
5.57

>  <HISTAMINE H4>
5

>  <Muscarinic acetylcholine receptor M1>
5

>  <Muscarinic acetylcholine receptor M2>
5

>  <Muscarinic acetylcholine receptor M3>
5

>  <Muscarinic acetylcholine receptor M4>
5

>  <Muscarinic acetylcholine receptor M5>
5

>  <Norepinephrine transporter>
5

>  <Serotonin transporter>
5

$$$$
103769
  Marvin  02231216192D 0   1.00000     0.00000     0

 23 26  0  0  0  0  0  0  0  0999 V2000
   -0.5622   -2.2603    0.0000 Cl  0  0  0  0  0  0  0  0  0
    0.2262   -2.5035    0.0000 C   0  0  0  0  0  0  0  0  0
    0.8309   -1.9424    0.0000 C   0  0  0  0  0  0  0  0  0
    1.6193   -2.1855    0.0000 C   0  0  0  0  0  0  0  0  0
    2.1337   -1.5405    0.0000 N   0  0  0  0  0  0  0  0  0
    2.9587   -1.5405    0.0000 C   0  0  0  0  0  0  0  0  0
    3.3166   -0.7972    0.0000 N   0  0  0  0  0  0  0  0  0
    2.8519   -0.1156    0.0000 C   0  0  0  0  0  0  0  0  0
    3.2098    0.6277    0.0000 C   0  0  0  0  0  0  0  0  0
    4.0325    0.6894    0.0000 N   0  0  0  0  0  0  0  0  0
    4.4973    0.0077    0.0000 C   0  0  0  0  0  0  0  0  0
    4.1393   -0.7356    0.0000 C   0  0  0  0  0  0  0  0  0
    4.3905    1.4327    0.0000 C   0  0  0  0  0  0  0  0  0
    3.4730   -2.1855    0.0000 C   0  0  0  0  0  0  0  0  0
    3.2895   -2.9898    0.0000 C   0  0  0  0  0  0  0  0  0
    2.5462   -3.3478    0.0000 S   0  0  0  0  0  0  0  0  0
    1.8029   -2.9898    0.0000 C   0  0  0  0  0  0  0  0  0
    1.1981   -3.5510    0.0000 C   0  0  0  0  0  0  0  0  0
    0.4098   -3.3078    0.0000 C   0  0  0  0  0  0  0  0  0
    3.8942   -3.5510    0.0000 C   0  0  0  0  0  0  0  0  0
    4.6826   -3.3078    0.0000 C   0  0  0  0  0  0  0  0  0
    4.8662   -2.5035    0.0000 C   0  0  0  0  0  0  0  0  0
    4.2614   -1.9424    0.0000 C   0  0  0  0  0  0  0  0  0
  1  2  1  0  0  0  0
  2  3  4  0  0  0  0
  2 19  4  0  0  0  0
  3  4  4  0  0  0  0
  4  5  1  0  0  0  0
  4 17  4  0  0  0  0
  5  6  2  0  0  0  0
  6  7  1  0  0  0  0
  6 14  1  0  0  0  0
  7  8  1  0  0  0  0
  7 12  1  0  0  0  0
  8  9  1  0  0  0  0
  9 10  1  0  0  0  0
 10 11  1  0  0  0  0
 10 13  1  0  0  0  0
 11 12  1  0  0  0  0
 14 15  4  0  0  0  0
 14 23  4  0  0  0  0
 15 16  1  0  0  0  0
 15 20  4  0  0  0  0
 16 17  1  0  0  0  0
 17 18  4  0  0  0  0
 18 19  4  0  0  0  0
 20 21  4  0  0  0  0
 21 22  4  0  0  0  0
 22 23  4  0  0  0  0
M  END
>  <Name_Molregno>
103769

>  <HISTAMINE H4>
5.69

$$$$
120674
  Marvin  02231216192D 0   1.00000     0.00000     0

 27 29  0  0  1  0  0  0  0  0999 V2000
    4.4208    6.3587    0.0000 F   0  0  0  0  0  0  0  0  0
    4.4208    5.5337    0.0000 C   0  0  0  0  0  0  0  0  0
    5.1353    5.1212    0.0000 C   0  0  0  0  0  0  0  0  0
    5.1353    4.2962    0.0000 C   0  0  0  0  0  0  0  0  0
    4.4208    3.8837    0.0000 C   0  0  0  0  0  0  0  0  0
    3.7063    4.2962    0.0000 C   0  0  0  0  0  0  0  0  0
    3.7063    5.1212    0.0000 C   0  0  0  0  0  0  0  0  0
    4.4208    3.0587    0.0000 C   0  0  0  0  0  0  0  0  0
    5.1353    2.6462    0.0000 C   0  0  0  0  0  0  0  0  0
    5.1353    1.8212    0.0000 N   0  0  0  0  0  0  0  0  0
    5.8497    1.4087    0.0000 C   0  0  0  0  0  0  0  0  0
    5.8497    0.5837    0.0000 C   0  0  0  0  0  0  0  0  0
    5.1353    0.1712    0.0000 C   0  0  0  0  0  0  0  0  0
    4.4208    0.5837    0.0000 C   0  0  0  0  0  0  0  0  0
    4.4208    1.4087    0.0000 C   0  0  0  0  0  0  0  0  0
    5.1353   -0.6538    0.0000 C   0  0  0  0  0  0  0  0  0
    4.4208   -1.0663    0.0000 O   0  0  0  0  0  0  0  0  0
    5.8497   -1.0663    0.0000 C   0  0  0  0  0  0  0  0  0
    6.5642   -0.6538    0.0000 C   0  0  0  0  0  0  0  0  0
    7.2787   -1.0663    0.0000 C   0  0  0  0  0  0  0  0  0
    7.2787   -1.8913    0.0000 C   0  0  0  0  0  0  0  0  0
    6.5642   -2.3038    0.0000 C   0  0  0  0  0  0  0  0  0
    6.5642   -3.1288    0.0000 O   0  0  0  0  0  0  0  0  0
    7.2787   -3.5413    0.0000 C   0  0  0  0  0  0  0  0  0
    5.8497   -1.8913    0.0000 C   0  0  0  0  0  0  0  0  0
    5.1353   -2.3038    0.0000 O   0  0  0  0  0  0  0  0  0
    5.1353   -3.1288    0.0000 C   0  0  0  0  0  0  0  0  0
  1  2  1  0  0  0  0
  2  3  4  0  0  0  0
  2  7  4  0  0  0  0
  3  4  4  0  0  0  0
  4  5  4  0  0  0  0
  5  6  4  0  0  0  0
  5  8  1  0  0  0  0
  6  7  4  0  0  0  0
  8  9  1  0  0  0  0
  9 10  1  0  0  0  0
 10 11  1  0  0  0  0
 10 15  1  0  0  0  0
 11 12  1  0  0  0  0
 12 13  1  0  0  0  0
 13 14  1  0  0  0  0
 13 16  1  0  0  0  0
 14 15  1  0  0  0  0
 16 17  1  0  0  0  0
 16 18  1  0  0  0  0
 18 19  4  0  0  0  0
 18 25  4  0  0  0  0
 19 20  4  0  0  0  0
 20 21  4  0  0  0  0
 21 22  4  0  0  0  0
 22 23  1  0  0  0  0
 22 25  4  0  0  0  0
 23 24  1  0  0  0  0
 25 26  1  0  0  0  0
 26 27  1  0  0  0  0
M  END
>  <Name_Molregno>
120674

>  <5-HT1A>
5

>  <5-HT1E>
5

>  <5-HT2A>
9.16

>  <5-HT2C>
7.37

>  <5-HT3>
5

>  <5-HT5>
5

>  <5-HT6>
5.46

>  <Alpha-1A>
6.41

>  <Alpha-1B>
6.37

>  <Alpha-2A>
5.72

>  <Alpha-2B>
6.57

>  <Alpha-2C>
5.84

>  <Beta-1>
5

>  <Beta-2>
5

>  <DOPAMINE D1>
5.67

>  <DOPAMINE D2>
5.23

>  <DOPAMINE D4>
5.42

>  <DOPAMINE D5>
5

>  <Dopamine transporter>
5

>  <HISTAMINE H1>
7.18

>  <HISTAMINE H4>
5

>  <Muscarinic acetylcholine receptor M1>
5

>  <Muscarinic acetylcholine receptor M2>
5

>  <Muscarinic acetylcholine receptor M3>
5

>  <Muscarinic acetylcholine receptor M4>
5

>  <Muscarinic acetylcholine receptor M5>
5

>  <Norepinephrine transporter>
5

>  <Serotonin transporter>
5

$$$$
126932
  Marvin  02231216192D 0   1.00000     0.00000     0

 14 15  0  0  0  0  0  0  0  0999 V2000
    1.3642   -3.0962    0.0000 N   0  0  0  0  0  0  0  0  0
    1.1093   -2.3116    0.0000 C   0  0  0  0  0  0  0  0  0
    1.7767   -1.8266    0.0000 C   0  0  0  0  0  0  0  0  0
    2.4442   -2.3116    0.0000 N   0  0  0  0  0  0  0  0  0
    2.1892   -3.0962    0.0000 C   0  0  0  0  0  0  0  0  0
    1.7767   -1.0016    0.0000 C   0  0  0  0  0  0  0  0  0
    2.4912   -0.5891    0.0000 C   0  0  0  0  0  0  0  0  0
    2.4912    0.2359    0.0000 C   0  0  0  0  0  0  0  0  0
    3.2057    0.6484    0.0000 C   0  0  0  0  0  0  0  0  0
    3.2057    1.4734    0.0000 C   0  0  0  0  0  0  0  0  0
    3.9201    1.8859    0.0000 C   0  0  0  0  0  0  0  0  0
    4.6346    1.4734    0.0000 N   0  0  0  0  0  0  0  0  0
    4.6346    0.6484    0.0000 C   0  0  0  0  0  0  0  0  0
    3.9201    0.2359    0.0000 C   0  0  0  0  0  0  0  0  0
  1  2  4  0  0  0  0
  1  5  4  0  0  0  0
  2  3  4  0  0  0  0
  3  4  4  0  0  0  0
  3  6  1  0  0  0  0
  4  5  4  0  0  0  0
  6  7  1  0  0  0  0
  7  8  1  0  0  0  0
  8  9  1  0  0  0  0
  9 10  4  0  0  0  0
  9 14  4  0  0  0  0
 10 11  4  0  0  0  0
 11 12  4  0  0  0  0
 12 13  4  0  0  0  0
 13 14  4  0  0  0  0
M  STY  1   1 DAT
M  SAL   1  1   1
M  SDT   1 MRV_IMPLICIT_H                                        
M  SDD   1     0.0000    0.0000    DR    ALL  0       0  
M  SED   1 IMPL_H1
M  END
>  <Name_Molregno>
126932

>  <HISTAMINE H3>
8.08

>  <HISTAMINE H4>
6

$$$$
126933
  Marvin  02231216192D 0   1.00000     0.00000     0

 14 15  0  0  0  0  0  0  0  0999 V2000
    1.3642   -3.0962    0.0000 N   0  0  0  0  0  0  0  0  0
    1.1093   -2.3116    0.0000 C   0  0  0  0  0  0  0  0  0
    1.7767   -1.8266    0.0000 C   0  0  0  0  0  0  0  0  0
    2.4442   -2.3116    0.0000 N   0  0  0  0  0  0  0  0  0
    2.1892   -3.0962    0.0000 C   0  0  0  0  0  0  0  0  0
    1.7767   -1.0016    0.0000 C   0  0  0  0  0  0  0  0  0
    2.4912   -0.5891    0.0000 C   0  0  0  0  0  0  0  0  0
    2.4912    0.2359    0.0000 C   0  0  0  0  0  0  0  0  0
    3.2057    0.6484    0.0000 C   0  0  0  0  0  0  0  0  0
    3.2057    1.4734    0.0000 N   0  0  0  0  0  0  0  0  0
    3.9201    1.8859    0.0000 C   0  0  0  0  0  0  0  0  0
    4.6346    1.4734    0.0000 C   0  0  0  0  0  0  0  0  0
    4.6346    0.6484    0.0000 C   0  0  0  0  0  0  0  0  0
    3.9201    0.2359    0.0000 C   0  0  0  0  0  0  0  0  0
  1  2  4  0  0  0  0
  1  5  4  0  0  0  0
  2  3  4  0  0  0  0
  3  4  4  0  0  0  0
  3  6  1  0  0  0  0
  4  5  4  0  0  0  0
  6  7  1  0  0  0  0
  7  8  1  0  0  0  0
  8  9  1  0  0  0  0
  9 10  4  0  0  0  0
  9 14  4  0  0  0  0
 10 11  4  0  0  0  0
 11 12  4  0  0  0  0
 12 13  4  0  0  0  0
 13 14  4  0  0  0  0
M  STY  1   1 DAT
M  SAL   1  1   1
M  SDT   1 MRV_IMPLICIT_H                                        
M  SDD   1     0.0000    0.0000    DR    ALL  0       0  
M  SED   1 IMPL_H1
M  END
>  <Name_Molregno>
126933

>  <HISTAMINE H3>
5.98

>  <HISTAMINE H4>
5.9

$$$$
127381
  Marvin  02231216192D 0   1.00000     0.00000     0

 13 14  0  0  0  0  0  0  0  0999 V2000
    2.5047   -2.7675    0.0000 N   0  0  0  0  0  0  0  0  0
    2.2497   -1.9829    0.0000 C   0  0  0  0  0  0  0  0  0
    2.9172   -1.4980    0.0000 C   0  0  0  0  0  0  0  0  0
    3.5846   -1.9829    0.0000 N   0  0  0  0  0  0  0  0  0
    3.3297   -2.7675    0.0000 C   0  0  0  0  0  0  0  0  0
    2.9172   -0.6730    0.0000 C   0  0  0  0  0  0  0  0  0
    2.2027   -0.2605    0.0000 C   0  0  0  0  0  0  0  0  0
    2.2027    0.5645    0.0000 C   0  0  0  0  0  0  0  0  0
    1.4882    0.9770    0.0000 N   0  0  0  0  0  0  0  0  0
    1.4882    1.8020    0.0000 C   0  0  0  0  0  0  0  0  0
    2.2027    2.2145    0.0000 C   0  0  0  0  0  0  0  0  0
    2.9172    1.8020    0.0000 C   0  0  0  0  0  0  0  0  0
    2.9172    0.9770    0.0000 C   0  0  0  0  0  0  0  0  0
  1  2  4  0  0  0  0
  1  5  4  0  0  0  0
  2  3  4  0  0  0  0
  3  4  4  0  0  0  0
  3  6  1  0  0  0  0
  4  5  4  0  0  0  0
  6  7  1  0  0  0  0
  7  8  1  0  0  0  0
  8  9  4  0  0  0  0
  8 13  4  0  0  0  0
  9 10  4  0  0  0  0
 10 11  4  0  0  0  0
 11 12  4  0  0  0  0
 12 13  4  0  0  0  0
M  STY  1   1 DAT
M  SAL   1  1   1
M  SDT   1 MRV_IMPLICIT_H                                        
M  SDD   1     0.0000    0.0000    DR    ALL  0       0  
M  SED   1 IMPL_H1
M  END
>  <Name_Molregno>
127381

>  <HISTAMINE H3>
5.93

>  <HISTAMINE H4>
4.91

$$$$
127415
  Marvin  02231216192D 0   1.00000     0.00000     0

 13 14  0  0  0  0  0  0  0  0999 V2000
    2.5047   -2.7675    0.0000 N   0  0  0  0  0  0  0  0  0
    2.2497   -1.9829    0.0000 C   0  0  0  0  0  0  0  0  0
    2.9172   -1.4980    0.0000 C   0  0  0  0  0  0  0  0  0
    3.5846   -1.9829    0.0000 N   0  0  0  0  0  0  0  0  0
    3.3297   -2.7675    0.0000 C   0  0  0  0  0  0  0  0  0
    2.9172   -0.6730    0.0000 C   0  0  0  0  0  0  0  0  0
    2.2027   -0.2605    0.0000 C   0  0  0  0  0  0  0  0  0
    2.2027    0.5645    0.0000 C   0  0  0  0  0  0  0  0  0
    1.4882    0.9770    0.0000 C   0  0  0  0  0  0  0  0  0
    1.4882    1.8020    0.0000 C   0  0  0  0  0  0  0  0  0
    2.2027    2.2145    0.0000 C   0  0  0  0  0  0  0  0  0
    2.9172    1.8020    0.0000 N   0  0  0  0  0  0  0  0  0
    2.9172    0.9770    0.0000 C   0  0  0  0  0  0  0  0  0
  1  2  4  0  0  0  0
  1  5  4  0  0  0  0
  2  3  4  0  0  0  0
  3  4  4  0  0  0  0
  3  6  1  0  0  0  0
  4  5  4  0  0  0  0
  6  7  1  0  0  0  0
  7  8  1  0  0  0  0
  8  9  4  0  0  0  0
  8 13  4  0  0  0  0
  9 10  4  0  0  0  0
 10 11  4  0  0  0  0
 11 12  4  0  0  0  0
 12 13  4  0  0  0  0
M  STY  1   1 DAT
M  SAL   1  1   1
M  SDT   1 MRV_IMPLICIT_H                                        
M  SDD   1     0.0000    0.0000    DR    ALL  0       0  
M  SED   1 IMPL_H1
M  END
>  <Name_Molregno>
127415

>  <HISTAMINE H3>
6.85

>  <HISTAMINE H4>
5.29

$$$$
127416
  Marvin  02231216192D 0   1.00000     0.00000     0

 12 13  0  0  0  0  0  0  0  0999 V2000
   -2.8320   -1.1639    0.0000 N   0  0  0  0  0  0  0  0  0
   -3.0870   -0.3793    0.0000 C   0  0  0  0  0  0  0  0  0
   -2.4195    0.1057    0.0000 C   0  0  0  0  0  0  0  0  0
   -1.7521   -0.3793    0.0000 N   0  0  0  0  0  0  0  0  0
   -2.0070   -1.1639    0.0000 C   0  0  0  0  0  0  0  0  0
   -2.4195    0.9307    0.0000 C   0  0  0  0  0  0  0  0  0
   -1.7050    1.3432    0.0000 C   0  0  0  0  0  0  0  0  0
   -1.7050    2.1682    0.0000 C   0  0  0  0  0  0  0  0  0
   -0.9906    2.5807    0.0000 C   0  0  0  0  0  0  0  0  0
   -0.2761    2.1682    0.0000 N   0  0  0  0  0  0  0  0  0
   -0.2761    1.3432    0.0000 C   0  0  0  0  0  0  0  0  0
   -0.9906    0.9307    0.0000 C   0  0  0  0  0  0  0  0  0
  1  2  4  0  0  0  0
  1  5  4  0  0  0  0
  2  3  4  0  0  0  0
  3  4  4  0  0  0  0
  3  6  1  0  0  0  0
  4  5  4  0  0  0  0
  6  7  1  0  0  0  0
  7  8  1  0  0  0  0
  7 12  1  0  0  0  0
  8  9  1  0  0  0  0
  9 10  1  0  0  0  0
 10 11  1  0  0  0  0
 11 12  1  0  0  0  0
M  STY  1   1 DAT
M  SAL   1  1   1
M  SDT   1 MRV_IMPLICIT_H                                        
M  SDD   1     0.0000    0.0000    DR    ALL  0       0  
M  SED   1 IMPL_H1
M  END
>  <Name_Molregno>
127416

>  <HISTAMINE H2>
5.5

>  <HISTAMINE H3>
9.28

>  <HISTAMINE H4>
7.41

$$$$
127485
  Marvin  02231216192D 0   1.00000     0.00000     0

 12 13  0  0  0  0  0  0  0  0999 V2000
   -2.8320   -1.1639    0.0000 N   0  0  0  0  0  0  0  0  0
   -3.0870   -0.3793    0.0000 C   0  0  0  0  0  0  0  0  0
   -2.4195    0.1057    0.0000 C   0  0  0  0  0  0  0  0  0
   -1.7521   -0.3793    0.0000 N   0  0  0  0  0  0  0  0  0
   -2.0070   -1.1639    0.0000 C   0  0  0  0  0  0  0  0  0
   -2.4195    0.9307    0.0000 C   0  0  0  0  0  0  0  0  0
   -1.7050    1.3432    0.0000 C   0  0  0  0  0  0  0  0  0
   -1.7050    2.1682    0.0000 C   0  0  0  0  0  0  0  0  0
   -0.9906    2.5807    0.0000 C   0  0  0  0  0  0  0  0  0
   -0.2761    2.1682    0.0000 C   0  0  0  0  0  0  0  0  0
   -0.2761    1.3432    0.0000 N   0  0  0  0  0  0  0  0  0
   -0.9906    0.9307    0.0000 C   0  0  0  0  0  0  0  0  0
  1  2  4  0  0  0  0
  1  5  4  0  0  0  0
  2  3  4  0  0  0  0
  3  4  4  0  0  0  0
  3  6  1  0  0  0  0
  4  5  4  0  0  0  0
  6  7  1  0  0  0  0
  7  8  4  0  0  0  0
  7 12  4  0  0  0  0
  8  9  4  0  0  0  0
  9 10  4  0  0  0  0
 10 11  4  0  0  0  0
 11 12  4  0  0  0  0
M  STY  1   1 DAT
M  SAL   1  1   1
M  SDT   1 MRV_IMPLICIT_H                                        
M  SDD   1     0.0000    0.0000    DR    ALL  0       0  
M  SED   1 IMPL_H1
M  END
>  <Name_Molregno>
127485

>  <HISTAMINE H3>
7.28

>  <HISTAMINE H4>
6.16

$$$$
127543
  Marvin  02231216192D 0   1.00000     0.00000     0

 12 13  0  0  0  0  0  0  0  0999 V2000
   -2.8320   -1.1639    0.0000 N   0  0  0  0  0  0  0  0  0
   -3.0870   -0.3793    0.0000 C   0  0  0  0  0  0  0  0  0
   -2.4195    0.1057    0.0000 C   0  0  0  0  0  0  0  0  0
   -1.7521   -0.3793    0.0000 N   0  0  0  0  0  0  0  0  0
   -2.0070   -1.1639    0.0000 C   0  0  0  0  0  0  0  0  0
   -2.4195    0.9307    0.0000 C   0  0  0  0  0  0  0  0  0
   -1.7050    1.3432    0.0000 C   0  0  0  0  0  0  0  0  0
   -1.7050    2.1682    0.0000 N   0  0  0  0  0  0  0  0  0
   -0.9906    2.5807    0.0000 C   0  0  0  0  0  0  0  0  0
   -0.2761    2.1682    0.0000 C   0  0  0  0  0  0  0  0  0
   -0.2761    1.3432    0.0000 C   0  0  0  0  0  0  0  0  0
   -0.9906    0.9307    0.0000 C   0  0  0  0  0  0  0  0  0
  1  2  4  0  0  0  0
  1  5  4  0  0  0  0
  2  3  4  0  0  0  0
  3  4  4  0  0  0  0
  3  6  1  0  0  0  0
  4  5  4  0  0  0  0
  6  7  1  0  0  0  0
  7  8  4  0  0  0  0
  7 12  4  0  0  0  0
  8  9  4  0  0  0  0
  9 10  4  0  0  0  0
 10 11  4  0  0  0  0
 11 12  4  0  0  0  0
M  STY  1   1 DAT
M  SAL   1  1   1
M  SDT   1 MRV_IMPLICIT_H                                        
M  SDD   1     0.0000    0.0000    DR    ALL  0       0  
M  SED   1 IMPL_H1
M  END
>  <Name_Molregno>
127543

>  <HISTAMINE H3>
6.23

>  <HISTAMINE H4>
5.34

$$$$
127575
  Marvin  02231216192D 0   1.00000     0.00000     0

 13 14  0  0  0  0  0  0  0  0999 V2000
    2.5047   -2.7675    0.0000 N   0  0  0  0  0  0  0  0  0
    2.2497   -1.9829    0.0000 C   0  0  0  0  0  0  0  0  0
    2.9172   -1.4980    0.0000 C   0  0  0  0  0  0  0  0  0
    3.5846   -1.9829    0.0000 N   0  0  0  0  0  0  0  0  0
    3.3297   -2.7675    0.0000 C   0  0  0  0  0  0  0  0  0
    2.9172   -0.6730    0.0000 C   0  0  0  0  0  0  0  0  0
    2.2027   -0.2605    0.0000 C   0  0  0  0  0  0  0  0  0
    2.2027    0.5645    0.0000 C   0  0  0  0  0  0  0  0  0
    1.4882    0.9770    0.0000 C   0  0  0  0  0  0  0  0  0
    1.4882    1.8020    0.0000 C   0  0  0  0  0  0  0  0  0
    2.2027    2.2145    0.0000 N   0  0  0  0  0  0  0  0  0
    2.9172    1.8020    0.0000 C   0  0  0  0  0  0  0  0  0
    2.9172    0.9770    0.0000 C   0  0  0  0  0  0  0  0  0
  1  2  4  0  0  0  0
  1  5  4  0  0  0  0
  2  3  4  0  0  0  0
  3  4  4  0  0  0  0
  3  6  1  0  0  0  0
  4  5  4  0  0  0  0
  6  7  1  0  0  0  0
  7  8  1  0  0  0  0
  8  9  4  0  0  0  0
  8 13  4  0  0  0  0
  9 10  4  0  0  0  0
 10 11  4  0  0  0  0
 11 12  4  0  0  0  0
 12 13  4  0  0  0  0
M  STY  1   1 DAT
M  SAL   1  1   1
M  SDT   1 MRV_IMPLICIT_H                                        
M  SDD   1     0.0000    0.0000    DR    ALL  0       0  
M  SED   1 IMPL_H1
M  END
>  <Name_Molregno>
127575

>  <HISTAMINE H3>
8.16

>  <HISTAMINE H4>
5.88

$$$$
127576
  Marvin  02231216192D 0   1.00000     0.00000     0

 14 15  0  0  0  0  0  0  0  0999 V2000
    1.3642   -3.0962    0.0000 N   0  0  0  0  0  0  0  0  0
    1.1093   -2.3116    0.0000 C   0  0  0  0  0  0  0  0  0
    1.7767   -1.8266    0.0000 C   0  0  0  0  0  0  0  0  0
    2.4442   -2.3116    0.0000 N   0  0  0  0  0  0  0  0  0
    2.1892   -3.0962    0.0000 C   0  0  0  0  0  0  0  0  0
    1.7767   -1.0016    0.0000 C   0  0  0  0  0  0  0  0  0
    2.4912   -0.5891    0.0000 C   0  0  0  0  0  0  0  0  0
    2.4912    0.2359    0.0000 C   0  0  0  0  0  0  0  0  0
    3.2057    0.6484    0.0000 C   0  0  0  0  0  0  0  0  0
    3.2057    1.4734    0.0000 C   0  0  0  0  0  0  0  0  0
    3.9201    1.8859    0.0000 C   0  0  0  0  0  0  0  0  0
    4.6346    1.4734    0.0000 C   0  0  0  0  0  0  0  0  0
    4.6346    0.6484    0.0000 N   0  0  0  0  0  0  0  0  0
    3.9201    0.2359    0.0000 C   0  0  0  0  0  0  0  0  0
  1  2  4  0  0  0  0
  1  5  4  0  0  0  0
  2  3  4  0  0  0  0
  3  4  4  0  0  0  0
  3  6  1  0  0  0  0
  4  5  4  0  0  0  0
  6  7  1  0  0  0  0
  7  8  1  0  0  0  0
  8  9  1  0  0  0  0
  9 10  4  0  0  0  0
  9 14  4  0  0  0  0
 10 11  4  0  0  0  0
 11 12  4  0  0  0  0
 12 13  4  0  0  0  0
 13 14  4  0  0  0  0
M  STY  1   1 DAT
M  SAL   1  1   1
M  SDT   1 MRV_IMPLICIT_H                                        
M  SDD   1     0.0000    0.0000    DR    ALL  0       0  
M  SED   1 IMPL_H1
M  END
>  <Name_Molregno>
127576

>  <HISTAMINE H3>
7.48

>  <HISTAMINE H4>
6.32

$$$$
145768
  Marvin  02231216192D 0   1.00000     0.00000     0

 23 26  0  0  0  0  0  0  0  0999 V2000
    3.9671    1.6854    0.0000 Cl  0  0  0  0  0  0  0  0  0
    3.1788    1.4422    0.0000 C   0  0  0  0  0  0  0  0  0
    2.5740    2.0033    0.0000 C   0  0  0  0  0  0  0  0  0
    1.7856    1.7602    0.0000 C   0  0  0  0  0  0  0  0  0
    1.6021    0.9558    0.0000 C   0  0  0  0  0  0  0  0  0
    0.8588    0.5979    0.0000 O   0  0  0  0  0  0  0  0  0
    0.1155    0.9558    0.0000 C   0  0  0  0  0  0  0  0  0
   -0.0681    1.7602    0.0000 C   0  0  0  0  0  0  0  0  0
    0.4463    2.4052    0.0000 C   0  0  0  0  0  0  0  0  0
    1.2713    2.4052    0.0000 C   0  0  0  0  0  0  0  0  0
    1.6292    3.1485    0.0000 N   0  0  0  0  0  0  0  0  0
    1.1645    3.8301    0.0000 C   0  0  0  0  0  0  0  0  0
    1.5224    4.5734    0.0000 C   0  0  0  0  0  0  0  0  0
    2.3451    4.6351    0.0000 N   0  0  0  0  0  0  0  0  0
    2.8099    3.9534    0.0000 C   0  0  0  0  0  0  0  0  0
    2.4519    3.2101    0.0000 C   0  0  0  0  0  0  0  0  0
    2.7031    5.3784    0.0000 C   0  0  0  0  0  0  0  0  0
   -0.8565    2.0033    0.0000 C   0  0  0  0  0  0  0  0  0
   -1.4612    1.4422    0.0000 C   0  0  0  0  0  0  0  0  0
   -1.2776    0.6379    0.0000 C   0  0  0  0  0  0  0  0  0
   -0.4893    0.3947    0.0000 C   0  0  0  0  0  0  0  0  0
    2.2068    0.3947    0.0000 C   0  0  0  0  0  0  0  0  0
    2.9952    0.6379    0.0000 C   0  0  0  0  0  0  0  0  0
  1  2  1  0  0  0  0
  2  3  4  0  0  0  0
  2 23  4  0  0  0  0
  3  4  4  0  0  0  0
  4  5  4  0  0  0  0
  4 10  1  0  0  0  0
  5  6  1  0  0  0  0
  5 22  4  0  0  0  0
  6  7  1  0  0  0  0
  7  8  4  0  0  0  0
  7 21  4  0  0  0  0
  8  9  1  0  0  0  0
  8 18  4  0  0  0  0
  9 10  2  0  0  0  0
 10 11  1  0  0  0  0
 11 12  1  0  0  0  0
 11 16  1  0  0  0  0
 12 13  1  0  0  0  0
 13 14  1  0  0  0  0
 14 15  1  0  0  0  0
 14 17  1  0  0  0  0
 15 16  1  0  0  0  0
 18 19  4  0  0  0  0
 19 20  4  0  0  0  0
 20 21  4  0  0  0  0
 22 23  4  0  0  0  0
M  END
>  <Name_Molregno>
145768

>  <HISTAMINE H4>
5

$$$$
148765
  Marvin  02231216192D 0   1.00000     0.00000     0

 10 10  0  0  0  0  0  0  0  0999 V2000
   -0.0461   -0.3555    0.0000 N   0  0  0  0  0  0  0  0  0
    0.5060    0.2576    0.0000 C   0  0  0  0  0  0  0  0  0
    1.2596   -0.0779    0.0000 C   0  0  0  0  0  0  0  0  0
    1.1734   -0.8984    0.0000 N   0  0  0  0  0  0  0  0  0
    0.3664   -1.0700    0.0000 C   0  0  0  0  0  0  0  0  0
    1.9741    0.3346    0.0000 C   0  0  0  0  0  0  0  0  0
    2.6886   -0.0779    0.0000 C   0  0  0  0  0  0  0  0  0
    3.4031    0.3346    0.0000 C   0  0  0  0  0  0  0  0  0
    4.1175   -0.0779    0.0000 C   0  0  0  0  0  0  0  0  0
    4.8320    0.3346    0.0000 N   0  0  0  0  0  0  0  0  0
  1  2  4  0  0  0  0
  1  5  4  0  0  0  0
  2  3  4  0  0  0  0
  3  4  4  0  0  0  0
  3  6  1  0  0  0  0
  4  5  4  0  0  0  0
  6  7  1  0  0  0  0
  7  8  1  0  0  0  0
  8  9  1  0  0  0  0
  9 10  1  0  0  0  0
M  STY  1   1 DAT
M  SAL   1  1   1
M  SDT   1 MRV_IMPLICIT_H                                        
M  SDD   1     0.0000    0.0000    DR    ALL  0       0  
M  SED   1 IMPL_H1
M  END
>  <Name_Molregno>
148765

>  <HISTAMINE H3>
8.39

>  <HISTAMINE H4>
7.92

$$$$
196037
  Marvin  02231216192D 0   1.00000     0.00000     0

 25 28  0  0  0  0  0  0  0  0999 V2000
   -0.3016    0.3860    0.0000 N   0  0  0  0  0  0  0  0  0
    0.4129   -0.0265    0.0000 C   0  0  0  0  0  0  0  0  0
    0.4129   -0.8515    0.0000 N   0  0  0  0  0  0  0  0  0
    1.1274   -1.2640    0.0000 C   0  0  0  0  0  0  0  0  0
    1.1274   -2.0890    0.0000 C   0  0  0  0  0  0  0  0  0
    1.8418   -2.5015    0.0000 C   0  0  0  0  0  0  0  0  0
    1.8418   -3.3265    0.0000 C   0  0  0  0  0  0  0  0  0
    1.1274   -3.7390    0.0000 C   0  0  0  0  0  0  0  0  0
    0.4129   -3.3265    0.0000 C   0  0  0  0  0  0  0  0  0
    0.4129   -2.5015    0.0000 C   0  0  0  0  0  0  0  0  0
    1.1274    0.3860    0.0000 C   0  0  0  0  0  0  0  0  0
    1.1274    1.2110    0.0000 C   0  0  0  0  0  0  0  0  0
    0.4129    1.6235    0.0000 N   0  0  0  0  0  0  0  0  0
   -0.3016    1.2110    0.0000 C   0  0  0  0  0  0  0  0  0
   -1.0161    1.6235    0.0000 N   0  0  0  0  0  0  0  0  0
   -1.7305    1.2110    0.0000 C   0  0  0  0  0  0  0  0  0
   -2.4450    1.6235    0.0000 C   0  0  0  0  0  0  0  0  0
   -2.4450    2.4485    0.0000 N   0  0  0  0  0  0  0  0  0
   -1.7305    2.8610    0.0000 C   0  0  0  0  0  0  0  0  0
   -1.0161    2.4485    0.0000 C   0  0  0  0  0  0  0  0  0
   -3.1595    2.8610    0.0000 C   0  0  0  0  0  0  0  0  0
    1.8418    1.6235    0.0000 C   0  0  0  0  0  0  0  0  0
    2.5563    1.2110    0.0000 C   0  0  0  0  0  0  0  0  0
    2.5563    0.3860    0.0000 C   0  0  0  0  0  0  0  0  0
    1.8418   -0.0265    0.0000 C   0  0  0  0  0  0  0  0  0
  1  2  4  0  0  0  0
  1 14  4  0  0  0  0
  2  3  1  0  0  0  0
  2 11  4  0  0  0  0
  3  4  1  0  0  0  0
  4  5  1  0  0  0  0
  5  6  4  0  0  0  0
  5 10  4  0  0  0  0
  6  7  4  0  0  0  0
  7  8  4  0  0  0  0
  8  9  4  0  0  0  0
  9 10  4  0  0  0  0
 11 12  4  0  0  0  0
 11 25  4  0  0  0  0
 12 13  4  0  0  0  0
 12 22  4  0  0  0  0
 13 14  4  0  0  0  0
 14 15  1  0  0  0  0
 15 16  1  0  0  0  0
 15 20  1  0  0  0  0
 16 17  1  0  0  0  0
 17 18  1  0  0  0  0
 18 19  1  0  0  0  0
 18 21  1  0  0  0  0
 19 20  1  0  0  0  0
 22 23  4  0  0  0  0
 23 24  4  0  0  0  0
 24 25  4  0  0  0  0
M  END
>  <Name_Molregno>
196037

>  <HISTAMINE H4>
5.97

$$$$
201324
  Marvin  02231216192D 0   1.00000     0.00000     0

 17 19  0  0  0  0  0  0  0  0999 V2000
    0.2117    0.2218    0.0000 N   0  0  0  0  0  0  0  0  0
    0.9262    0.6343    0.0000 C   0  0  0  0  0  0  0  0  0
    0.9262    1.4593    0.0000 C   0  0  0  0  0  0  0  0  0
    0.2117    1.8718    0.0000 N   0  0  0  0  0  0  0  0  0
   -0.5028    1.4593    0.0000 C   0  0  0  0  0  0  0  0  0
   -0.5028    0.6343    0.0000 C   0  0  0  0  0  0  0  0  0
   -1.2172    0.2218    0.0000 N   0  0  0  0  0  0  0  0  0
   -1.2172   -0.6032    0.0000 C   0  0  0  0  0  0  0  0  0
   -1.9317   -1.0157    0.0000 C   0  0  0  0  0  0  0  0  0
   -2.6462   -0.6032    0.0000 N   0  0  0  0  0  0  0  0  0
   -2.6462    0.2218    0.0000 C   0  0  0  0  0  0  0  0  0
   -1.9317    0.6343    0.0000 C   0  0  0  0  0  0  0  0  0
   -3.3607   -1.0157    0.0000 C   0  0  0  0  0  0  0  0  0
    1.6406    1.8718    0.0000 C   0  0  0  0  0  0  0  0  0
    2.3551    1.4593    0.0000 C   0  0  0  0  0  0  0  0  0
    2.3551    0.6343    0.0000 C   0  0  0  0  0  0  0  0  0
    1.6406    0.2218    0.0000 C   0  0  0  0  0  0  0  0  0
  1  2  4  0  0  0  0
  1  6  4  0  0  0  0
  2  3  4  0  0  0  0
  2 17  4  0  0  0  0
  3  4  4  0  0  0  0
  3 14  4  0  0  0  0
  4  5  4  0  0  0  0
  5  6  4  0  0  0  0
  6  7  1  0  0  0  0
  7  8  1  0  0  0  0
  7 12  1  0  0  0  0
  8  9  1  0  0  0  0
  9 10  1  0  0  0  0
 10 11  1  0  0  0  0
 10 13  1  0  0  0  0
 11 12  1  0  0  0  0
 14 15  4  0  0  0  0
 15 16  4  0  0  0  0
 16 17  4  0  0  0  0
M  END
>  <Name_Molregno>
201324

>  <HISTAMINE H4>
6.05

$$$$
209314
  Marvin  02231216192D 0   1.00000     0.00000     0

 22 25  0  0  0  0  0  0  0  0999 V2000
    1.2068    1.3957    0.0000 O   0  0  0  0  0  0  0  0  0
    1.9501    1.0377    0.0000 C   0  0  0  0  0  0  0  0  0
    2.1337    0.2334    0.0000 C   0  0  0  0  0  0  0  0  0
    2.9220   -0.0098    0.0000 C   0  0  0  0  0  0  0  0  0
    3.5268    0.5514    0.0000 C   0  0  0  0  0  0  0  0  0
    3.3432    1.3557    0.0000 C   0  0  0  0  0  0  0  0  0
    2.5548    1.5989    0.0000 C   0  0  0  0  0  0  0  0  0
    1.6193   -0.4116    0.0000 C   0  0  0  0  0  0  0  0  0
    0.7943   -0.4116    0.0000 N   0  0  0  0  0  0  0  0  0
    0.2799    0.2334    0.0000 C   0  0  0  0  0  0  0  0  0
    0.4635    1.0377    0.0000 C   0  0  0  0  0  0  0  0  0
   -0.1413    1.5989    0.0000 C   0  0  0  0  0  0  0  0  0
   -0.9296    1.3557    0.0000 C   0  0  0  0  0  0  0  0  0
   -1.1132    0.5514    0.0000 C   0  0  0  0  0  0  0  0  0
   -0.5085   -0.0098    0.0000 C   0  0  0  0  0  0  0  0  0
    1.9772   -1.1549    0.0000 N   0  0  0  0  0  0  0  0  0
    2.7999   -1.2165    0.0000 C   0  0  0  0  0  0  0  0  0
    3.1579   -1.9598    0.0000 C   0  0  0  0  0  0  0  0  0
    2.6931   -2.6415    0.0000 N   0  0  0  0  0  0  0  0  0
    1.8704   -2.5798    0.0000 C   0  0  0  0  0  0  0  0  0
    1.5125   -1.8365    0.0000 C   0  0  0  0  0  0  0  0  0
    3.0511   -3.3848    0.0000 C   0  0  0  0  0  0  0  0  0
  1  2  1  0  0  0  0
  1 11  1  0  0  0  0
  2  3  4  0  0  0  0
  2  7  4  0  0  0  0
  3  4  4  0  0  0  0
  3  8  1  0  0  0  0
  4  5  4  0  0  0  0
  5  6  4  0  0  0  0
  6  7  4  0  0  0  0
  8  9  2  0  0  0  0
  8 16  1  0  0  0  0
  9 10  1  0  0  0  0
 10 11  4  0  0  0  0
 10 15  4  0  0  0  0
 11 12  4  0  0  0  0
 12 13  4  0  0  0  0
 13 14  4  0  0  0  0
 14 15  4  0  0  0  0
 16 17  1  0  0  0  0
 16 21  1  0  0  0  0
 17 18  1  0  0  0  0
 18 19  1  0  0  0  0
 19 20  1  0  0  0  0
 19 22  1  0  0  0  0
 20 21  1  0  0  0  0
M  END
>  <Name_Molregno>
209314

>  <HISTAMINE H4>
6.88

$$$$
209616
  Marvin  02231216192D 0   1.00000     0.00000     0

 22 25  0  0  0  0  0  0  0  0999 V2000
    0.4466    0.9226    0.0000 N   0  0  0  0  0  0  0  0  0
    0.9610    0.2776    0.0000 C   0  0  0  0  0  0  0  0  0
    0.7774   -0.5267    0.0000 C   0  0  0  0  0  0  0  0  0
    0.0341   -0.8847    0.0000 C   0  0  0  0  0  0  0  0  0
   -0.7092   -0.5267    0.0000 C   0  0  0  0  0  0  0  0  0
   -0.8927    0.2776    0.0000 C   0  0  0  0  0  0  0  0  0
   -1.6811    0.5208    0.0000 C   0  0  0  0  0  0  0  0  0
   -2.2859   -0.0404    0.0000 C   0  0  0  0  0  0  0  0  0
   -2.1023   -0.8447    0.0000 C   0  0  0  0  0  0  0  0  0
   -1.3139   -1.0879    0.0000 C   0  0  0  0  0  0  0  0  0
   -0.3784    0.9226    0.0000 C   0  0  0  0  0  0  0  0  0
   -0.7363    1.6659    0.0000 N   0  0  0  0  0  0  0  0  0
   -1.5590    1.7276    0.0000 C   0  0  0  0  0  0  0  0  0
   -1.9170    2.4709    0.0000 C   0  0  0  0  0  0  0  0  0
   -1.4522    3.1525    0.0000 N   0  0  0  0  0  0  0  0  0
   -0.6295    3.0909    0.0000 C   0  0  0  0  0  0  0  0  0
   -0.2716    2.3476    0.0000 C   0  0  0  0  0  0  0  0  0
   -1.8102    3.8958    0.0000 C   0  0  0  0  0  0  0  0  0
    1.3822   -1.0879    0.0000 C   0  0  0  0  0  0  0  0  0
    2.1706   -0.8447    0.0000 C   0  0  0  0  0  0  0  0  0
    2.3541   -0.0404    0.0000 C   0  0  0  0  0  0  0  0  0
    1.7494    0.5208    0.0000 C   0  0  0  0  0  0  0  0  0
  1  2  1  0  0  0  0
  1 11  2  0  0  0  0
  2  3  4  0  0  0  0
  2 22  4  0  0  0  0
  3  4  1  0  0  0  0
  3 19  4  0  0  0  0
  4  5  1  0  0  0  0
  5  6  4  0  0  0  0
  5 10  4  0  0  0  0
  6  7  4  0  0  0  0
  6 11  1  0  0  0  0
  7  8  4  0  0  0  0
  8  9  4  0  0  0  0
  9 10  4  0  0  0  0
 11 12  1  0  0  0  0
 12 13  1  0  0  0  0
 12 17  1  0  0  0  0
 13 14  1  0  0  0  0
 14 15  1  0  0  0  0
 15 16  1  0  0  0  0
 15 18  1  0  0  0  0
 16 17  1  0  0  0  0
 19 20  4  0  0  0  0
 20 21  4  0  0  0  0
 21 22  4  0  0  0  0
M  END
>  <Name_Molregno>
209616

>  <5-HT2A>
7.7

>  <5-HT6>
6.82

>  <DOPAMINE D2>
7.22

>  <DOPAMINE D3>
7

>  <DOPAMINE D4>
7.52

>  <HISTAMINE H4>
5.32

$$$$
212342
  Marvin  02231216192D 0   1.00000     0.00000     0

 19 21  0  0  0  0  0  0  0  0999 V2000
    6.7813   -1.7154    0.0000 F   0  0  0  0  0  0  0  0  0
    6.0668   -1.3029    0.0000 C   0  0  0  0  0  0  0  0  0
    5.3523   -1.7154    0.0000 C   0  0  0  0  0  0  0  0  0
    4.6379   -1.3029    0.0000 C   0  0  0  0  0  0  0  0  0
    3.8532   -1.5579    0.0000 C   0  0  0  0  0  0  0  0  0
    3.3683   -0.8904    0.0000 C   0  0  0  0  0  0  0  0  0
    3.8532   -0.2230    0.0000 N   0  0  0  0  0  0  0  0  0
    4.6379   -0.4779    0.0000 C   0  0  0  0  0  0  0  0  0
    5.3523   -0.0654    0.0000 C   0  0  0  0  0  0  0  0  0
    6.0668   -0.4779    0.0000 C   0  0  0  0  0  0  0  0  0
    2.5433   -0.8904    0.0000 C   0  0  0  0  0  0  0  0  0
    2.1308   -1.6049    0.0000 O   0  0  0  0  0  0  0  0  0
    2.1308   -0.1760    0.0000 N   0  0  0  0  0  0  0  0  0
    1.3058   -0.1760    0.0000 C   0  0  0  0  0  0  0  0  0
    0.8933    0.5385    0.0000 C   0  0  0  0  0  0  0  0  0
    1.3058    1.2530    0.0000 N   0  0  0  0  0  0  0  0  0
    2.1308    1.2530    0.0000 C   0  0  0  0  0  0  0  0  0
    2.5433    0.5385    0.0000 C   0  0  0  0  0  0  0  0  0
    0.8933    1.9674    0.0000 C   0  0  0  0  0  0  0  0  0
  1  2  1  0  0  0  0
  2  3  4  0  0  0  0
  2 10  4  0  0  0  0
  3  4  4  0  0  0  0
  4  5  4  0  0  0  0
  4  8  4  0  0  0  0
  5  6  4  0  0  0  0
  6  7  4  0  0  0  0
  6 11  1  0  0  0  0
  7  8  4  0  0  0  0
  8  9  4  0  0  0  0
  9 10  4  0  0  0  0
 11 12  2  0  0  0  0
 11 13  1  0  0  0  0
 13 14  1  0  0  0  0
 13 18  1  0  0  0  0
 14 15  1  0  0  0  0
 15 16  1  0  0  0  0
 16 17  1  0  0  0  0
 16 19  1  0  0  0  0
 17 18  1  0  0  0  0
M  STY  1   1 DAT
M  SAL   1  1   7
M  SDT   1 MRV_IMPLICIT_H                                        
M  SDD   1     0.0000    0.0000    DR    ALL  0       0  
M  SED   1 IMPL_H1
M  END
>  <Name_Molregno>
212342

>  <HISTAMINE H4>
7.82

$$$$
212343
  Marvin  02231216192D 0   1.00000     0.00000     0

 19 21  0  0  0  0  0  0  0  0999 V2000
    6.7813   -1.7154    0.0000 Cl  0  0  0  0  0  0  0  0  0
    6.0668   -1.3029    0.0000 C   0  0  0  0  0  0  0  0  0
    5.3523   -1.7154    0.0000 C   0  0  0  0  0  0  0  0  0
    4.6379   -1.3029    0.0000 C   0  0  0  0  0  0  0  0  0
    3.8532   -1.5579    0.0000 C   0  0  0  0  0  0  0  0  0
    3.3683   -0.8904    0.0000 C   0  0  0  0  0  0  0  0  0
    3.8532   -0.2230    0.0000 N   0  0  0  0  0  0  0  0  0
    4.6379   -0.4779    0.0000 C   0  0  0  0  0  0  0  0  0
    5.3523   -0.0654    0.0000 C   0  0  0  0  0  0  0  0  0
    6.0668   -0.4779    0.0000 C   0  0  0  0  0  0  0  0  0
    2.5433   -0.8904    0.0000 C   0  0  0  0  0  0  0  0  0
    2.1308   -1.6049    0.0000 O   0  0  0  0  0  0  0  0  0
    2.1308   -0.1760    0.0000 N   0  0  0  0  0  0  0  0  0
    1.3058   -0.1760    0.0000 C   0  0  0  0  0  0  0  0  0
    0.8933    0.5385    0.0000 C   0  0  0  0  0  0  0  0  0
    1.3058    1.2530    0.0000 N   0  0  0  0  0  0  0  0  0
    2.1308    1.2530    0.0000 C   0  0  0  0  0  0  0  0  0
    2.5433    0.5385    0.0000 C   0  0  0  0  0  0  0  0  0
    0.8933    1.9674    0.0000 C   0  0  0  0  0  0  0  0  0
  1  2  1  0  0  0  0
  2  3  4  0  0  0  0
  2 10  4  0  0  0  0
  3  4  4  0  0  0  0
  4  5  4  0  0  0  0
  4  8  4  0  0  0  0
  5  6  4  0  0  0  0
  6  7  4  0  0  0  0
  6 11  1  0  0  0  0
  7  8  4  0  0  0  0
  8  9  4  0  0  0  0
  9 10  4  0  0  0  0
 11 12  2  0  0  0  0
 11 13  1  0  0  0  0
 13 14  1  0  0  0  0
 13 18  1  0  0  0  0
 14 15  1  0  0  0  0
 15 16  1  0  0  0  0
 16 17  1  0  0  0  0
 16 19  1  0  0  0  0
 17 18  1  0  0  0  0
M  STY  1   1 DAT
M  SAL   1  1   7
M  SDT   1 MRV_IMPLICIT_H                                        
M  SDD   1     0.0000    0.0000    DR    ALL  0       0  
M  SED   1 IMPL_H1
M  END
>  <Name_Molregno>
212343

>  <HISTAMINE H1>
6.01

>  <HISTAMINE H2>
5.07

>  <HISTAMINE H3>
5.57

>  <HISTAMINE H4>
7.94

$$$$
212377
  Marvin  02231216192D 0   1.00000     0.00000     0

 20 22  0  0  0  0  0  0  0  0999 V2000
   -0.7669    0.1447    0.0000 F   0  0  0  0  0  0  0  0  0
   -0.7669   -0.6803    0.0000 C   0  0  0  0  0  0  0  0  0
   -0.0524   -1.0928    0.0000 C   0  0  0  0  0  0  0  0  0
   -0.0524   -1.9178    0.0000 C   0  0  0  0  0  0  0  0  0
    0.6621   -2.3303    0.0000 F   0  0  0  0  0  0  0  0  0
   -0.7669   -2.3303    0.0000 C   0  0  0  0  0  0  0  0  0
   -1.4813   -1.9178    0.0000 C   0  0  0  0  0  0  0  0  0
   -1.4813   -1.0928    0.0000 C   0  0  0  0  0  0  0  0  0
   -2.2660   -0.8379    0.0000 N   0  0  0  0  0  0  0  0  0
   -2.7509   -1.5053    0.0000 C   0  0  0  0  0  0  0  0  0
   -2.2660   -2.1727    0.0000 C   0  0  0  0  0  0  0  0  0
   -3.5759   -1.5053    0.0000 C   0  0  0  0  0  0  0  0  0
   -3.9884   -2.2198    0.0000 O   0  0  0  0  0  0  0  0  0
   -3.9884   -0.7908    0.0000 N   0  0  0  0  0  0  0  0  0
   -4.8134   -0.7908    0.0000 C   0  0  0  0  0  0  0  0  0
   -5.2259   -0.0764    0.0000 C   0  0  0  0  0  0  0  0  0
   -4.8134    0.6381    0.0000 N   0  0  0  0  0  0  0  0  0
   -3.9884    0.6381    0.0000 C   0  0  0  0  0  0  0  0  0
   -3.5759   -0.0764    0.0000 C   0  0  0  0  0  0  0  0  0
   -5.2259    1.3526    0.0000 C   0  0  0  0  0  0  0  0  0
  1  2  1  0  0  0  0
  2  3  4  0  0  0  0
  2  8  4  0  0  0  0
  3  4  4  0  0  0  0
  4  5  1  0  0  0  0
  4  6  4  0  0  0  0
  6  7  4  0  0  0  0
  7  8  4  0  0  0  0
  7 11  4  0  0  0  0
  8  9  4  0  0  0  0
  9 10  4  0  0  0  0
 10 11  4  0  0  0  0
 10 12  1  0  0  0  0
 12 13  2  0  0  0  0
 12 14  1  0  0  0  0
 14 15  1  0  0  0  0
 14 19  1  0  0  0  0
 15 16  1  0  0  0  0
 16 17  1  0  0  0  0
 17 18  1  0  0  0  0
 17 20  1  0  0  0  0
 18 19  1  0  0  0  0
M  STY  1   1 DAT
M  SAL   1  1   9
M  SDT   1 MRV_IMPLICIT_H                                        
M  SDD   1     0.0000    0.0000    DR    ALL  0       0  
M  SED   1 IMPL_H1
M  END
>  <Name_Molregno>
212377

>  <HISTAMINE H4>
7.85

$$$$
212423
  Marvin  02231216192D 0   1.00000     0.00000     0

 18 20  0  0  0  0  0  0  0  0999 V2000
   -0.8102   -0.3538    0.0000 O   0  0  0  0  0  0  0  0  0
   -0.3977   -1.0683    0.0000 C   0  0  0  0  0  0  0  0  0
   -0.8102   -1.7828    0.0000 N   0  0  0  0  0  0  0  0  0
   -0.3977   -2.4972    0.0000 C   0  0  0  0  0  0  0  0  0
   -0.8102   -3.2117    0.0000 C   0  0  0  0  0  0  0  0  0
   -1.6352   -3.2117    0.0000 N   0  0  0  0  0  0  0  0  0
   -2.0477   -2.4972    0.0000 C   0  0  0  0  0  0  0  0  0
   -1.6352   -1.7828    0.0000 C   0  0  0  0  0  0  0  0  0
   -2.0477   -3.9262    0.0000 C   0  0  0  0  0  0  0  0  0
    0.4273   -1.0683    0.0000 C   0  0  0  0  0  0  0  0  0
    0.9122   -1.7357    0.0000 N   0  0  0  0  0  0  0  0  0
    1.6968   -1.4808    0.0000 C   0  0  0  0  0  0  0  0  0
    1.6968   -0.6558    0.0000 C   0  0  0  0  0  0  0  0  0
    0.9122   -0.4009    0.0000 C   0  0  0  0  0  0  0  0  0
    2.4113   -0.2433    0.0000 C   0  0  0  0  0  0  0  0  0
    3.1258   -0.6558    0.0000 C   0  0  0  0  0  0  0  0  0
    3.1258   -1.4808    0.0000 C   0  0  0  0  0  0  0  0  0
    2.4113   -1.8933    0.0000 C   0  0  0  0  0  0  0  0  0
  1  2  2  0  0  0  0
  2  3  1  0  0  0  0
  2 10  1  0  0  0  0
  3  4  1  0  0  0  0
  3  8  1  0  0  0  0
  4  5  1  0  0  0  0
  5  6  1  0  0  0  0
  6  7  1  0  0  0  0
  6  9  1  0  0  0  0
  7  8  1  0  0  0  0
 10 11  4  0  0  0  0
 10 14  4  0  0  0  0
 11 12  4  0  0  0  0
 12 13  4  0  0  0  0
 12 18  4  0  0  0  0
 13 14  4  0  0  0  0
 13 15  4  0  0  0  0
 15 16  4  0  0  0  0
 16 17  4  0  0  0  0
 17 18  4  0  0  0  0
M  STY  1   1 DAT
M  SAL   1  1  11
M  SDT   1 MRV_IMPLICIT_H                                        
M  SDD   1     0.0000    0.0000    DR    ALL  0       0  
M  SED   1 IMPL_H1
M  END
>  <Name_Molregno>
212423

>  <HISTAMINE H4>
7.6

$$$$
212463
  Marvin  02231216192D 0   1.00000     0.00000     0

 17 19  0  0  0  0  0  0  0  0999 V2000
   -1.8065   -0.4449    0.0000 O   0  0  0  0  0  0  0  0  0
   -1.3940   -1.1594    0.0000 C   0  0  0  0  0  0  0  0  0
   -1.8065   -1.8738    0.0000 N   0  0  0  0  0  0  0  0  0
   -1.3940   -2.5883    0.0000 C   0  0  0  0  0  0  0  0  0
   -1.8065   -3.3028    0.0000 C   0  0  0  0  0  0  0  0  0
   -2.6315   -3.3028    0.0000 N   0  0  0  0  0  0  0  0  0
   -3.0440   -2.5883    0.0000 C   0  0  0  0  0  0  0  0  0
   -2.6315   -1.8738    0.0000 C   0  0  0  0  0  0  0  0  0
   -0.5690   -1.1594    0.0000 C   0  0  0  0  0  0  0  0  0
   -0.0841   -1.8268    0.0000 N   0  0  0  0  0  0  0  0  0
    0.7005   -1.5719    0.0000 C   0  0  0  0  0  0  0  0  0
    0.7005   -0.7469    0.0000 C   0  0  0  0  0  0  0  0  0
   -0.0841   -0.4919    0.0000 C   0  0  0  0  0  0  0  0  0
    1.4150   -0.3344    0.0000 C   0  0  0  0  0  0  0  0  0
    2.1295   -0.7469    0.0000 C   0  0  0  0  0  0  0  0  0
    2.1295   -1.5719    0.0000 C   0  0  0  0  0  0  0  0  0
    1.4150   -1.9844    0.0000 C   0  0  0  0  0  0  0  0  0
  1  2  2  0  0  0  0
  2  3  1  0  0  0  0
  2  9  1  0  0  0  0
  3  4  1  0  0  0  0
  3  8  1  0  0  0  0
  4  5  1  0  0  0  0
  5  6  1  0  0  0  0
  6  7  1  0  0  0  0
  7  8  1  0  0  0  0
  9 10  4  0  0  0  0
  9 13  4  0  0  0  0
 10 11  4  0  0  0  0
 11 12  4  0  0  0  0
 11 17  4  0  0  0  0
 12 13  4  0  0  0  0
 12 14  4  0  0  0  0
 14 15  4  0  0  0  0
 15 16  4  0  0  0  0
 16 17  4  0  0  0  0
M  STY  1   1 DAT
M  SAL   1  1  10
M  SDT   1 MRV_IMPLICIT_H                                        
M  SDD   1     0.0000    0.0000    DR    ALL  0       0  
M  SED   1 IMPL_H1
M  END
>  <Name_Molregno>
212463

>  <HISTAMINE H3>
5.05

>  <HISTAMINE H4>
7.42

$$$$
212670
  Marvin  02231216192D 0   1.00000     0.00000     0

 19 21  0  0  0  0  0  0  0  0999 V2000
   -1.7459   -0.2521    0.0000 O   0  0  0  0  0  0  0  0  0
   -1.3334   -0.9666    0.0000 C   0  0  0  0  0  0  0  0  0
   -1.7459   -1.6811    0.0000 N   0  0  0  0  0  0  0  0  0
   -1.3334   -2.3955    0.0000 C   0  0  0  0  0  0  0  0  0
   -1.7459   -3.1100    0.0000 C   0  0  0  0  0  0  0  0  0
   -2.5709   -3.1100    0.0000 N   0  0  0  0  0  0  0  0  0
   -2.9834   -2.3955    0.0000 C   0  0  0  0  0  0  0  0  0
   -2.5709   -1.6811    0.0000 C   0  0  0  0  0  0  0  0  0
   -2.9834   -3.8245    0.0000 C   0  0  0  0  0  0  0  0  0
   -0.5084   -0.9666    0.0000 C   0  0  0  0  0  0  0  0  0
   -0.0235   -1.6340    0.0000 N   0  0  0  0  0  0  0  0  0
    0.7611   -1.3791    0.0000 C   0  0  0  0  0  0  0  0  0
    0.7611   -0.5541    0.0000 C   0  0  0  0  0  0  0  0  0
   -0.0235   -0.2992    0.0000 C   0  0  0  0  0  0  0  0  0
    1.4756   -0.1416    0.0000 C   0  0  0  0  0  0  0  0  0
    2.1901   -0.5541    0.0000 C   0  0  0  0  0  0  0  0  0
    2.1901   -1.3791    0.0000 C   0  0  0  0  0  0  0  0  0
    1.4756   -1.7916    0.0000 C   0  0  0  0  0  0  0  0  0
    1.4756   -2.6166    0.0000 C   0  0  0  0  0  0  0  0  0
  1  2  2  0  0  0  0
  2  3  1  0  0  0  0
  2 10  1  0  0  0  0
  3  4  1  0  0  0  0
  3  8  1  0  0  0  0
  4  5  1  0  0  0  0
  5  6  1  0  0  0  0
  6  7  1  0  0  0  0
  6  9  1  0  0  0  0
  7  8  1  0  0  0  0
 10 11  4  0  0  0  0
 10 14  4  0  0  0  0
 11 12  4  0  0  0  0
 12 13  4  0  0  0  0
 12 18  4  0  0  0  0
 13 14  4  0  0  0  0
 13 15  4  0  0  0  0
 15 16  4  0  0  0  0
 16 17  4  0  0  0  0
 17 18  4  0  0  0  0
 18 19  1  0  0  0  0
M  STY  1   1 DAT
M  SAL   1  1  11
M  SDT   1 MRV_IMPLICIT_H                                        
M  SDD   1     0.0000    0.0000    DR    ALL  0       0  
M  SED   1 IMPL_H1
M  END
>  <Name_Molregno>
212670

>  <HISTAMINE H4>
8.15

$$$$
212671
  Marvin  02231216192D 0   1.00000     0.00000     0

 19 21  0  0  0  0  0  0  0  0999 V2000
   -1.7459   -0.2521    0.0000 O   0  0  0  0  0  0  0  0  0
   -1.3334   -0.9666    0.0000 C   0  0  0  0  0  0  0  0  0
   -1.7459   -1.6811    0.0000 N   0  0  0  0  0  0  0  0  0
   -1.3334   -2.3955    0.0000 C   0  0  0  0  0  0  0  0  0
   -1.7459   -3.1100    0.0000 C   0  0  0  0  0  0  0  0  0
   -2.5709   -3.1100    0.0000 N   0  0  0  0  0  0  0  0  0
   -2.9834   -2.3955    0.0000 C   0  0  0  0  0  0  0  0  0
   -2.5709   -1.6811    0.0000 C   0  0  0  0  0  0  0  0  0
   -2.9834   -3.8245    0.0000 C   0  0  0  0  0  0  0  0  0
   -0.5084   -0.9666    0.0000 C   0  0  0  0  0  0  0  0  0
   -0.0235   -1.6340    0.0000 N   0  0  0  0  0  0  0  0  0
    0.7611   -1.3791    0.0000 C   0  0  0  0  0  0  0  0  0
    0.7611   -0.5541    0.0000 C   0  0  0  0  0  0  0  0  0
   -0.0235   -0.2992    0.0000 C   0  0  0  0  0  0  0  0  0
    1.4756   -0.1416    0.0000 C   0  0  0  0  0  0  0  0  0
    2.1901   -0.5541    0.0000 C   0  0  0  0  0  0  0  0  0
    2.1901   -1.3791    0.0000 C   0  0  0  0  0  0  0  0  0
    1.4756   -1.7916    0.0000 C   0  0  0  0  0  0  0  0  0
    1.4756   -2.6166    0.0000 N   0  0  0  0  0  0  0  0  0
  1  2  2  0  0  0  0
  2  3  1  0  0  0  0
  2 10  1  0  0  0  0
  3  4  1  0  0  0  0
  3  8  1  0  0  0  0
  4  5  1  0  0  0  0
  5  6  1  0  0  0  0
  6  7  1  0  0  0  0
  6  9  1  0  0  0  0
  7  8  1  0  0  0  0
 10 11  4  0  0  0  0
 10 14  4  0  0  0  0
 11 12  4  0  0  0  0
 12 13  4  0  0  0  0
 12 18  4  0  0  0  0
 13 14  4  0  0  0  0
 13 15  4  0  0  0  0
 15 16  4  0  0  0  0
 16 17  4  0  0  0  0
 17 18  4  0  0  0  0
 18 19  1  0  0  0  0
M  STY  1   1 DAT
M  SAL   1  1  11
M  SDT   1 MRV_IMPLICIT_H                                        
M  SDD   1     0.0000    0.0000    DR    ALL  0       0  
M  SED   1 IMPL_H1
M  END
>  <Name_Molregno>
212671

>  <HISTAMINE H4>
8.1

$$$$
212672
  Marvin  02231216192D 0   1.00000     0.00000     0

 19 21  0  0  0  0  0  0  0  0999 V2000
   -0.7268   -2.9730    0.0000 Cl  0  0  0  0  0  0  0  0  0
   -0.7268   -2.1480    0.0000 C   0  0  0  0  0  0  0  0  0
   -1.4413   -1.7355    0.0000 C   0  0  0  0  0  0  0  0  0
   -2.2259   -1.9904    0.0000 N   0  0  0  0  0  0  0  0  0
   -2.7108   -1.3230    0.0000 C   0  0  0  0  0  0  0  0  0
   -2.2259   -0.6555    0.0000 C   0  0  0  0  0  0  0  0  0
   -1.4413   -0.9105    0.0000 C   0  0  0  0  0  0  0  0  0
   -0.7268   -0.4980    0.0000 C   0  0  0  0  0  0  0  0  0
   -0.0123   -0.9105    0.0000 C   0  0  0  0  0  0  0  0  0
   -0.0123   -1.7355    0.0000 C   0  0  0  0  0  0  0  0  0
   -3.5358   -1.3230    0.0000 C   0  0  0  0  0  0  0  0  0
   -3.9483   -2.0374    0.0000 O   0  0  0  0  0  0  0  0  0
   -3.9483   -0.6085    0.0000 N   0  0  0  0  0  0  0  0  0
   -4.7733   -0.6085    0.0000 C   0  0  0  0  0  0  0  0  0
   -5.1858    0.1060    0.0000 C   0  0  0  0  0  0  0  0  0
   -4.7733    0.8204    0.0000 N   0  0  0  0  0  0  0  0  0
   -3.9483    0.8204    0.0000 C   0  0  0  0  0  0  0  0  0
   -3.5358    0.1060    0.0000 C   0  0  0  0  0  0  0  0  0
   -5.1858    1.5349    0.0000 C   0  0  0  0  0  0  0  0  0
  1  2  1  0  0  0  0
  2  3  4  0  0  0  0
  2 10  4  0  0  0  0
  3  4  4  0  0  0  0
  3  7  4  0  0  0  0
  4  5  4  0  0  0  0
  5  6  4  0  0  0  0
  5 11  1  0  0  0  0
  6  7  4  0  0  0  0
  7  8  4  0  0  0  0
  8  9  4  0  0  0  0
  9 10  4  0  0  0  0
 11 12  2  0  0  0  0
 11 13  1  0  0  0  0
 13 14  1  0  0  0  0
 13 18  1  0  0  0  0
 14 15  1  0  0  0  0
 15 16  1  0  0  0  0
 16 17  1  0  0  0  0
 16 19  1  0  0  0  0
 17 18  1  0  0  0  0
M  STY  1   1 DAT
M  SAL   1  1   4
M  SDT   1 MRV_IMPLICIT_H                                        
M  SDD   1     0.0000    0.0000    DR    ALL  0       0  
M  SED   1 IMPL_H1
M  END
>  <Name_Molregno>
212672

>  <HISTAMINE H4>
7.72

$$$$
212724
  Marvin  02231216192D 0   1.00000     0.00000     0

 20 22  0  0  0  0  0  0  0  0999 V2000
   -0.7183   -2.9445    0.0000 Cl  0  0  0  0  0  0  0  0  0
   -0.7183   -2.1195    0.0000 C   0  0  0  0  0  0  0  0  0
   -1.4328   -1.7070    0.0000 C   0  0  0  0  0  0  0  0  0
   -2.2174   -1.9620    0.0000 C   0  0  0  0  0  0  0  0  0
   -2.7023   -1.2945    0.0000 C   0  0  0  0  0  0  0  0  0
   -2.2174   -0.6271    0.0000 N   0  0  0  0  0  0  0  0  0
   -1.4328   -0.8820    0.0000 C   0  0  0  0  0  0  0  0  0
   -0.7183   -0.4695    0.0000 C   0  0  0  0  0  0  0  0  0
   -0.0039   -0.8820    0.0000 C   0  0  0  0  0  0  0  0  0
   -0.0039   -1.7070    0.0000 C   0  0  0  0  0  0  0  0  0
    0.7106   -2.1195    0.0000 Cl  0  0  0  0  0  0  0  0  0
   -3.5273   -1.2945    0.0000 C   0  0  0  0  0  0  0  0  0
   -3.9398   -2.0090    0.0000 O   0  0  0  0  0  0  0  0  0
   -3.9398   -0.5801    0.0000 N   0  0  0  0  0  0  0  0  0
   -4.7648   -0.5801    0.0000 C   0  0  0  0  0  0  0  0  0
   -5.1773    0.1344    0.0000 C   0  0  0  0  0  0  0  0  0
   -4.7648    0.8489    0.0000 N   0  0  0  0  0  0  0  0  0
   -3.9398    0.8489    0.0000 C   0  0  0  0  0  0  0  0  0
   -3.5273    0.1344    0.0000 C   0  0  0  0  0  0  0  0  0
   -5.1773    1.5634    0.0000 C   0  0  0  0  0  0  0  0  0
  1  2  1  0  0  0  0
  2  3  4  0  0  0  0
  2 10  4  0  0  0  0
  3  4  4  0  0  0  0
  3  7  4  0  0  0  0
  4  5  4  0  0  0  0
  5  6  4  0  0  0  0
  5 12  1  0  0  0  0
  6  7  4  0  0  0  0
  7  8  4  0  0  0  0
  8  9  4  0  0  0  0
  9 10  4  0  0  0  0
 10 11  1  0  0  0  0
 12 13  2  0  0  0  0
 12 14  1  0  0  0  0
 14 15  1  0  0  0  0
 14 19  1  0  0  0  0
 15 16  1  0  0  0  0
 16 17  1  0  0  0  0
 17 18  1  0  0  0  0
 17 20  1  0  0  0  0
 18 19  1  0  0  0  0
M  STY  1   1 DAT
M  SAL   1  1   6
M  SDT   1 MRV_IMPLICIT_H                                        
M  SDD   1     0.0000    0.0000    DR    ALL  0       0  
M  SED   1 IMPL_H1
M  END
>  <Name_Molregno>
212724

>  <HISTAMINE H4>
8.3

$$$$
212751
  Marvin  02231216192D 0   1.00000     0.00000     0

 20 22  0  0  0  0  0  0  0  0999 V2000
   -0.7669    0.1447    0.0000 Cl  0  0  0  0  0  0  0  0  0
   -0.7669   -0.6803    0.0000 C   0  0  0  0  0  0  0  0  0
   -0.0524   -1.0928    0.0000 C   0  0  0  0  0  0  0  0  0
   -0.0524   -1.9178    0.0000 C   0  0  0  0  0  0  0  0  0
    0.6621   -2.3303    0.0000 Cl  0  0  0  0  0  0  0  0  0
   -0.7669   -2.3303    0.0000 C   0  0  0  0  0  0  0  0  0
   -1.4813   -1.9178    0.0000 C   0  0  0  0  0  0  0  0  0
   -1.4813   -1.0928    0.0000 C   0  0  0  0  0  0  0  0  0
   -2.2660   -0.8379    0.0000 N   0  0  0  0  0  0  0  0  0
   -2.7509   -1.5053    0.0000 C   0  0  0  0  0  0  0  0  0
   -2.2660   -2.1727    0.0000 C   0  0  0  0  0  0  0  0  0
   -3.5759   -1.5053    0.0000 C   0  0  0  0  0  0  0  0  0
   -3.9884   -2.2198    0.0000 O   0  0  0  0  0  0  0  0  0
   -3.9884   -0.7908    0.0000 N   0  0  0  0  0  0  0  0  0
   -4.8134   -0.7908    0.0000 C   0  0  0  0  0  0  0  0  0
   -5.2259   -0.0764    0.0000 C   0  0  0  0  0  0  0  0  0
   -4.8134    0.6381    0.0000 N   0  0  0  0  0  0  0  0  0
   -3.9884    0.6381    0.0000 C   0  0  0  0  0  0  0  0  0
   -3.5759   -0.0764    0.0000 C   0  0  0  0  0  0  0  0  0
   -5.2259    1.3526    0.0000 C   0  0  0  0  0  0  0  0  0
  1  2  1  0  0  0  0
  2  3  4  0  0  0  0
  2  8  4  0  0  0  0
  3  4  4  0  0  0  0
  4  5  1  0  0  0  0
  4  6  4  0  0  0  0
  6  7  4  0  0  0  0
  7  8  4  0  0  0  0
  7 11  4  0  0  0  0
  8  9  4  0  0  0  0
  9 10  4  0  0  0  0
 10 11  4  0  0  0  0
 10 12  1  0  0  0  0
 12 13  2  0  0  0  0
 12 14  1  0  0  0  0
 14 15  1  0  0  0  0
 14 19  1  0  0  0  0
 15 16  1  0  0  0  0
 16 17  1  0  0  0  0
 17 18  1  0  0  0  0
 17 20  1  0  0  0  0
 18 19  1  0  0  0  0
M  STY  1   1 DAT
M  SAL   1  1   9
M  SDT   1 MRV_IMPLICIT_H                                        
M  SDD   1     0.0000    0.0000    DR    ALL  0       0  
M  SED   1 IMPL_H1
M  END
>  <Name_Molregno>
212751

>  <HISTAMINE H4>
7.96

$$$$
212752
  Marvin  02231216192D 0   1.00000     0.00000     0

 19 21  0  0  0  0  0  0  0  0999 V2000
   -0.7268   -2.9730    0.0000 Br  0  0  0  0  0  0  0  0  0
   -0.7268   -2.1480    0.0000 C   0  0  0  0  0  0  0  0  0
   -1.4413   -1.7355    0.0000 C   0  0  0  0  0  0  0  0  0
   -2.2259   -1.9904    0.0000 N   0  0  0  0  0  0  0  0  0
   -2.7108   -1.3230    0.0000 C   0  0  0  0  0  0  0  0  0
   -2.2259   -0.6555    0.0000 C   0  0  0  0  0  0  0  0  0
   -1.4413   -0.9105    0.0000 C   0  0  0  0  0  0  0  0  0
   -0.7268   -0.4980    0.0000 C   0  0  0  0  0  0  0  0  0
   -0.0123   -0.9105    0.0000 C   0  0  0  0  0  0  0  0  0
   -0.0123   -1.7355    0.0000 C   0  0  0  0  0  0  0  0  0
   -3.5358   -1.3230    0.0000 C   0  0  0  0  0  0  0  0  0
   -3.9483   -2.0374    0.0000 O   0  0  0  0  0  0  0  0  0
   -3.9483   -0.6085    0.0000 N   0  0  0  0  0  0  0  0  0
   -4.7733   -0.6085    0.0000 C   0  0  0  0  0  0  0  0  0
   -5.1858    0.1060    0.0000 C   0  0  0  0  0  0  0  0  0
   -4.7733    0.8204    0.0000 N   0  0  0  0  0  0  0  0  0
   -3.9483    0.8204    0.0000 C   0  0  0  0  0  0  0  0  0
   -3.5358    0.1060    0.0000 C   0  0  0  0  0  0  0  0  0
   -5.1858    1.5349    0.0000 C   0  0  0  0  0  0  0  0  0
  1  2  1  0  0  0  0
  2  3  4  0  0  0  0
  2 10  4  0  0  0  0
  3  4  4  0  0  0  0
  3  7  4  0  0  0  0
  4  5  4  0  0  0  0
  5  6  4  0  0  0  0
  5 11  1  0  0  0  0
  6  7  4  0  0  0  0
  7  8  4  0  0  0  0
  8  9  4  0  0  0  0
  9 10  4  0  0  0  0
 11 12  2  0  0  0  0
 11 13  1  0  0  0  0
 13 14  1  0  0  0  0
 13 18  1  0  0  0  0
 14 15  1  0  0  0  0
 15 16  1  0  0  0  0
 16 17  1  0  0  0  0
 16 19  1  0  0  0  0
 17 18  1  0  0  0  0
M  STY  1   1 DAT
M  SAL   1  1   4
M  SDT   1 MRV_IMPLICIT_H                                        
M  SDD   1     0.0000    0.0000    DR    ALL  0       0  
M  SED   1 IMPL_H1
M  END
>  <Name_Molregno>
212752

>  <HISTAMINE H4>
7.21

$$$$
212753
  Marvin  02231216192D 0   1.00000     0.00000     0

 19 21  0  0  0  0  0  0  0  0999 V2000
    6.7813   -1.7154    0.0000 Br  0  0  0  0  0  0  0  0  0
    6.0668   -1.3029    0.0000 C   0  0  0  0  0  0  0  0  0
    5.3523   -1.7154    0.0000 C   0  0  0  0  0  0  0  0  0
    4.6379   -1.3029    0.0000 C   0  0  0  0  0  0  0  0  0
    3.8532   -1.5579    0.0000 N   0  0  0  0  0  0  0  0  0
    3.3683   -0.8904    0.0000 C   0  0  0  0  0  0  0  0  0
    3.8532   -0.2230    0.0000 C   0  0  0  0  0  0  0  0  0
    4.6379   -0.4779    0.0000 C   0  0  0  0  0  0  0  0  0
    5.3523   -0.0654    0.0000 C   0  0  0  0  0  0  0  0  0
    6.0668   -0.4779    0.0000 C   0  0  0  0  0  0  0  0  0
    2.5433   -0.8904    0.0000 C   0  0  0  0  0  0  0  0  0
    2.1308   -1.6049    0.0000 O   0  0  0  0  0  0  0  0  0
    2.1308   -0.1760    0.0000 N   0  0  0  0  0  0  0  0  0
    1.3058   -0.1760    0.0000 C   0  0  0  0  0  0  0  0  0
    0.8933    0.5385    0.0000 C   0  0  0  0  0  0  0  0  0
    1.3058    1.2530    0.0000 N   0  0  0  0  0  0  0  0  0
    2.1308    1.2530    0.0000 C   0  0  0  0  0  0  0  0  0
    2.5433    0.5385    0.0000 C   0  0  0  0  0  0  0  0  0
    0.8933    1.9674    0.0000 C   0  0  0  0  0  0  0  0  0
  1  2  1  0  0  0  0
  2  3  4  0  0  0  0
  2 10  4  0  0  0  0
  3  4  4  0  0  0  0
  4  5  4  0  0  0  0
  4  8  4  0  0  0  0
  5  6  4  0  0  0  0
  6  7  4  0  0  0  0
  6 11  1  0  0  0  0
  7  8  4  0  0  0  0
  8  9  4  0  0  0  0
  9 10  4  0  0  0  0
 11 12  2  0  0  0  0
 11 13  1  0  0  0  0
 13 14  1  0  0  0  0
 13 18  1  0  0  0  0
 14 15  1  0  0  0  0
 15 16  1  0  0  0  0
 16 17  1  0  0  0  0
 16 19  1  0  0  0  0
 17 18  1  0  0  0  0
M  STY  1   1 DAT
M  SAL   1  1   5
M  SDT   1 MRV_IMPLICIT_H                                        
M  SDD   1     0.0000    0.0000    DR    ALL  0       0  
M  SED   1 IMPL_H1
M  END
>  <Name_Molregno>
212753

>  <HISTAMINE H4>
6.83

$$$$
212773
  Marvin  02231216192D 0   1.00000     0.00000     0

 19 21  0  0  0  0  0  0  0  0999 V2000
   -1.8539   -0.4585    0.0000 O   0  0  0  0  0  0  0  0  0
   -1.4414   -1.1730    0.0000 C   0  0  0  0  0  0  0  0  0
   -1.8539   -1.8874    0.0000 N   0  0  0  0  0  0  0  0  0
   -1.4414   -2.6019    0.0000 C   0  0  0  0  0  0  0  0  0
   -1.8539   -3.3164    0.0000 C   0  0  0  0  0  0  0  0  0
   -2.6789   -3.3164    0.0000 N   0  0  0  0  0  0  0  0  0
   -3.0914   -2.6019    0.0000 C   0  0  0  0  0  0  0  0  0
   -2.6789   -1.8874    0.0000 C   0  0  0  0  0  0  0  0  0
   -3.0914   -4.0308    0.0000 C   0  0  0  0  0  0  0  0  0
   -0.6164   -1.1730    0.0000 C   0  0  0  0  0  0  0  0  0
   -0.1315   -1.8404    0.0000 N   0  0  0  0  0  0  0  0  0
    0.6531   -1.5855    0.0000 C   0  0  0  0  0  0  0  0  0
    0.6531   -0.7605    0.0000 C   0  0  0  0  0  0  0  0  0
   -0.1315   -0.5055    0.0000 C   0  0  0  0  0  0  0  0  0
    1.3676   -0.3480    0.0000 C   0  0  0  0  0  0  0  0  0
    2.0821   -0.7605    0.0000 C   0  0  0  0  0  0  0  0  0
    2.7965   -0.3480    0.0000 N   0  0  0  0  0  0  0  0  0
    2.0821   -1.5855    0.0000 C   0  0  0  0  0  0  0  0  0
    1.3676   -1.9980    0.0000 C   0  0  0  0  0  0  0  0  0
  1  2  2  0  0  0  0
  2  3  1  0  0  0  0
  2 10  1  0  0  0  0
  3  4  1  0  0  0  0
  3  8  1  0  0  0  0
  4  5  1  0  0  0  0
  5  6  1  0  0  0  0
  6  7  1  0  0  0  0
  6  9  1  0  0  0  0
  7  8  1  0  0  0  0
 10 11  4  0  0  0  0
 10 14  4  0  0  0  0
 11 12  4  0  0  0  0
 12 13  4  0  0  0  0
 12 19  4  0  0  0  0
 13 14  4  0  0  0  0
 13 15  4  0  0  0  0
 15 16  4  0  0  0  0
 16 17  1  0  0  0  0
 16 18  4  0  0  0  0
 18 19  4  0  0  0  0
M  STY  1   1 DAT
M  SAL   1  1  11
M  SDT   1 MRV_IMPLICIT_H                                        
M  SDD   1     0.0000    0.0000    DR    ALL  0       0  
M  SED   1 IMPL_H1
M  END
>  <Name_Molregno>
212773

>  <HISTAMINE H4>
7.82

$$$$
212774
  Marvin  02231216192D 0   1.00000     0.00000     0

 19 21  0  0  0  0  0  0  0  0999 V2000
    6.7813   -1.7154    0.0000 O   0  0  0  0  0  0  0  0  0
    6.0668   -1.3029    0.0000 C   0  0  0  0  0  0  0  0  0
    5.3523   -1.7154    0.0000 C   0  0  0  0  0  0  0  0  0
    4.6379   -1.3029    0.0000 C   0  0  0  0  0  0  0  0  0
    3.8532   -1.5579    0.0000 C   0  0  0  0  0  0  0  0  0
    3.3683   -0.8904    0.0000 C   0  0  0  0  0  0  0  0  0
    3.8532   -0.2230    0.0000 N   0  0  0  0  0  0  0  0  0
    4.6379   -0.4779    0.0000 C   0  0  0  0  0  0  0  0  0
    5.3523   -0.0654    0.0000 C   0  0  0  0  0  0  0  0  0
    6.0668   -0.4779    0.0000 C   0  0  0  0  0  0  0  0  0
    2.5433   -0.8904    0.0000 C   0  0  0  0  0  0  0  0  0
    2.1308   -1.6049    0.0000 O   0  0  0  0  0  0  0  0  0
    2.1308   -0.1760    0.0000 N   0  0  0  0  0  0  0  0  0
    1.3058   -0.1760    0.0000 C   0  0  0  0  0  0  0  0  0
    0.8933    0.5385    0.0000 C   0  0  0  0  0  0  0  0  0
    1.3058    1.2530    0.0000 N   0  0  0  0  0  0  0  0  0
    2.1308    1.2530    0.0000 C   0  0  0  0  0  0  0  0  0
    2.5433    0.5385    0.0000 C   0  0  0  0  0  0  0  0  0
    0.8933    1.9674    0.0000 C   0  0  0  0  0  0  0  0  0
  1  2  1  0  0  0  0
  2  3  4  0  0  0  0
  2 10  4  0  0  0  0
  3  4  4  0  0  0  0
  4  5  4  0  0  0  0
  4  8  4  0  0  0  0
  5  6  4  0  0  0  0
  6  7  4  0  0  0  0
  6 11  1  0  0  0  0
  7  8  4  0  0  0  0
  8  9  4  0  0  0  0
  9 10  4  0  0  0  0
 11 12  2  0  0  0  0
 11 13  1  0  0  0  0
 13 14  1  0  0  0  0
 13 18  1  0  0  0  0
 14 15  1  0  0  0  0
 15 16  1  0  0  0  0
 16 17  1  0  0  0  0
 16 19  1  0  0  0  0
 17 18  1  0  0  0  0
M  STY  1   1 DAT
M  SAL   1  1   7
M  SDT   1 MRV_IMPLICIT_H                                        
M  SDD   1     0.0000    0.0000    DR    ALL  0       0  
M  SED   1 IMPL_H1
M  END
>  <Name_Molregno>
212774

>  <HISTAMINE H4>
7.64

$$$$
212800
  Marvin  02231216192D 0   1.00000     0.00000     0

 20 22  0  0  0  0  0  0  0  0999 V2000
    6.3738   -0.8800    0.0000 O   0  0  0  0  0  0  0  0  0
    7.0883   -0.4675    0.0000 C   0  0  0  0  0  0  0  0  0
    5.6594   -0.4675    0.0000 C   0  0  0  0  0  0  0  0  0
    4.9449   -0.8800    0.0000 C   0  0  0  0  0  0  0  0  0
    4.2304   -0.4675    0.0000 C   0  0  0  0  0  0  0  0  0
    3.4458   -0.7225    0.0000 C   0  0  0  0  0  0  0  0  0
    2.9609   -0.0550    0.0000 C   0  0  0  0  0  0  0  0  0
    3.4458    0.6124    0.0000 N   0  0  0  0  0  0  0  0  0
    4.2304    0.3575    0.0000 C   0  0  0  0  0  0  0  0  0
    4.9449    0.7700    0.0000 C   0  0  0  0  0  0  0  0  0
    5.6594    0.3575    0.0000 C   0  0  0  0  0  0  0  0  0
    2.1359   -0.0550    0.0000 C   0  0  0  0  0  0  0  0  0
    1.7234   -0.7695    0.0000 O   0  0  0  0  0  0  0  0  0
    1.7234    0.6594    0.0000 N   0  0  0  0  0  0  0  0  0
    0.8984    0.6594    0.0000 C   0  0  0  0  0  0  0  0  0
    0.4859    1.3739    0.0000 C   0  0  0  0  0  0  0  0  0
    0.8984    2.0884    0.0000 N   0  0  0  0  0  0  0  0  0
    1.7234    2.0884    0.0000 C   0  0  0  0  0  0  0  0  0
    2.1359    1.3739    0.0000 C   0  0  0  0  0  0  0  0  0
    0.4859    2.8028    0.0000 C   0  0  0  0  0  0  0  0  0
  1  2  1  0  0  0  0
  1  3  1  0  0  0  0
  3  4  4  0  0  0  0
  3 11  4  0  0  0  0
  4  5  4  0  0  0  0
  5  6  4  0  0  0  0
  5  9  4  0  0  0  0
  6  7  4  0  0  0  0
  7  8  4  0  0  0  0
  7 12  1  0  0  0  0
  8  9  4  0  0  0  0
  9 10  4  0  0  0  0
 10 11  4  0  0  0  0
 12 13  2  0  0  0  0
 12 14  1  0  0  0  0
 14 15  1  0  0  0  0
 14 19  1  0  0  0  0
 15 16  1  0  0  0  0
 16 17  1  0  0  0  0
 17 18  1  0  0  0  0
 17 20  1  0  0  0  0
 18 19  1  0  0  0  0
M  STY  1   1 DAT
M  SAL   1  1   8
M  SDT   1 MRV_IMPLICIT_H                                        
M  SDD   1     0.0000    0.0000    DR    ALL  0       0  
M  SED   1 IMPL_H1
M  END
>  <Name_Molregno>
212800

>  <HISTAMINE H4>
5.52

$$$$
212801
  Marvin  02231216192D 0   1.00000     0.00000     0

 19 21  0  0  0  0  0  0  0  0999 V2000
   -1.8539   -0.4585    0.0000 O   0  0  0  0  0  0  0  0  0
   -1.4414   -1.1730    0.0000 C   0  0  0  0  0  0  0  0  0
   -1.8539   -1.8874    0.0000 N   0  0  0  0  0  0  0  0  0
   -1.4414   -2.6019    0.0000 C   0  0  0  0  0  0  0  0  0
   -1.8539   -3.3164    0.0000 C   0  0  0  0  0  0  0  0  0
   -2.6789   -3.3164    0.0000 N   0  0  0  0  0  0  0  0  0
   -3.0914   -2.6019    0.0000 C   0  0  0  0  0  0  0  0  0
   -2.6789   -1.8874    0.0000 C   0  0  0  0  0  0  0  0  0
   -3.0914   -4.0308    0.0000 C   0  0  0  0  0  0  0  0  0
   -0.6164   -1.1730    0.0000 C   0  0  0  0  0  0  0  0  0
   -0.1315   -1.8404    0.0000 N   0  0  0  0  0  0  0  0  0
    0.6531   -1.5855    0.0000 C   0  0  0  0  0  0  0  0  0
    0.6531   -0.7605    0.0000 C   0  0  0  0  0  0  0  0  0
    1.3676   -0.3480    0.0000 C   0  0  0  0  0  0  0  0  0
    2.0821   -0.7605    0.0000 C   0  0  0  0  0  0  0  0  0
    2.0821   -1.5855    0.0000 C   0  0  0  0  0  0  0  0  0
    1.3676   -1.9980    0.0000 C   0  0  0  0  0  0  0  0  0
    2.7965   -0.3480    0.0000 C   0  0  0  0  0  0  0  0  0
   -0.1315   -0.5055    0.0000 C   0  0  0  0  0  0  0  0  0
  1  2  2  0  0  0  0
  2  3  1  0  0  0  0
  2 10  1  0  0  0  0
  3  4  1  0  0  0  0
  3  8  1  0  0  0  0
  4  5  1  0  0  0  0
  5  6  1  0  0  0  0
  6  7  1  0  0  0  0
  6  9  1  0  0  0  0
  7  8  1  0  0  0  0
 10 11  4  0  0  0  0
 10 19  4  0  0  0  0
 11 12  4  0  0  0  0
 12 13  4  0  0  0  0
 12 17  4  0  0  0  0
 13 14  4  0  0  0  0
 13 19  4  0  0  0  0
 14 15  4  0  0  0  0
 15 16  4  0  0  0  0
 15 18  1  0  0  0  0
 16 17  4  0  0  0  0
M  STY  1   1 DAT
M  SAL   1  1  11
M  SDT   1 MRV_IMPLICIT_H                                        
M  SDD   1     0.0000    0.0000    DR    ALL  0       0  
M  SED   1 IMPL_H1
M  END
>  <Name_Molregno>
212801

>  <HISTAMINE H4>
7.34

$$$$
212869
  Marvin  02231216192D 0   1.00000     0.00000     0

 19 21  0  0  0  0  0  0  0  0999 V2000
   -0.7268   -2.9730    0.0000 Br  0  0  0  0  0  0  0  0  0
   -0.7268   -2.1480    0.0000 C   0  0  0  0  0  0  0  0  0
   -1.4413   -1.7355    0.0000 C   0  0  0  0  0  0  0  0  0
   -2.2259   -1.9904    0.0000 C   0  0  0  0  0  0  0  0  0
   -2.7108   -1.3230    0.0000 C   0  0  0  0  0  0  0  0  0
   -2.2259   -0.6555    0.0000 N   0  0  0  0  0  0  0  0  0
   -1.4413   -0.9105    0.0000 C   0  0  0  0  0  0  0  0  0
   -0.7268   -0.4980    0.0000 C   0  0  0  0  0  0  0  0  0
   -0.0123   -0.9105    0.0000 C   0  0  0  0  0  0  0  0  0
   -0.0123   -1.7355    0.0000 C   0  0  0  0  0  0  0  0  0
   -3.5358   -1.3230    0.0000 C   0  0  0  0  0  0  0  0  0
   -3.9483   -2.0374    0.0000 O   0  0  0  0  0  0  0  0  0
   -3.9483   -0.6085    0.0000 N   0  0  0  0  0  0  0  0  0
   -4.7733   -0.6085    0.0000 C   0  0  0  0  0  0  0  0  0
   -5.1858    0.1060    0.0000 C   0  0  0  0  0  0  0  0  0
   -4.7733    0.8204    0.0000 N   0  0  0  0  0  0  0  0  0
   -3.9483    0.8204    0.0000 C   0  0  0  0  0  0  0  0  0
   -3.5358    0.1060    0.0000 C   0  0  0  0  0  0  0  0  0
   -5.1858    1.5349    0.0000 C   0  0  0  0  0  0  0  0  0
  1  2  1  0  0  0  0
  2  3  4  0  0  0  0
  2 10  4  0  0  0  0
  3  4  4  0  0  0  0
  3  7  4  0  0  0  0
  4  5  4  0  0  0  0
  5  6  4  0  0  0  0
  5 11  1  0  0  0  0
  6  7  4  0  0  0  0
  7  8  4  0  0  0  0
  8  9  4  0  0  0  0
  9 10  4  0  0  0  0
 11 12  2  0  0  0  0
 11 13  1  0  0  0  0
 13 14  1  0  0  0  0
 13 18  1  0  0  0  0
 14 15  1  0  0  0  0
 15 16  1  0  0  0  0
 16 17  1  0  0  0  0
 16 19  1  0  0  0  0
 17 18  1  0  0  0  0
M  STY  1   1 DAT
M  SAL   1  1   6
M  SDT   1 MRV_IMPLICIT_H                                        
M  SDD   1     0.0000    0.0000    DR    ALL  0       0  
M  SED   1 IMPL_H1
M  END
>  <Name_Molregno>
212869

>  <HISTAMINE H4>
7.49

$$$$
212903
  Marvin  02231216192D 0   1.00000     0.00000     0

 19 21  0  0  0  0  0  0  0  0999 V2000
    6.7813   -1.7154    0.0000 Br  0  0  0  0  0  0  0  0  0
    6.0668   -1.3029    0.0000 C   0  0  0  0  0  0  0  0  0
    5.3523   -1.7154    0.0000 C   0  0  0  0  0  0  0  0  0
    4.6379   -1.3029    0.0000 C   0  0  0  0  0  0  0  0  0
    3.8532   -1.5579    0.0000 C   0  0  0  0  0  0  0  0  0
    3.3683   -0.8904    0.0000 C   0  0  0  0  0  0  0  0  0
    3.8532   -0.2230    0.0000 N   0  0  0  0  0  0  0  0  0
    4.6379   -0.4779    0.0000 C   0  0  0  0  0  0  0  0  0
    5.3523   -0.0654    0.0000 C   0  0  0  0  0  0  0  0  0
    6.0668   -0.4779    0.0000 C   0  0  0  0  0  0  0  0  0
    2.5433   -0.8904    0.0000 C   0  0  0  0  0  0  0  0  0
    2.1308   -1.6049    0.0000 O   0  0  0  0  0  0  0  0  0
    2.1308   -0.1760    0.0000 N   0  0  0  0  0  0  0  0  0
    1.3058   -0.1760    0.0000 C   0  0  0  0  0  0  0  0  0
    0.8933    0.5385    0.0000 C   0  0  0  0  0  0  0  0  0
    1.3058    1.2530    0.0000 N   0  0  0  0  0  0  0  0  0
    2.1308    1.2530    0.0000 C   0  0  0  0  0  0  0  0  0
    2.5433    0.5385    0.0000 C   0  0  0  0  0  0  0  0  0
    0.8933    1.9674    0.0000 C   0  0  0  0  0  0  0  0  0
  1  2  1  0  0  0  0
  2  3  4  0  0  0  0
  2 10  4  0  0  0  0
  3  4  4  0  0  0  0
  4  5  4  0  0  0  0
  4  8  4  0  0  0  0
  5  6  4  0  0  0  0
  6  7  4  0  0  0  0
  6 11  1  0  0  0  0
  7  8  4  0  0  0  0
  8  9  4  0  0  0  0
  9 10  4  0  0  0  0
 11 12  2  0  0  0  0
 11 13  1  0  0  0  0
 13 14  1  0  0  0  0
 13 18  1  0  0  0  0
 14 15  1  0  0  0  0
 15 16  1  0  0  0  0
 16 17  1  0  0  0  0
 16 19  1  0  0  0  0
 17 18  1  0  0  0  0
M  STY  1   1 DAT
M  SAL   1  1   7
M  SDT   1 MRV_IMPLICIT_H                                        
M  SDD   1     0.0000    0.0000    DR    ALL  0       0  
M  SED   1 IMPL_H1
M  END
>  <Name_Molregno>
212903

>  <HISTAMINE H3>
5.5

>  <HISTAMINE H4>
7.8

$$$$
212980
  Marvin  02231216192D 0   1.00000     0.00000     0

 20 22  0  0  0  0  0  0  0  0999 V2000
   -2.0404   -0.4263    0.0000 O   0  0  0  0  0  0  0  0  0
   -1.6279   -1.1407    0.0000 C   0  0  0  0  0  0  0  0  0
   -2.0404   -1.8552    0.0000 N   0  0  0  0  0  0  0  0  0
   -1.6279   -2.5697    0.0000 C   0  0  0  0  0  0  0  0  0
   -2.0404   -3.2842    0.0000 C   0  0  0  0  0  0  0  0  0
   -2.8654   -3.2842    0.0000 N   0  0  0  0  0  0  0  0  0
   -3.2779   -2.5697    0.0000 C   0  0  0  0  0  0  0  0  0
   -2.8654   -1.8552    0.0000 C   0  0  0  0  0  0  0  0  0
   -3.2779   -3.9986    0.0000 C   0  0  0  0  0  0  0  0  0
   -0.8029   -1.1407    0.0000 C   0  0  0  0  0  0  0  0  0
   -0.3180   -1.8082    0.0000 N   0  0  0  0  0  0  0  0  0
    0.4666   -1.5532    0.0000 C   0  0  0  0  0  0  0  0  0
    0.4666   -0.7282    0.0000 C   0  0  0  0  0  0  0  0  0
    1.1811   -0.3157    0.0000 C   0  0  0  0  0  0  0  0  0
    1.8956   -0.7282    0.0000 C   0  0  0  0  0  0  0  0  0
    1.8956   -1.5532    0.0000 C   0  0  0  0  0  0  0  0  0
    1.1811   -1.9657    0.0000 C   0  0  0  0  0  0  0  0  0
    1.1811   -2.7907    0.0000 C   0  0  0  0  0  0  0  0  0
    2.6100   -0.3157    0.0000 C   0  0  0  0  0  0  0  0  0
   -0.3180   -0.4733    0.0000 C   0  0  0  0  0  0  0  0  0
  1  2  2  0  0  0  0
  2  3  1  0  0  0  0
  2 10  1  0  0  0  0
  3  4  1  0  0  0  0
  3  8  1  0  0  0  0
  4  5  1  0  0  0  0
  5  6  1  0  0  0  0
  6  7  1  0  0  0  0
  6  9  1  0  0  0  0
  7  8  1  0  0  0  0
 10 11  4  0  0  0  0
 10 20  4  0  0  0  0
 11 12  4  0  0  0  0
 12 13  4  0  0  0  0
 12 17  4  0  0  0  0
 13 14  4  0  0  0  0
 13 20  4  0  0  0  0
 14 15  4  0  0  0  0
 15 16  4  0  0  0  0
 15 19  1  0  0  0  0
 16 17  4  0  0  0  0
 17 18  1  0  0  0  0
M  STY  1   1 DAT
M  SAL   1  1  11
M  SDT   1 MRV_IMPLICIT_H                                        
M  SDD   1     0.0000    0.0000    DR    ALL  0       0  
M  SED   1 IMPL_H1
M  END
>  <Name_Molregno>
212980

>  <HISTAMINE H4>
7.51

$$$$
310289
  Marvin  02231216192D 0   1.00000     0.00000     0

 20 22  0  0  0  0  0  0  0  0999 V2000
    7.7369   -0.7985    0.0000 Cl  0  0  0  0  0  0  0  0  0
    7.0224   -0.3860    0.0000 C   0  0  0  0  0  0  0  0  0
    6.3079   -0.7985    0.0000 C   0  0  0  0  0  0  0  0  0
    5.5935   -0.3860    0.0000 C   0  0  0  0  0  0  0  0  0
    4.8089   -0.6410    0.0000 C   0  0  0  0  0  0  0  0  0
    4.3239    0.0265    0.0000 C   0  0  0  0  0  0  0  0  0
    4.8089    0.6939    0.0000 N   0  0  0  0  0  0  0  0  0
    5.5935    0.4390    0.0000 C   0  0  0  0  0  0  0  0  0
    6.3079    0.8515    0.0000 C   0  0  0  0  0  0  0  0  0
    7.0224    0.4390    0.0000 C   0  0  0  0  0  0  0  0  0
    3.4989    0.0265    0.0000 C   0  0  0  0  0  0  0  0  0
    3.0864    0.7409    0.0000 O   0  0  0  0  0  0  0  0  0
    3.0864   -0.6880    0.0000 N   0  0  0  0  0  0  0  0  0
    2.2614   -0.6880    0.0000 N   0  0  0  0  0  0  0  0  0
    1.8489   -1.4025    0.0000 C   0  0  0  0  0  0  0  0  0
    1.0239   -1.4025    0.0000 C   0  0  0  0  0  0  0  0  0
    0.6114   -0.6880    0.0000 N   0  0  0  0  0  0  0  0  0
    1.0239    0.0265    0.0000 C   0  0  0  0  0  0  0  0  0
    1.8489    0.0265    0.0000 C   0  0  0  0  0  0  0  0  0
   -0.2136   -0.6880    0.0000 C   0  0  0  0  0  0  0  0  0
  1  2  1  0  0  0  0
  2  3  4  0  0  0  0
  2 10  4  0  0  0  0
  3  4  4  0  0  0  0
  4  5  4  0  0  0  0
  4  8  4  0  0  0  0
  5  6  4  0  0  0  0
  6  7  4  0  0  0  0
  6 11  1  0  0  0  0
  7  8  4  0  0  0  0
  8  9  4  0  0  0  0
  9 10  4  0  0  0  0
 11 12  2  0  0  0  0
 11 13  1  0  0  0  0
 13 14  1  0  0  0  0
 14 15  1  0  0  0  0
 14 19  1  0  0  0  0
 15 16  1  0  0  0  0
 16 17  1  0  0  0  0
 17 18  1  0  0  0  0
 17 20  1  0  0  0  0
 18 19  1  0  0  0  0
M  STY  1   1 DAT
M  SAL   1  1   7
M  SDT   1 MRV_IMPLICIT_H                                        
M  SDD   1     0.0000    0.0000    DR    ALL  0       0  
M  SED   1 IMPL_H1
M  END
>  <Name_Molregno>
310289

>  <HISTAMINE H4>
4.6

$$$$
310294
  Marvin  02231216192D 0   1.00000     0.00000     0

 18 20  0  0  0  0  0  0  0  0999 V2000
    6.4556   -1.6343    0.0000 Cl  0  0  0  0  0  0  0  0  0
    5.7411   -1.2218    0.0000 C   0  0  0  0  0  0  0  0  0
    5.0266   -1.6343    0.0000 C   0  0  0  0  0  0  0  0  0
    4.3122   -1.2218    0.0000 C   0  0  0  0  0  0  0  0  0
    3.5275   -1.4768    0.0000 C   0  0  0  0  0  0  0  0  0
    3.0426   -0.8093    0.0000 C   0  0  0  0  0  0  0  0  0
    3.5275   -0.1419    0.0000 N   0  0  0  0  0  0  0  0  0
    4.3122   -0.3968    0.0000 C   0  0  0  0  0  0  0  0  0
    5.0266    0.0157    0.0000 C   0  0  0  0  0  0  0  0  0
    5.7411   -0.3968    0.0000 C   0  0  0  0  0  0  0  0  0
    2.2176   -0.8093    0.0000 C   0  0  0  0  0  0  0  0  0
    1.8051   -1.5238    0.0000 O   0  0  0  0  0  0  0  0  0
    1.8051   -0.0949    0.0000 N   0  0  0  0  0  0  0  0  0
    0.9801   -0.0949    0.0000 C   0  0  0  0  0  0  0  0  0
    0.5676    0.6196    0.0000 C   0  0  0  0  0  0  0  0  0
    0.9801    1.3341    0.0000 C   0  0  0  0  0  0  0  0  0
    1.8051    1.3341    0.0000 C   0  0  0  0  0  0  0  0  0
    2.2176    0.6196    0.0000 C   0  0  0  0  0  0  0  0  0
  1  2  1  0  0  0  0
  2  3  4  0  0  0  0
  2 10  4  0  0  0  0
  3  4  4  0  0  0  0
  4  5  4  0  0  0  0
  4  8  4  0  0  0  0
  5  6  4  0  0  0  0
  6  7  4  0  0  0  0
  6 11  1  0  0  0  0
  7  8  4  0  0  0  0
  8  9  4  0  0  0  0
  9 10  4  0  0  0  0
 11 12  2  0  0  0  0
 11 13  1  0  0  0  0
 13 14  1  0  0  0  0
 13 18  1  0  0  0  0
 14 15  1  0  0  0  0
 15 16  1  0  0  0  0
 16 17  1  0  0  0  0
 17 18  1  0  0  0  0
M  STY  1   1 DAT
M  SAL   1  1   7
M  SDT   1 MRV_IMPLICIT_H                                        
M  SDD   1     0.0000    0.0000    DR    ALL  0       0  
M  SED   1 IMPL_H1
M  END
>  <Name_Molregno>
310294

>  <HISTAMINE H3>
5.2

>  <HISTAMINE H4>
5.1

$$$$
310334
  Marvin  02231216192D 0   1.00000     0.00000     0

 19 20  0  0  0  0  0  0  0  0999 V2000
    0.7548    1.9200    0.0000 Cl  0  0  0  0  0  0  0  0  0
    1.1673    1.2055    0.0000 C   0  0  0  0  0  0  0  0  0
    1.9923    1.2055    0.0000 C   0  0  0  0  0  0  0  0  0
    2.4048    0.4910    0.0000 C   0  0  0  0  0  0  0  0  0
    3.2117    0.3195    0.0000 C   0  0  0  0  0  0  0  0  0
    3.2980   -0.5010    0.0000 C   0  0  0  0  0  0  0  0  0
    2.5443   -0.8366    0.0000 N   0  0  0  0  0  0  0  0  0
    1.9923   -0.2235    0.0000 C   0  0  0  0  0  0  0  0  0
    1.1673   -0.2235    0.0000 C   0  0  0  0  0  0  0  0  0
    0.7548    0.4910    0.0000 C   0  0  0  0  0  0  0  0  0
    4.0125   -0.9135    0.0000 C   0  0  0  0  0  0  0  0  0
    4.0125   -1.7385    0.0000 O   0  0  0  0  0  0  0  0  0
    4.7269   -0.5010    0.0000 N   0  0  0  0  0  0  0  0  0
    5.4414   -0.9135    0.0000 C   0  0  0  0  0  0  0  0  0
    6.1559   -0.5010    0.0000 C   0  0  0  0  0  0  0  0  0
    6.8703   -0.9135    0.0000 N   0  0  0  0  0  0  0  0  0
    7.5848   -0.5010    0.0000 C   0  0  0  0  0  0  0  0  0
    6.8703   -1.7385    0.0000 C   0  0  0  0  0  0  0  0  0
    4.7269    0.3240    0.0000 C   0  0  0  0  0  0  0  0  0
  1  2  1  0  0  0  0
  2  3  4  0  0  0  0
  2 10  4  0  0  0  0
  3  4  4  0  0  0  0
  4  5  4  0  0  0  0
  4  8  4  0  0  0  0
  5  6  4  0  0  0  0
  6  7  4  0  0  0  0
  6 11  1  0  0  0  0
  7  8  4  0  0  0  0
  8  9  4  0  0  0  0
  9 10  4  0  0  0  0
 11 12  2  0  0  0  0
 11 13  1  0  0  0  0
 13 14  1  0  0  0  0
 13 19  1  0  0  0  0
 14 15  1  0  0  0  0
 15 16  1  0  0  0  0
 16 17  1  0  0  0  0
 16 18  1  0  0  0  0
M  STY  1   1 DAT
M  SAL   1  1   7
M  SDT   1 MRV_IMPLICIT_H                                        
M  SDD   1     0.0000    0.0000    DR    ALL  0       0  
M  SED   1 IMPL_H1
M  END
>  <Name_Molregno>
310334

>  <HISTAMINE H4>
4.6

$$$$
310335
  Marvin  02231216192D 0   1.00000     0.00000     0

 19 20  0  0  0  0  0  0  0  0999 V2000
   -0.0400   -0.6683    0.0000 Cl  0  0  0  0  0  0  0  0  0
    0.7850   -0.6683    0.0000 C   0  0  0  0  0  0  0  0  0
    1.1975    0.0462    0.0000 C   0  0  0  0  0  0  0  0  0
    2.0225    0.0462    0.0000 C   0  0  0  0  0  0  0  0  0
    2.5745    0.6593    0.0000 C   0  0  0  0  0  0  0  0  0
    3.3282    0.3237    0.0000 C   0  0  0  0  0  0  0  0  0
    3.2420   -0.4968    0.0000 N   0  0  0  0  0  0  0  0  0
    2.4350   -0.6683    0.0000 C   0  0  0  0  0  0  0  0  0
    2.0225   -1.3828    0.0000 C   0  0  0  0  0  0  0  0  0
    1.1975   -1.3828    0.0000 C   0  0  0  0  0  0  0  0  0
    4.0427    0.7362    0.0000 C   0  0  0  0  0  0  0  0  0
    4.0427    1.5612    0.0000 O   0  0  0  0  0  0  0  0  0
    4.7571    0.3237    0.0000 N   0  0  0  0  0  0  0  0  0
    5.4716    0.7362    0.0000 C   0  0  0  0  0  0  0  0  0
    6.1861    0.3237    0.0000 C   0  0  0  0  0  0  0  0  0
    6.9006    0.7362    0.0000 C   0  0  0  0  0  0  0  0  0
    7.6150    0.3237    0.0000 N   0  0  0  0  0  0  0  0  0
    8.3295    0.7362    0.0000 C   0  0  0  0  0  0  0  0  0
    7.6150   -0.5013    0.0000 C   0  0  0  0  0  0  0  0  0
  1  2  1  0  0  0  0
  2  3  4  0  0  0  0
  2 10  4  0  0  0  0
  3  4  4  0  0  0  0
  4  5  4  0  0  0  0
  4  8  4  0  0  0  0
  5  6  4  0  0  0  0
  6  7  4  0  0  0  0
  6 11  1  0  0  0  0
  7  8  4  0  0  0  0
  8  9  4  0  0  0  0
  9 10  4  0  0  0  0
 11 12  2  0  0  0  0
 11 13  1  0  0  0  0
 13 14  1  0  0  0  0
 14 15  1  0  0  0  0
 15 16  1  0  0  0  0
 16 17  1  0  0  0  0
 17 18  1  0  0  0  0
 17 19  1  0  0  0  0
M  STY  1   1 DAT
M  SAL   1  1   7
M  SDT   1 MRV_IMPLICIT_H                                        
M  SDD   1     0.0000    0.0000    DR    ALL  0       0  
M  SED   1 IMPL_H1
M  END
>  <Name_Molregno>
310335

>  <HISTAMINE H4>
4

$$$$
310363
  Marvin  02231216192D 0   1.00000     0.00000     0

 19 21  0  0  0  0  0  0  0  0999 V2000
    6.7813   -1.7154    0.0000 I   0  0  0  0  0  0  0  0  0
    6.0668   -1.3029    0.0000 C   0  0  0  0  0  0  0  0  0
    5.3523   -1.7154    0.0000 C   0  0  0  0  0  0  0  0  0
    4.6379   -1.3029    0.0000 C   0  0  0  0  0  0  0  0  0
    3.8532   -1.5579    0.0000 C   0  0  0  0  0  0  0  0  0
    3.3683   -0.8904    0.0000 C   0  0  0  0  0  0  0  0  0
    3.8532   -0.2230    0.0000 N   0  0  0  0  0  0  0  0  0
    4.6379   -0.4779    0.0000 C   0  0  0  0  0  0  0  0  0
    5.3523   -0.0654    0.0000 C   0  0  0  0  0  0  0  0  0
    6.0668   -0.4779    0.0000 C   0  0  0  0  0  0  0  0  0
    2.5433   -0.8904    0.0000 C   0  0  0  0  0  0  0  0  0
    2.1308   -1.6049    0.0000 O   0  0  0  0  0  0  0  0  0
    2.1308   -0.1760    0.0000 N   0  0  0  0  0  0  0  0  0
    1.3058   -0.1760    0.0000 C   0  0  0  0  0  0  0  0  0
    0.8933    0.5385    0.0000 C   0  0  0  0  0  0  0  0  0
    1.3058    1.2530    0.0000 N   0  0  0  0  0  0  0  0  0
    2.1308    1.2530    0.0000 C   0  0  0  0  0  0  0  0  0
    2.5433    0.5385    0.0000 C   0  0  0  0  0  0  0  0  0
    0.8933    1.9674    0.0000 C   0  0  0  0  0  0  0  0  0
  1  2  1  0  0  0  0
  2  3  4  0  0  0  0
  2 10  4  0  0  0  0
  3  4  4  0  0  0  0
  4  5  4  0  0  0  0
  4  8  4  0  0  0  0
  5  6  4  0  0  0  0
  6  7  4  0  0  0  0
  6 11  1  0  0  0  0
  7  8  4  0  0  0  0
  8  9  4  0  0  0  0
  9 10  4  0  0  0  0
 11 12  2  0  0  0  0
 11 13  1  0  0  0  0
 13 14  1  0  0  0  0
 13 18  1  0  0  0  0
 14 15  1  0  0  0  0
 15 16  1  0  0  0  0
 16 17  1  0  0  0  0
 16 19  1  0  0  0  0
 17 18  1  0  0  0  0
M  STY  1   1 DAT
M  SAL   1  1   7
M  SDT   1 MRV_IMPLICIT_H                                        
M  SDD   1     0.0000    0.0000    DR    ALL  0       0  
M  SED   1 IMPL_H1
M  END
>  <Name_Molregno>
310363

>  <HISTAMINE H3>
5.6

>  <HISTAMINE H4>
7.2

$$$$
310364
  Marvin  02231216192D 0   1.00000     0.00000     0

 18 19  0  0  0  0  0  0  0  0999 V2000
    0.7414    1.7089    0.0000 Cl  0  0  0  0  0  0  0  0  0
    1.1539    0.9945    0.0000 C   0  0  0  0  0  0  0  0  0
    1.9789    0.9945    0.0000 C   0  0  0  0  0  0  0  0  0
    2.3914    0.2800    0.0000 C   0  0  0  0  0  0  0  0  0
    3.1984    0.1085    0.0000 C   0  0  0  0  0  0  0  0  0
    3.2846   -0.7120    0.0000 C   0  0  0  0  0  0  0  0  0
    2.5310   -1.0476    0.0000 N   0  0  0  0  0  0  0  0  0
    1.9789   -0.4345    0.0000 C   0  0  0  0  0  0  0  0  0
    1.1539   -0.4345    0.0000 C   0  0  0  0  0  0  0  0  0
    0.7414    0.2800    0.0000 C   0  0  0  0  0  0  0  0  0
    3.9991   -1.1245    0.0000 C   0  0  0  0  0  0  0  0  0
    3.9991   -1.9495    0.0000 O   0  0  0  0  0  0  0  0  0
    4.7136   -0.7120    0.0000 N   0  0  0  0  0  0  0  0  0
    5.4280   -1.1245    0.0000 C   0  0  0  0  0  0  0  0  0
    6.1425   -0.7120    0.0000 C   0  0  0  0  0  0  0  0  0
    6.8570   -1.1245    0.0000 N   0  0  0  0  0  0  0  0  0
    7.5715   -0.7120    0.0000 C   0  0  0  0  0  0  0  0  0
    6.8570   -1.9495    0.0000 C   0  0  0  0  0  0  0  0  0
  1  2  1  0  0  0  0
  2  3  4  0  0  0  0
  2 10  4  0  0  0  0
  3  4  4  0  0  0  0
  4  5  4  0  0  0  0
  4  8  4  0  0  0  0
  5  6  4  0  0  0  0
  6  7  4  0  0  0  0
  6 11  1  0  0  0  0
  7  8  4  0  0  0  0
  8  9  4  0  0  0  0
  9 10  4  0  0  0  0
 11 12  2  0  0  0  0
 11 13  1  0  0  0  0
 13 14  1  0  0  0  0
 14 15  1  0  0  0  0
 15 16  1  0  0  0  0
 16 17  1  0  0  0  0
 16 18  1  0  0  0  0
M  STY  1   1 DAT
M  SAL   1  1   7
M  SDT   1 MRV_IMPLICIT_H                                        
M  SDD   1     0.0000    0.0000    DR    ALL  0       0  
M  SED   1 IMPL_H1
M  END
>  <Name_Molregno>
310364

>  <HISTAMINE H3>
5.3

>  <HISTAMINE H4>
5.5

$$$$
310369
  Marvin  02231216192D 0   1.00000     0.00000     0

 18 20  0  0  0  0  0  0  0  0999 V2000
    6.4556   -1.6343    0.0000 Cl  0  0  0  0  0  0  0  0  0
    5.7411   -1.2218    0.0000 C   0  0  0  0  0  0  0  0  0
    5.0266   -1.6343    0.0000 C   0  0  0  0  0  0  0  0  0
    4.3122   -1.2218    0.0000 C   0  0  0  0  0  0  0  0  0
    3.5275   -1.4768    0.0000 C   0  0  0  0  0  0  0  0  0
    3.0426   -0.8093    0.0000 C   0  0  0  0  0  0  0  0  0
    3.5275   -0.1419    0.0000 N   0  0  0  0  0  0  0  0  0
    4.3122   -0.3968    0.0000 C   0  0  0  0  0  0  0  0  0
    5.0266    0.0157    0.0000 C   0  0  0  0  0  0  0  0  0
    5.7411   -0.3968    0.0000 C   0  0  0  0  0  0  0  0  0
    2.2176   -0.8093    0.0000 C   0  0  0  0  0  0  0  0  0
    1.8051   -1.5238    0.0000 O   0  0  0  0  0  0  0  0  0
    1.8051   -0.0949    0.0000 N   0  0  0  0  0  0  0  0  0
    0.9801   -0.0949    0.0000 C   0  0  0  0  0  0  0  0  0
    0.5676    0.6196    0.0000 C   0  0  0  0  0  0  0  0  0
    0.9801    1.3341    0.0000 O   0  0  0  0  0  0  0  0  0
    1.8051    1.3341    0.0000 C   0  0  0  0  0  0  0  0  0
    2.2176    0.6196    0.0000 C   0  0  0  0  0  0  0  0  0
  1  2  1  0  0  0  0
  2  3  4  0  0  0  0
  2 10  4  0  0  0  0
  3  4  4  0  0  0  0
  4  5  4  0  0  0  0
  4  8  4  0  0  0  0
  5  6  4  0  0  0  0
  6  7  4  0  0  0  0
  6 11  1  0  0  0  0
  7  8  4  0  0  0  0
  8  9  4  0  0  0  0
  9 10  4  0  0  0  0
 11 12  2  0  0  0  0
 11 13  1  0  0  0  0
 13 14  1  0  0  0  0
 13 18  1  0  0  0  0
 14 15  1  0  0  0  0
 15 16  1  0  0  0  0
 16 17  1  0  0  0  0
 17 18  1  0  0  0  0
M  STY  1   1 DAT
M  SAL   1  1   7
M  SDT   1 MRV_IMPLICIT_H                                        
M  SDD   1     0.0000    0.0000    DR    ALL  0       0  
M  SED   1 IMPL_H1
M  END
>  <Name_Molregno>
310369

>  <HISTAMINE H4>
4

$$$$
310376
  Marvin  02231216192D 0   1.00000     0.00000     0

 19 21  0  0  1  0  0  0  0  0999 V2000
    6.7813   -1.7154    0.0000 Cl  0  0  0  0  0  0  0  0  0
    6.0668   -1.3029    0.0000 C   0  0  0  0  0  0  0  0  0
    5.3523   -1.7154    0.0000 C   0  0  0  0  0  0  0  0  0
    4.6379   -1.3029    0.0000 C   0  0  0  0  0  0  0  0  0
    3.8532   -1.5579    0.0000 C   0  0  0  0  0  0  0  0  0
    3.3683   -0.8904    0.0000 C   0  0  0  0  0  0  0  0  0
    3.8532   -0.2230    0.0000 N   0  0  0  0  0  0  0  0  0
    4.6379   -0.4779    0.0000 C   0  0  0  0  0  0  0  0  0
    5.3523   -0.0654    0.0000 C   0  0  0  0  0  0  0  0  0
    6.0668   -0.4779    0.0000 C   0  0  0  0  0  0  0  0  0
    2.5433   -0.8904    0.0000 C   0  0  0  0  0  0  0  0  0
    2.1308   -1.6049    0.0000 O   0  0  0  0  0  0  0  0  0
    2.1308   -0.1760    0.0000 C   0  0  0  0  0  0  0  0  0
    1.3058   -0.1760    0.0000 C   0  0  0  0  0  0  0  0  0
    0.8933    0.5385    0.0000 C   0  0  0  0  0  0  0  0  0
    1.3058    1.2530    0.0000 N   0  0  0  0  0  0  0  0  0
    2.1308    1.2530    0.0000 C   0  0  0  0  0  0  0  0  0
    2.5433    0.5385    0.0000 C   0  0  0  0  0  0  0  0  0
    0.8933    1.9674    0.0000 C   0  0  0  0  0  0  0  0  0
  1  2  1  0  0  0  0
  2  3  4  0  0  0  0
  2 10  4  0  0  0  0
  3  4  4  0  0  0  0
  4  5  4  0  0  0  0
  4  8  4  0  0  0  0
  5  6  4  0  0  0  0
  6  7  4  0  0  0  0
  6 11  1  0  0  0  0
  7  8  4  0  0  0  0
  8  9  4  0  0  0  0
  9 10  4  0  0  0  0
 11 12  1  0  0  0  0
 11 13  1  0  0  0  0
 13 14  1  0  0  0  0
 13 18  1  0  0  0  0
 14 15  1  0  0  0  0
 15 16  1  0  0  0  0
 16 17  1  0  0  0  0
 16 19  1  0  0  0  0
 17 18  1  0  0  0  0
M  STY  1   1 DAT
M  SAL   1  1   7
M  SDT   1 MRV_IMPLICIT_H                                        
M  SDD   1     0.0000    0.0000    DR    ALL  0       0  
M  SED   1 IMPL_H1
M  END
>  <Name_Molregno>
310376

>  <HISTAMINE H3>
5.8

>  <HISTAMINE H4>
5.3

$$$$
310412
  Marvin  02231216192D 0   1.00000     0.00000     0

 18 19  0  0  0  0  0  0  0  0999 V2000
    0.7414    1.7089    0.0000 Cl  0  0  0  0  0  0  0  0  0
    1.1539    0.9945    0.0000 C   0  0  0  0  0  0  0  0  0
    1.9789    0.9945    0.0000 C   0  0  0  0  0  0  0  0  0
    2.3914    0.2800    0.0000 C   0  0  0  0  0  0  0  0  0
    3.1984    0.1085    0.0000 N   0  0  0  0  0  0  0  0  0
    3.2846   -0.7120    0.0000 C   0  0  0  0  0  0  0  0  0
    2.5310   -1.0476    0.0000 N   0  0  0  0  0  0  0  0  0
    1.9789   -0.4345    0.0000 C   0  0  0  0  0  0  0  0  0
    1.1539   -0.4345    0.0000 C   0  0  0  0  0  0  0  0  0
    0.7414    0.2800    0.0000 C   0  0  0  0  0  0  0  0  0
    3.9991   -1.1245    0.0000 C   0  0  0  0  0  0  0  0  0
    3.9991   -1.9495    0.0000 O   0  0  0  0  0  0  0  0  0
    4.7136   -0.7120    0.0000 N   0  0  0  0  0  0  0  0  0
    5.4280   -1.1245    0.0000 C   0  0  0  0  0  0  0  0  0
    6.1425   -0.7120    0.0000 C   0  0  0  0  0  0  0  0  0
    6.8570   -1.1245    0.0000 N   0  0  0  0  0  0  0  0  0
    7.5715   -0.7120    0.0000 C   0  0  0  0  0  0  0  0  0
    6.8570   -1.9495    0.0000 C   0  0  0  0  0  0  0  0  0
  1  2  1  0  0  0  0
  2  3  4  0  0  0  0
  2 10  4  0  0  0  0
  3  4  4  0  0  0  0
  4  5  4  0  0  0  0
  4  8  4  0  0  0  0
  5  6  4  0  0  0  0
  6  7  4  0  0  0  0
  6 11  1  0  0  0  0
  7  8  4  0  0  0  0
  8  9  4  0  0  0  0
  9 10  4  0  0  0  0
 11 12  2  0  0  0  0
 11 13  1  0  0  0  0
 13 14  1  0  0  0  0
 14 15  1  0  0  0  0
 15 16  1  0  0  0  0
 16 17  1  0  0  0  0
 16 18  1  0  0  0  0
M  STY  1   1 DAT
M  SAL   1  1   7
M  SDT   1 MRV_IMPLICIT_H                                        
M  SDD   1     0.0000    0.0000    DR    ALL  0       0  
M  SED   1 IMPL_H1
M  END
>  <Name_Molregno>
310412

>  <HISTAMINE H3>
4.6

>  <HISTAMINE H4>
6

$$$$
310413
  Marvin  02231216192D 0   1.00000     0.00000     0

 19 20  0  0  0  0  0  0  0  0999 V2000
    0.7548    1.9200    0.0000 Cl  0  0  0  0  0  0  0  0  0
    1.1673    1.2055    0.0000 C   0  0  0  0  0  0  0  0  0
    1.9923    1.2055    0.0000 C   0  0  0  0  0  0  0  0  0
    2.4048    0.4910    0.0000 C   0  0  0  0  0  0  0  0  0
    3.2117    0.3195    0.0000 N   0  0  0  0  0  0  0  0  0
    3.2980   -0.5010    0.0000 C   0  0  0  0  0  0  0  0  0
    2.5443   -0.8366    0.0000 N   0  0  0  0  0  0  0  0  0
    1.9923   -0.2235    0.0000 C   0  0  0  0  0  0  0  0  0
    1.1673   -0.2235    0.0000 C   0  0  0  0  0  0  0  0  0
    0.7548    0.4910    0.0000 C   0  0  0  0  0  0  0  0  0
    4.0125   -0.9135    0.0000 C   0  0  0  0  0  0  0  0  0
    4.0125   -1.7385    0.0000 O   0  0  0  0  0  0  0  0  0
    4.7269   -0.5010    0.0000 N   0  0  0  0  0  0  0  0  0
    5.4414   -0.9135    0.0000 C   0  0  0  0  0  0  0  0  0
    6.1559   -0.5010    0.0000 C   0  0  0  0  0  0  0  0  0
    6.8703   -0.9135    0.0000 N   0  0  0  0  0  0  0  0  0
    7.5848   -0.5010    0.0000 C   0  0  0  0  0  0  0  0  0
    6.8703   -1.7385    0.0000 C   0  0  0  0  0  0  0  0  0
    4.7269    0.3240    0.0000 C   0  0  0  0  0  0  0  0  0
  1  2  1  0  0  0  0
  2  3  4  0  0  0  0
  2 10  4  0  0  0  0
  3  4  4  0  0  0  0
  4  5  4  0  0  0  0
  4  8  4  0  0  0  0
  5  6  4  0  0  0  0
  6  7  4  0  0  0  0
  6 11  1  0  0  0  0
  7  8  4  0  0  0  0
  8  9  4  0  0  0  0
  9 10  4  0  0  0  0
 11 12  2  0  0  0  0
 11 13  1  0  0  0  0
 13 14  1  0  0  0  0
 13 19  1  0  0  0  0
 14 15  1  0  0  0  0
 15 16  1  0  0  0  0
 16 17  1  0  0  0  0
 16 18  1  0  0  0  0
M  STY  1   1 DAT
M  SAL   1  1   7
M  SDT   1 MRV_IMPLICIT_H                                        
M  SDD   1     0.0000    0.0000    DR    ALL  0       0  
M  SED   1 IMPL_H1
M  END
>  <Name_Molregno>
310413

>  <HISTAMINE H4>
4.6

$$$$
310456
  Marvin  02231216192D 0   1.00000     0.00000     0

 14 15  0  0  0  0  0  0  0  0999 V2000
    5.2747   -0.5400    0.0000 Cl  0  0  0  0  0  0  0  0  0
    4.5603   -0.1275    0.0000 C   0  0  0  0  0  0  0  0  0
    3.8458   -0.5400    0.0000 C   0  0  0  0  0  0  0  0  0
    3.1313   -0.1275    0.0000 C   0  0  0  0  0  0  0  0  0
    2.3467   -0.3824    0.0000 N   0  0  0  0  0  0  0  0  0
    1.8618    0.2850    0.0000 C   0  0  0  0  0  0  0  0  0
    2.3467    0.9524    0.0000 N   0  0  0  0  0  0  0  0  0
    3.1313    0.6975    0.0000 C   0  0  0  0  0  0  0  0  0
    3.8458    1.1100    0.0000 C   0  0  0  0  0  0  0  0  0
    4.5603    0.6975    0.0000 C   0  0  0  0  0  0  0  0  0
    1.0368    0.2850    0.0000 N   0  0  0  0  0  0  0  0  0
    0.6243    0.9995    0.0000 C   0  0  0  0  0  0  0  0  0
   -0.2007    0.9995    0.0000 O   0  0  0  0  0  0  0  0  0
    1.0368    1.7140    0.0000 C   0  0  0  0  0  0  0  0  0
  1  2  1  0  0  0  0
  2  3  4  0  0  0  0
  2 10  4  0  0  0  0
  3  4  4  0  0  0  0
  4  5  4  0  0  0  0
  4  8  4  0  0  0  0
  5  6  4  0  0  0  0
  6  7  4  0  0  0  0
  6 11  1  0  0  0  0
  7  8  4  0  0  0  0
  8  9  4  0  0  0  0
  9 10  4  0  0  0  0
 11 12  1  0  0  0  0
 12 13  2  0  0  0  0
 12 14  1  0  0  0  0
M  STY  1   1 DAT
M  SAL   1  1   7
M  SDT   1 MRV_IMPLICIT_H                                        
M  SDD   1     0.0000    0.0000    DR    ALL  0       0  
M  SED   1 IMPL_H1
M  END
>  <Name_Molregno>
310456

>  <HISTAMINE H4>
4

$$$$
310457
  Marvin  02231216192D 0   1.00000     0.00000     0

 20 22  0  0  0  0  0  0  0  0999 V2000
    7.7148   -0.0359    0.0000 Cl  0  0  0  0  0  0  0  0  0
    7.0003    0.3766    0.0000 C   0  0  0  0  0  0  0  0  0
    6.2858   -0.0359    0.0000 C   0  0  0  0  0  0  0  0  0
    5.5714    0.3766    0.0000 C   0  0  0  0  0  0  0  0  0
    4.7867    0.1217    0.0000 N   0  0  0  0  0  0  0  0  0
    4.3018    0.7891    0.0000 C   0  0  0  0  0  0  0  0  0
    4.7867    1.4566    0.0000 N   0  0  0  0  0  0  0  0  0
    5.5714    1.2016    0.0000 C   0  0  0  0  0  0  0  0  0
    6.2858    1.6141    0.0000 C   0  0  0  0  0  0  0  0  0
    7.0003    1.2016    0.0000 C   0  0  0  0  0  0  0  0  0
    3.4768    0.7891    0.0000 N   0  0  0  0  0  0  0  0  0
    3.0643    0.0747    0.0000 C   0  0  0  0  0  0  0  0  0
    3.4768   -0.6398    0.0000 O   0  0  0  0  0  0  0  0  0
    2.2393    0.0747    0.0000 N   0  0  0  0  0  0  0  0  0
    1.8268   -0.6398    0.0000 C   0  0  0  0  0  0  0  0  0
    1.0018   -0.6398    0.0000 C   0  0  0  0  0  0  0  0  0
    0.5893    0.0747    0.0000 N   0  0  0  0  0  0  0  0  0
    1.0018    0.7891    0.0000 C   0  0  0  0  0  0  0  0  0
    1.8268    0.7891    0.0000 C   0  0  0  0  0  0  0  0  0
   -0.2357    0.0747    0.0000 C   0  0  0  0  0  0  0  0  0
  1  2  1  0  0  0  0
  2  3  4  0  0  0  0
  2 10  4  0  0  0  0
  3  4  4  0  0  0  0
  4  5  4  0  0  0  0
  4  8  4  0  0  0  0
  5  6  4  0  0  0  0
  6  7  4  0  0  0  0
  6 11  1  0  0  0  0
  7  8  4  0  0  0  0
  8  9  4  0  0  0  0
  9 10  4  0  0  0  0
 11 12  1  0  0  0  0
 12 13  2  0  0  0  0
 12 14  1  0  0  0  0
 14 15  1  0  0  0  0
 14 19  1  0  0  0  0
 15 16  1  0  0  0  0
 16 17  1  0  0  0  0
 17 18  1  0  0  0  0
 17 20  1  0  0  0  0
 18 19  1  0  0  0  0
M  STY  1   1 DAT
M  SAL   1  1   7
M  SDT   1 MRV_IMPLICIT_H                                        
M  SDD   1     0.0000    0.0000    DR    ALL  0       0  
M  SED   1 IMPL_H1
M  END
>  <Name_Molregno>
310457

>  <HISTAMINE H4>
4.7

$$$$
310462
  Marvin  02231216192D 0   1.00000     0.00000     0

 19 21  0  0  0  0  0  0  0  0999 V2000
    6.7813   -1.7154    0.0000 Cl  0  0  0  0  0  0  0  0  0
    6.0668   -1.3029    0.0000 C   0  0  0  0  0  0  0  0  0
    5.3523   -1.7154    0.0000 C   0  0  0  0  0  0  0  0  0
    4.6379   -1.3029    0.0000 C   0  0  0  0  0  0  0  0  0
    3.8532   -1.5579    0.0000 C   0  0  0  0  0  0  0  0  0
    3.3683   -0.8904    0.0000 C   0  0  0  0  0  0  0  0  0
    3.8532   -0.2230    0.0000 N   0  0  0  0  0  0  0  0  0
    4.6379   -0.4779    0.0000 C   0  0  0  0  0  0  0  0  0
    5.3523   -0.0654    0.0000 C   0  0  0  0  0  0  0  0  0
    6.0668   -0.4779    0.0000 C   0  0  0  0  0  0  0  0  0
    2.5433   -0.8904    0.0000 C   0  0  0  0  0  0  0  0  0
    2.1308   -1.6049    0.0000 O   0  0  0  0  0  0  0  0  0
    2.1308   -0.1760    0.0000 C   0  0  0  0  0  0  0  0  0
    1.3058   -0.1760    0.0000 C   0  0  0  0  0  0  0  0  0
    0.8933    0.5385    0.0000 C   0  0  0  0  0  0  0  0  0
    1.3058    1.2530    0.0000 N   0  0  0  0  0  0  0  0  0
    2.1308    1.2530    0.0000 C   0  0  0  0  0  0  0  0  0
    2.5433    0.5385    0.0000 C   0  0  0  0  0  0  0  0  0
    0.8933    1.9674    0.0000 C   0  0  0  0  0  0  0  0  0
  1  2  1  0  0  0  0
  2  3  4  0  0  0  0
  2 10  4  0  0  0  0
  3  4  4  0  0  0  0
  4  5  4  0  0  0  0
  4  8  4  0  0  0  0
  5  6  4  0  0  0  0
  6  7  4  0  0  0  0
  6 11  1  0  0  0  0
  7  8  4  0  0  0  0
  8  9  4  0  0  0  0
  9 10  4  0  0  0  0
 11 12  2  0  0  0  0
 11 13  1  0  0  0  0
 13 14  1  0  0  0  0
 13 18  1  0  0  0  0
 14 15  1  0  0  0  0
 15 16  1  0  0  0  0
 16 17  1  0  0  0  0
 16 19  1  0  0  0  0
 17 18  1  0  0  0  0
M  STY  1   1 DAT
M  SAL   1  1   7
M  SDT   1 MRV_IMPLICIT_H                                        
M  SDD   1     0.0000    0.0000    DR    ALL  0       0  
M  SED   1 IMPL_H1
M  END
>  <Name_Molregno>
310462

>  <HISTAMINE H3>
5.5

>  <HISTAMINE H4>
6.7

$$$$
310463
  Marvin  02231216192D 0   1.00000     0.00000     0

 19 21  0  0  0  0  0  0  0  0999 V2000
    6.7813   -1.7154    0.0000 Cl  0  0  0  0  0  0  0  0  0
    6.0668   -1.3029    0.0000 C   0  0  0  0  0  0  0  0  0
    5.3523   -1.7154    0.0000 C   0  0  0  0  0  0  0  0  0
    4.6379   -1.3029    0.0000 C   0  0  0  0  0  0  0  0  0
    3.8532   -1.5579    0.0000 N   0  0  0  0  0  0  0  0  0
    3.3683   -0.8904    0.0000 C   0  0  0  0  0  0  0  0  0
    3.8532   -0.2230    0.0000 N   0  0  0  0  0  0  0  0  0
    4.6379   -0.4779    0.0000 C   0  0  0  0  0  0  0  0  0
    5.3523   -0.0654    0.0000 C   0  0  0  0  0  0  0  0  0
    6.0668   -0.4779    0.0000 C   0  0  0  0  0  0  0  0  0
    2.5433   -0.8904    0.0000 C   0  0  0  0  0  0  0  0  0
    2.1308   -1.6049    0.0000 O   0  0  0  0  0  0  0  0  0
    2.1308   -0.1760    0.0000 N   0  0  0  0  0  0  0  0  0
    1.3058   -0.1760    0.0000 C   0  0  0  0  0  0  0  0  0
    0.8933    0.5385    0.0000 C   0  0  0  0  0  0  0  0  0
    1.3058    1.2530    0.0000 N   0  0  0  0  0  0  0  0  0
    2.1308    1.2530    0.0000 C   0  0  0  0  0  0  0  0  0
    2.5433    0.5385    0.0000 C   0  0  0  0  0  0  0  0  0
    0.8933    1.9674    0.0000 C   0  0  0  0  0  0  0  0  0
  1  2  1  0  0  0  0
  2  3  4  0  0  0  0
  2 10  4  0  0  0  0
  3  4  4  0  0  0  0
  4  5  4  0  0  0  0
  4  8  4  0  0  0  0
  5  6  4  0  0  0  0
  6  7  4  0  0  0  0
  6 11  1  0  0  0  0
  7  8  4  0  0  0  0
  8  9  4  0  0  0  0
  9 10  4  0  0  0  0
 11 12  2  0  0  0  0
 11 13  1  0  0  0  0
 13 14  1  0  0  0  0
 13 18  1  0  0  0  0
 14 15  1  0  0  0  0
 15 16  1  0  0  0  0
 16 17  1  0  0  0  0
 16 19  1  0  0  0  0
 17 18  1  0  0  0  0
M  STY  1   1 DAT
M  SAL   1  1   7
M  SDT   1 MRV_IMPLICIT_H                                        
M  SDD   1     0.0000    0.0000    DR    ALL  0       0  
M  SED   1 IMPL_H1
M  END
>  <Name_Molregno>
310463

>  <HISTAMINE H3>
5.13

>  <HISTAMINE H4>
7.35

$$$$
310508
  Marvin  02231216192D 0   1.00000     0.00000     0

 20 22  0  0  0  0  0  0  0  0999 V2000
    7.7369   -0.7985    0.0000 Cl  0  0  0  0  0  0  0  0  0
    7.0224   -0.3860    0.0000 C   0  0  0  0  0  0  0  0  0
    6.3079   -0.7985    0.0000 C   0  0  0  0  0  0  0  0  0
    5.5935   -0.3860    0.0000 C   0  0  0  0  0  0  0  0  0
    4.8089   -0.6410    0.0000 N   0  0  0  0  0  0  0  0  0
    4.3239    0.0265    0.0000 C   0  0  0  0  0  0  0  0  0
    4.8089    0.6939    0.0000 N   0  0  0  0  0  0  0  0  0
    5.5935    0.4390    0.0000 C   0  0  0  0  0  0  0  0  0
    6.3079    0.8515    0.0000 C   0  0  0  0  0  0  0  0  0
    7.0224    0.4390    0.0000 C   0  0  0  0  0  0  0  0  0
    3.4989    0.0265    0.0000 C   0  0  0  0  0  0  0  0  0
    3.0864    0.7409    0.0000 O   0  0  0  0  0  0  0  0  0
    3.0864   -0.6880    0.0000 N   0  0  0  0  0  0  0  0  0
    2.2614   -0.6880    0.0000 N   0  0  0  0  0  0  0  0  0
    1.8489   -1.4025    0.0000 C   0  0  0  0  0  0  0  0  0
    1.0239   -1.4025    0.0000 C   0  0  0  0  0  0  0  0  0
    0.6114   -0.6880    0.0000 N   0  0  0  0  0  0  0  0  0
    1.0239    0.0265    0.0000 C   0  0  0  0  0  0  0  0  0
    1.8489    0.0265    0.0000 C   0  0  0  0  0  0  0  0  0
   -0.2136   -0.6880    0.0000 C   0  0  0  0  0  0  0  0  0
  1  2  1  0  0  0  0
  2  3  4  0  0  0  0
  2 10  4  0  0  0  0
  3  4  4  0  0  0  0
  4  5  4  0  0  0  0
  4  8  4  0  0  0  0
  5  6  4  0  0  0  0
  6  7  4  0  0  0  0
  6 11  1  0  0  0  0
  7  8  4  0  0  0  0
  8  9  4  0  0  0  0
  9 10  4  0  0  0  0
 11 12  2  0  0  0  0
 11 13  1  0  0  0  0
 13 14  1  0  0  0  0
 14 15  1  0  0  0  0
 14 19  1  0  0  0  0
 15 16  1  0  0  0  0
 16 17  1  0  0  0  0
 17 18  1  0  0  0  0
 17 20  1  0  0  0  0
 18 19  1  0  0  0  0
M  STY  1   1 DAT
M  SAL   1  1   7
M  SDT   1 MRV_IMPLICIT_H                                        
M  SDD   1     0.0000    0.0000    DR    ALL  0       0  
M  SED   1 IMPL_H1
M  END
>  <Name_Molregno>
310508

>  <HISTAMINE H4>
4

$$$$
310509
  Marvin  02231216192D 0   1.00000     0.00000     0

 19 21  0  0  0  0  0  0  0  0999 V2000
    7.0179   -0.1494    0.0000 Cl  0  0  0  0  0  0  0  0  0
    6.3034    0.2631    0.0000 C   0  0  0  0  0  0  0  0  0
    5.5889   -0.1494    0.0000 C   0  0  0  0  0  0  0  0  0
    4.8744    0.2631    0.0000 C   0  0  0  0  0  0  0  0  0
    4.0898    0.0082    0.0000 N   0  0  0  0  0  0  0  0  0
    3.6049    0.6756    0.0000 C   0  0  0  0  0  0  0  0  0
    4.0898    1.3431    0.0000 N   0  0  0  0  0  0  0  0  0
    4.8744    1.0881    0.0000 C   0  0  0  0  0  0  0  0  0
    5.5889    1.5006    0.0000 C   0  0  0  0  0  0  0  0  0
    6.3034    1.0881    0.0000 C   0  0  0  0  0  0  0  0  0
    2.7799    0.6756    0.0000 C   0  0  0  0  0  0  0  0  0
    2.3674   -0.0389    0.0000 C   0  0  0  0  0  0  0  0  0
    1.5424   -0.0389    0.0000 C   0  0  0  0  0  0  0  0  0
    1.1299   -0.7533    0.0000 N   0  0  0  0  0  0  0  0  0
    1.5424   -1.4678    0.0000 C   0  0  0  0  0  0  0  0  0
    0.3049   -0.7533    0.0000 C   0  0  0  0  0  0  0  0  0
    1.1299    0.6756    0.0000 C   0  0  0  0  0  0  0  0  0
    1.5424    1.3901    0.0000 C   0  0  0  0  0  0  0  0  0
    2.3674    1.3901    0.0000 C   0  0  0  0  0  0  0  0  0
  1  2  1  0  0  0  0
  2  3  4  0  0  0  0
  2 10  4  0  0  0  0
  3  4  4  0  0  0  0
  4  5  4  0  0  0  0
  4  8  4  0  0  0  0
  5  6  4  0  0  0  0
  6  7  4  0  0  0  0
  6 11  1  0  0  0  0
  7  8  4  0  0  0  0
  8  9  4  0  0  0  0
  9 10  4  0  0  0  0
 11 12  4  0  0  0  0
 11 19  4  0  0  0  0
 12 13  4  0  0  0  0
 13 14  1  0  0  0  0
 13 17  4  0  0  0  0
 14 15  1  0  0  0  0
 14 16  1  0  0  0  0
 17 18  4  0  0  0  0
 18 19  4  0  0  0  0
M  STY  1   1 DAT
M  SAL   1  1   7
M  SDT   1 MRV_IMPLICIT_H                                        
M  SDD   1     0.0000    0.0000    DR    ALL  0       0  
M  SED   1 IMPL_H1
M  END
>  <Name_Molregno>
310509

>  <HISTAMINE H4>
4

$$$$
323303
  Marvin  02231216192D 0   1.00000     0.00000     0

 26 30  0  0  1  0  0  0  0  0999 V2000
    6.6579   -0.3987    0.0000 N   0  0  0  0  0  0  0  0  0
    6.9801   -1.1582    0.0000 C   0  0  0  0  0  0  0  0  0
    7.1544    0.2601    0.0000 C   0  0  0  0  0  0  0  0  0
    5.8390   -0.2981    0.0000 C   0  0  0  0  0  0  0  0  0
    5.5167    0.4614    0.0000 C   0  0  0  0  0  0  0  0  0
    4.6979    0.5620    0.0000 C   0  0  0  0  0  0  0  0  0
    4.3756    1.3214    0.0000 C   0  0  0  0  0  0  0  0  0
    3.5568    1.4220    0.0000 C   0  0  0  0  0  0  0  0  0
    3.0602    0.7632    0.0000 C   0  0  0  0  0  0  0  0  0
    3.3825    0.0038    0.0000 C   0  0  0  0  0  0  0  0  0
    2.8859   -0.6551    0.0000 C   0  0  0  0  0  0  0  0  0
    2.0671   -0.5544    0.0000 C   0  0  0  0  0  0  0  0  0
    1.7448    0.2050    0.0000 C   0  0  0  0  0  0  0  0  0
    0.9648    0.4737    0.0000 C   0  0  0  0  0  0  0  0  0
    0.9793    1.2985    0.0000 C   0  0  0  0  0  0  0  0  0
    1.7682    1.5397    0.0000 C   0  0  0  0  0  0  0  0  0
    2.2414    0.8638    0.0000 C   0  0  0  0  0  0  0  0  0
    0.4682   -0.1852    0.0000 C   0  0  0  0  0  0  0  0  0
    0.9414   -0.8610    0.0000 N   0  0  0  0  0  0  0  0  0
    1.7303   -0.6199    0.0000 C   0  0  0  0  0  0  0  0  0
    0.6727   -1.6410    0.0000 C   0  0  0  0  0  0  0  0  0
   -0.3566   -0.1707    0.0000 C   0  0  0  0  0  0  0  0  0
    4.2013   -0.0968    0.0000 C   0  0  0  0  0  0  0  0  0
    4.5236   -0.8563    0.0000 C   0  0  0  0  0  0  0  0  0
    5.3425   -0.9569    0.0000 C   0  0  0  0  0  0  0  0  0
    3.7048   -0.7557    0.0000 C   0  0  0  0  0  0  0  0  0
  1  2  1  0  0  0  0
  1  3  1  0  0  0  0
  1  4  1  0  0  0  0
  4  5  1  0  0  0  0
  4 25  1  0  0  0  0
  5  6  1  0  0  0  0
  6  7  2  0  0  0  0
  6 23  1  0  0  0  0
  7  8  1  0  0  0  0
  8  9  1  0  0  0  0
  9 10  1  0  0  0  0
  9 17  1  0  0  0  0
 10 11  1  0  0  0  0
 10 23  1  0  0  0  0
 11 12  1  0  0  0  0
 12 13  1  0  0  0  0
 13 14  1  0  0  0  0
 13 17  1  0  0  0  0
 13 20  1  0  0  0  0
 14 15  1  0  0  0  0
 14 18  1  0  0  0  0
 15 16  1  0  0  0  0
 16 17  1  0  0  0  0
 18 19  1  0  0  0  0
 18 22  1  0  0  0  0
 19 20  1  0  0  0  0
 19 21  1  0  0  0  0
 23 24  1  0  0  0  0
 23 26  1  0  0  0  0
 24 25  1  0  0  0  0
M  END
>  <Name_Molregno>
323303

>  <Alpha-2A>
6.18

>  <Alpha-2C>
7.97

>  <HISTAMINE H1>
5

>  <HISTAMINE H2>
5

>  <HISTAMINE H3>
8.31

>  <HISTAMINE H4>
5

$$$$
331541
  Marvin  02231216192D 0   1.00000     0.00000     0

 20 22  0  0  0  0  0  0  0  0999 V2000
    6.5443   -0.3390    0.0000 F   0  0  0  0  0  0  0  0  0
    5.8298   -0.7515    0.0000 C   0  0  0  0  0  0  0  0  0
    5.8298   -1.5765    0.0000 C   0  0  0  0  0  0  0  0  0
    5.1153   -1.9890    0.0000 C   0  0  0  0  0  0  0  0  0
    4.4009   -1.5765    0.0000 C   0  0  0  0  0  0  0  0  0
    3.6162   -1.8314    0.0000 N   0  0  0  0  0  0  0  0  0
    3.1313   -1.1640    0.0000 C   0  0  0  0  0  0  0  0  0
    3.6162   -0.4965    0.0000 C   0  0  0  0  0  0  0  0  0
    4.4009   -0.7515    0.0000 C   0  0  0  0  0  0  0  0  0
    5.1153   -0.3390    0.0000 C   0  0  0  0  0  0  0  0  0
    5.1153    0.4860    0.0000 C   0  0  0  0  0  0  0  0  0
    2.3063   -1.1640    0.0000 C   0  0  0  0  0  0  0  0  0
    1.8938   -1.8784    0.0000 O   0  0  0  0  0  0  0  0  0
    1.8938   -0.4495    0.0000 N   0  0  0  0  0  0  0  0  0
    1.0688   -0.4495    0.0000 C   0  0  0  0  0  0  0  0  0
    0.6563    0.2650    0.0000 C   0  0  0  0  0  0  0  0  0
    1.0688    0.9795    0.0000 N   0  0  0  0  0  0  0  0  0
    1.8938    0.9795    0.0000 C   0  0  0  0  0  0  0  0  0
    2.3063    0.2650    0.0000 C   0  0  0  0  0  0  0  0  0
    0.6563    1.6939    0.0000 C   0  0  0  0  0  0  0  0  0
  1  2  1  0  0  0  0
  2  3  4  0  0  0  0
  2 10  4  0  0  0  0
  3  4  4  0  0  0  0
  4  5  4  0  0  0  0
  5  6  4  0  0  0  0
  5  9  4  0  0  0  0
  6  7  4  0  0  0  0
  7  8  4  0  0  0  0
  7 12  1  0  0  0  0
  8  9  4  0  0  0  0
  9 10  4  0  0  0  0
 10 11  1  0  0  0  0
 12 13  2  0  0  0  0
 12 14  1  0  0  0  0
 14 15  1  0  0  0  0
 14 19  1  0  0  0  0
 15 16  1  0  0  0  0
 16 17  1  0  0  0  0
 17 18  1  0  0  0  0
 17 20  1  0  0  0  0
 18 19  1  0  0  0  0
M  STY  1   1 DAT
M  SAL   1  1   6
M  SDT   1 MRV_IMPLICIT_H                                        
M  SDD   1     0.0000    0.0000    DR    ALL  0       0  
M  SED   1 IMPL_H1
M  END
>  <Name_Molregno>
331541

>  <HISTAMINE H4>
7.57

$$$$
331612
  Marvin  02231216192D 0   1.00000     0.00000     0

 19 21  0  0  0  0  0  0  0  0999 V2000
   -1.7459   -0.4258    0.0000 O   0  0  0  0  0  0  0  0  0
   -1.3334   -1.1403    0.0000 C   0  0  0  0  0  0  0  0  0
   -1.7459   -1.8547    0.0000 N   0  0  0  0  0  0  0  0  0
   -1.3334   -2.5692    0.0000 C   0  0  0  0  0  0  0  0  0
   -1.7459   -3.2837    0.0000 C   0  0  0  0  0  0  0  0  0
   -2.5709   -3.2837    0.0000 N   0  0  0  0  0  0  0  0  0
   -2.9834   -2.5692    0.0000 C   0  0  0  0  0  0  0  0  0
   -2.5709   -1.8547    0.0000 C   0  0  0  0  0  0  0  0  0
   -2.9834   -3.9982    0.0000 C   0  0  0  0  0  0  0  0  0
   -0.5084   -1.1403    0.0000 C   0  0  0  0  0  0  0  0  0
   -0.0235   -1.8077    0.0000 N   0  0  0  0  0  0  0  0  0
    0.7611   -1.5528    0.0000 C   0  0  0  0  0  0  0  0  0
    0.7611   -0.7278    0.0000 C   0  0  0  0  0  0  0  0  0
   -0.0235   -0.4728    0.0000 N   0  0  0  0  0  0  0  0  0
    1.4756   -0.3153    0.0000 C   0  0  0  0  0  0  0  0  0
    1.4756    0.5097    0.0000 N   0  0  0  0  0  0  0  0  0
    2.1901   -0.7278    0.0000 C   0  0  0  0  0  0  0  0  0
    2.1901   -1.5528    0.0000 C   0  0  0  0  0  0  0  0  0
    1.4756   -1.9653    0.0000 C   0  0  0  0  0  0  0  0  0
  1  2  2  0  0  0  0
  2  3  1  0  0  0  0
  2 10  1  0  0  0  0
  3  4  1  0  0  0  0
  3  8  1  0  0  0  0
  4  5  1  0  0  0  0
  5  6  1  0  0  0  0
  6  7  1  0  0  0  0
  6  9  1  0  0  0  0
  7  8  1  0  0  0  0
 10 11  4  0  0  0  0
 10 14  4  0  0  0  0
 11 12  4  0  0  0  0
 12 13  4  0  0  0  0
 12 19  4  0  0  0  0
 13 14  4  0  0  0  0
 13 15  4  0  0  0  0
 15 16  1  0  0  0  0
 15 17  4  0  0  0  0
 17 18  4  0  0  0  0
 18 19  4  0  0  0  0
M  STY  1   1 DAT
M  SAL   1  1  11
M  SDT   1 MRV_IMPLICIT_H                                        
M  SDD   1     0.0000    0.0000    DR    ALL  0       0  
M  SED   1 IMPL_H1
M  END
>  <Name_Molregno>
331612

>  <HISTAMINE H4>
6.61

$$$$
331613
  Marvin  02231216192D 0   1.00000     0.00000     0

 19 21  0  0  0  0  0  0  0  0999 V2000
    6.7813   -1.7154    0.0000 F   0  0  0  0  0  0  0  0  0
    6.0668   -1.3029    0.0000 C   0  0  0  0  0  0  0  0  0
    5.3523   -1.7154    0.0000 C   0  0  0  0  0  0  0  0  0
    4.6379   -1.3029    0.0000 C   0  0  0  0  0  0  0  0  0
    3.8532   -1.5579    0.0000 N   0  0  0  0  0  0  0  0  0
    3.3683   -0.8904    0.0000 C   0  0  0  0  0  0  0  0  0
    3.8532   -0.2230    0.0000 N   0  0  0  0  0  0  0  0  0
    4.6379   -0.4779    0.0000 C   0  0  0  0  0  0  0  0  0
    5.3523   -0.0654    0.0000 C   0  0  0  0  0  0  0  0  0
    6.0668   -0.4779    0.0000 C   0  0  0  0  0  0  0  0  0
    2.5433   -0.8904    0.0000 C   0  0  0  0  0  0  0  0  0
    2.1308   -1.6049    0.0000 O   0  0  0  0  0  0  0  0  0
    2.1308   -0.1760    0.0000 N   0  0  0  0  0  0  0  0  0
    1.3058   -0.1760    0.0000 C   0  0  0  0  0  0  0  0  0
    0.8933    0.5385    0.0000 C   0  0  0  0  0  0  0  0  0
    1.3058    1.2530    0.0000 N   0  0  0  0  0  0  0  0  0
    2.1308    1.2530    0.0000 C   0  0  0  0  0  0  0  0  0
    2.5433    0.5385    0.0000 C   0  0  0  0  0  0  0  0  0
    0.8933    1.9674    0.0000 C   0  0  0  0  0  0  0  0  0
  1  2  1  0  0  0  0
  2  3  4  0  0  0  0
  2 10  4  0  0  0  0
  3  4  4  0  0  0  0
  4  5  4  0  0  0  0
  4  8  4  0  0  0  0
  5  6  4  0  0  0  0
  6  7  4  0  0  0  0
  6 11  1  0  0  0  0
  7  8  4  0  0  0  0
  8  9  4  0  0  0  0
  9 10  4  0  0  0  0
 11 12  2  0  0  0  0
 11 13  1  0  0  0  0
 13 14  1  0  0  0  0
 13 18  1  0  0  0  0
 14 15  1  0  0  0  0
 15 16  1  0  0  0  0
 16 17  1  0  0  0  0
 16 19  1  0  0  0  0
 17 18  1  0  0  0  0
M  STY  1   1 DAT
M  SAL   1  1   7
M  SDT   1 MRV_IMPLICIT_H                                        
M  SDD   1     0.0000    0.0000    DR    ALL  0       0  
M  SED   1 IMPL_H1
M  END
>  <Name_Molregno>
331613

>  <HISTAMINE H4>
7.72

$$$$
331623
  Marvin  02231216192D 0   1.00000     0.00000     0

 19 21  0  0  0  0  0  0  0  0999 V2000
   -1.8539   -0.4585    0.0000 O   0  0  0  0  0  0  0  0  0
   -1.4414   -1.1730    0.0000 C   0  0  0  0  0  0  0  0  0
   -1.8539   -1.8874    0.0000 N   0  0  0  0  0  0  0  0  0
   -1.4414   -2.6019    0.0000 C   0  0  0  0  0  0  0  0  0
   -1.8539   -3.3164    0.0000 C   0  0  0  0  0  0  0  0  0
   -2.6789   -3.3164    0.0000 N   0  0  0  0  0  0  0  0  0
   -3.0914   -2.6019    0.0000 C   0  0  0  0  0  0  0  0  0
   -2.6789   -1.8874    0.0000 C   0  0  0  0  0  0  0  0  0
   -3.0914   -4.0308    0.0000 C   0  0  0  0  0  0  0  0  0
   -0.6164   -1.1730    0.0000 C   0  0  0  0  0  0  0  0  0
   -0.1315   -1.8404    0.0000 N   0  0  0  0  0  0  0  0  0
    0.6531   -1.5855    0.0000 C   0  0  0  0  0  0  0  0  0
    0.6531   -0.7605    0.0000 C   0  0  0  0  0  0  0  0  0
   -0.1315   -0.5055    0.0000 N   0  0  0  0  0  0  0  0  0
    1.3676   -0.3480    0.0000 C   0  0  0  0  0  0  0  0  0
    2.0821   -0.7605    0.0000 C   0  0  0  0  0  0  0  0  0
    2.0821   -1.5855    0.0000 C   0  0  0  0  0  0  0  0  0
    1.3676   -1.9980    0.0000 C   0  0  0  0  0  0  0  0  0
    2.7965   -0.3480    0.0000 C   0  0  0  0  0  0  0  0  0
  1  2  2  0  0  0  0
  2  3  1  0  0  0  0
  2 10  1  0  0  0  0
  3  4  1  0  0  0  0
  3  8  1  0  0  0  0
  4  5  1  0  0  0  0
  5  6  1  0  0  0  0
  6  7  1  0  0  0  0
  6  9  1  0  0  0  0
  7  8  1  0  0  0  0
 10 11  4  0  0  0  0
 10 14  4  0  0  0  0
 11 12  4  0  0  0  0
 12 13  4  0  0  0  0
 12 18  4  0  0  0  0
 13 14  4  0  0  0  0
 13 15  4  0  0  0  0
 15 16  4  0  0  0  0
 16 17  4  0  0  0  0
 16 19  1  0  0  0  0
 17 18  4  0  0  0  0
M  STY  1   1 DAT
M  SAL   1  1  11
M  SDT   1 MRV_IMPLICIT_H                                        
M  SDD   1     0.0000    0.0000    DR    ALL  0       0  
M  SED   1 IMPL_H1
M  END
>  <Name_Molregno>
331623

>  <HISTAMINE H4>
6.28

$$$$
331624
  Marvin  02231216192D 0   1.00000     0.00000     0

 22 24  0  0  0  0  0  0  0  0999 V2000
    0.4825   -2.4354    0.0000 F   0  0  0  0  0  0  0  0  0
   -0.2320   -2.0229    0.0000 C   0  0  0  0  0  0  0  0  0
    0.1805   -1.3084    0.0000 F   0  0  0  0  0  0  0  0  0
   -0.6445   -2.7374    0.0000 F   0  0  0  0  0  0  0  0  0
   -0.9465   -1.6104    0.0000 C   0  0  0  0  0  0  0  0  0
   -1.6609   -2.0229    0.0000 C   0  0  0  0  0  0  0  0  0
   -2.3754   -1.6104    0.0000 C   0  0  0  0  0  0  0  0  0
   -3.1600   -1.8653    0.0000 N   0  0  0  0  0  0  0  0  0
   -3.6449   -1.1979    0.0000 C   0  0  0  0  0  0  0  0  0
   -3.1600   -0.5304    0.0000 N   0  0  0  0  0  0  0  0  0
   -2.3754   -0.7854    0.0000 C   0  0  0  0  0  0  0  0  0
   -1.6609   -0.3729    0.0000 C   0  0  0  0  0  0  0  0  0
   -0.9465   -0.7854    0.0000 C   0  0  0  0  0  0  0  0  0
   -4.4699   -1.1979    0.0000 C   0  0  0  0  0  0  0  0  0
   -4.8824   -1.9124    0.0000 O   0  0  0  0  0  0  0  0  0
   -4.8824   -0.4834    0.0000 N   0  0  0  0  0  0  0  0  0
   -5.7074   -0.4834    0.0000 C   0  0  0  0  0  0  0  0  0
   -6.1199    0.2311    0.0000 C   0  0  0  0  0  0  0  0  0
   -5.7074    0.9455    0.0000 N   0  0  0  0  0  0  0  0  0
   -4.8824    0.9455    0.0000 C   0  0  0  0  0  0  0  0  0
   -4.4699    0.2311    0.0000 C   0  0  0  0  0  0  0  0  0
   -6.1199    1.6600    0.0000 C   0  0  0  0  0  0  0  0  0
  1  2  1  0  0  0  0
  2  3  1  0  0  0  0
  2  4  1  0  0  0  0
  2  5  1  0  0  0  0
  5  6  4  0  0  0  0
  5 13  4  0  0  0  0
  6  7  4  0  0  0  0
  7  8  4  0  0  0  0
  7 11  4  0  0  0  0
  8  9  4  0  0  0  0
  9 10  4  0  0  0  0
  9 14  1  0  0  0  0
 10 11  4  0  0  0  0
 11 12  4  0  0  0  0
 12 13  4  0  0  0  0
 14 15  2  0  0  0  0
 14 16  1  0  0  0  0
 16 17  1  0  0  0  0
 16 21  1  0  0  0  0
 17 18  1  0  0  0  0
 18 19  1  0  0  0  0
 19 20  1  0  0  0  0
 19 22  1  0  0  0  0
 20 21  1  0  0  0  0
M  STY  1   1 DAT
M  SAL   1  1  10
M  SDT   1 MRV_IMPLICIT_H                                        
M  SDD   1     0.0000    0.0000    DR    ALL  0       0  
M  SED   1 IMPL_H1
M  END
>  <Name_Molregno>
331624

>  <HISTAMINE H4>
6.37

$$$$
331625
  Marvin  02231216192D 0   1.00000     0.00000     0

 20 22  0  0  0  0  0  0  0  0999 V2000
    6.5443   -0.3390    0.0000 F   0  0  0  0  0  0  0  0  0
    5.8298   -0.7515    0.0000 C   0  0  0  0  0  0  0  0  0
    5.8298   -1.5765    0.0000 C   0  0  0  0  0  0  0  0  0
    5.1153   -1.9890    0.0000 C   0  0  0  0  0  0  0  0  0
    4.4009   -1.5765    0.0000 C   0  0  0  0  0  0  0  0  0
    3.6162   -1.8314    0.0000 N   0  0  0  0  0  0  0  0  0
    3.1313   -1.1640    0.0000 C   0  0  0  0  0  0  0  0  0
    3.6162   -0.4965    0.0000 N   0  0  0  0  0  0  0  0  0
    4.4009   -0.7515    0.0000 C   0  0  0  0  0  0  0  0  0
    5.1153   -0.3390    0.0000 C   0  0  0  0  0  0  0  0  0
    5.1153    0.4860    0.0000 C   0  0  0  0  0  0  0  0  0
    2.3063   -1.1640    0.0000 C   0  0  0  0  0  0  0  0  0
    1.8938   -1.8784    0.0000 O   0  0  0  0  0  0  0  0  0
    1.8938   -0.4495    0.0000 N   0  0  0  0  0  0  0  0  0
    1.0688   -0.4495    0.0000 C   0  0  0  0  0  0  0  0  0
    0.6563    0.2650    0.0000 C   0  0  0  0  0  0  0  0  0
    1.0688    0.9795    0.0000 N   0  0  0  0  0  0  0  0  0
    1.8938    0.9795    0.0000 C   0  0  0  0  0  0  0  0  0
    2.3063    0.2650    0.0000 C   0  0  0  0  0  0  0  0  0
    0.6563    1.6939    0.0000 C   0  0  0  0  0  0  0  0  0
  1  2  1  0  0  0  0
  2  3  4  0  0  0  0
  2 10  4  0  0  0  0
  3  4  4  0  0  0  0
  4  5  4  0  0  0  0
  5  6  4  0  0  0  0
  5  9  4  0  0  0  0
  6  7  4  0  0  0  0
  7  8  4  0  0  0  0
  7 12  1  0  0  0  0
  8  9  4  0  0  0  0
  9 10  4  0  0  0  0
 10 11  1  0  0  0  0
 12 13  2  0  0  0  0
 12 14  1  0  0  0  0
 14 15  1  0  0  0  0
 14 19  1  0  0  0  0
 15 16  1  0  0  0  0
 16 17  1  0  0  0  0
 17 18  1  0  0  0  0
 17 20  1  0  0  0  0
 18 19  1  0  0  0  0
M  STY  1   1 DAT
M  SAL   1  1   6
M  SDT   1 MRV_IMPLICIT_H                                        
M  SDD   1     0.0000    0.0000    DR    ALL  0       0  
M  SED   1 IMPL_H1
M  END
>  <Name_Molregno>
331625

>  <HISTAMINE H4>
8.15

$$$$
331626
  Marvin  02231216192D 0   1.00000     0.00000     0

 20 22  0  0  0  0  0  0  0  0999 V2000
   -0.7183   -2.9445    0.0000 F   0  0  0  0  0  0  0  0  0
   -0.7183   -2.1195    0.0000 C   0  0  0  0  0  0  0  0  0
   -1.4328   -1.7070    0.0000 C   0  0  0  0  0  0  0  0  0
   -2.2174   -1.9620    0.0000 N   0  0  0  0  0  0  0  0  0
   -2.7023   -1.2945    0.0000 C   0  0  0  0  0  0  0  0  0
   -2.2174   -0.6271    0.0000 N   0  0  0  0  0  0  0  0  0
   -1.4328   -0.8820    0.0000 C   0  0  0  0  0  0  0  0  0
   -0.7183   -0.4695    0.0000 C   0  0  0  0  0  0  0  0  0
   -0.0039   -0.8820    0.0000 C   0  0  0  0  0  0  0  0  0
   -0.0039   -1.7070    0.0000 C   0  0  0  0  0  0  0  0  0
    0.7106   -2.1195    0.0000 F   0  0  0  0  0  0  0  0  0
   -3.5273   -1.2945    0.0000 C   0  0  0  0  0  0  0  0  0
   -3.9398   -2.0090    0.0000 O   0  0  0  0  0  0  0  0  0
   -3.9398   -0.5801    0.0000 N   0  0  0  0  0  0  0  0  0
   -4.7648   -0.5801    0.0000 C   0  0  0  0  0  0  0  0  0
   -5.1773    0.1344    0.0000 C   0  0  0  0  0  0  0  0  0
   -4.7648    0.8489    0.0000 N   0  0  0  0  0  0  0  0  0
   -3.9398    0.8489    0.0000 C   0  0  0  0  0  0  0  0  0
   -3.5273    0.1344    0.0000 C   0  0  0  0  0  0  0  0  0
   -5.1773    1.5634    0.0000 C   0  0  0  0  0  0  0  0  0
  1  2  1  0  0  0  0
  2  3  4  0  0  0  0
  2 10  4  0  0  0  0
  3  4  4  0  0  0  0
  3  7  4  0  0  0  0
  4  5  4  0  0  0  0
  5  6  4  0  0  0  0
  5 12  1  0  0  0  0
  6  7  4  0  0  0  0
  7  8  4  0  0  0  0
  8  9  4  0  0  0  0
  9 10  4  0  0  0  0
 10 11  1  0  0  0  0
 12 13  2  0  0  0  0
 12 14  1  0  0  0  0
 14 15  1  0  0  0  0
 14 19  1  0  0  0  0
 15 16  1  0  0  0  0
 16 17  1  0  0  0  0
 17 18  1  0  0  0  0
 17 20  1  0  0  0  0
 18 19  1  0  0  0  0
M  STY  1   1 DAT
M  SAL   1  1   6
M  SDT   1 MRV_IMPLICIT_H                                        
M  SDD   1     0.0000    0.0000    DR    ALL  0       0  
M  SED   1 IMPL_H1
M  END
>  <Name_Molregno>
331626

>  <HISTAMINE H4>
7.31

$$$$
331633
  Marvin  02231216192D 0   1.00000     0.00000     0

 20 22  0  0  0  0  0  0  0  0999 V2000
   -0.7669    0.1447    0.0000 Cl  0  0  0  0  0  0  0  0  0
   -0.7669   -0.6803    0.0000 C   0  0  0  0  0  0  0  0  0
   -0.0524   -1.0928    0.0000 C   0  0  0  0  0  0  0  0  0
   -0.0524   -1.9178    0.0000 C   0  0  0  0  0  0  0  0  0
   -0.7669   -2.3303    0.0000 C   0  0  0  0  0  0  0  0  0
   -1.4813   -1.9178    0.0000 C   0  0  0  0  0  0  0  0  0
   -2.2660   -2.1727    0.0000 N   0  0  0  0  0  0  0  0  0
   -2.7509   -1.5053    0.0000 C   0  0  0  0  0  0  0  0  0
   -2.2660   -0.8379    0.0000 N   0  0  0  0  0  0  0  0  0
   -1.4813   -1.0928    0.0000 C   0  0  0  0  0  0  0  0  0
   -3.5759   -1.5053    0.0000 C   0  0  0  0  0  0  0  0  0
   -3.9884   -2.2198    0.0000 O   0  0  0  0  0  0  0  0  0
   -3.9884   -0.7908    0.0000 N   0  0  0  0  0  0  0  0  0
   -4.8134   -0.7908    0.0000 C   0  0  0  0  0  0  0  0  0
   -5.2259   -0.0764    0.0000 C   0  0  0  0  0  0  0  0  0
   -4.8134    0.6381    0.0000 N   0  0  0  0  0  0  0  0  0
   -3.9884    0.6381    0.0000 C   0  0  0  0  0  0  0  0  0
   -3.5759   -0.0764    0.0000 C   0  0  0  0  0  0  0  0  0
   -5.2259    1.3526    0.0000 C   0  0  0  0  0  0  0  0  0
    0.6621   -2.3303    0.0000 C   0  0  0  0  0  0  0  0  0
  1  2  1  0  0  0  0
  2  3  4  0  0  0  0
  2 10  4  0  0  0  0
  3  4  4  0  0  0  0
  4  5  4  0  0  0  0
  4 20  1  0  0  0  0
  5  6  4  0  0  0  0
  6  7  4  0  0  0  0
  6 10  4  0  0  0  0
  7  8  4  0  0  0  0
  8  9  4  0  0  0  0
  8 11  1  0  0  0  0
  9 10  4  0  0  0  0
 11 12  2  0  0  0  0
 11 13  1  0  0  0  0
 13 14  1  0  0  0  0
 13 18  1  0  0  0  0
 14 15  1  0  0  0  0
 15 16  1  0  0  0  0
 16 17  1  0  0  0  0
 16 19  1  0  0  0  0
 17 18  1  0  0  0  0
M  STY  1   1 DAT
M  SAL   1  1   7
M  SDT   1 MRV_IMPLICIT_H                                        
M  SDD   1     0.0000    0.0000    DR    ALL  0       0  
M  SED   1 IMPL_H1
M  END
>  <Name_Molregno>
331633

>  <HISTAMINE H4>
7.64

$$$$
331634
  Marvin  02231216192D 0   1.00000     0.00000     0

 20 22  0  0  0  0  0  0  0  0999 V2000
    4.3516    0.1447    0.0000 Cl  0  0  0  0  0  0  0  0  0
    4.3516   -0.6803    0.0000 C   0  0  0  0  0  0  0  0  0
    5.0660   -1.0928    0.0000 C   0  0  0  0  0  0  0  0  0
    5.0660   -1.9178    0.0000 C   0  0  0  0  0  0  0  0  0
    5.7805   -2.3303    0.0000 Cl  0  0  0  0  0  0  0  0  0
    4.3516   -2.3303    0.0000 C   0  0  0  0  0  0  0  0  0
    3.6371   -1.9178    0.0000 C   0  0  0  0  0  0  0  0  0
    2.8525   -2.1727    0.0000 N   0  0  0  0  0  0  0  0  0
    2.3675   -1.5053    0.0000 C   0  0  0  0  0  0  0  0  0
    2.8525   -0.8379    0.0000 N   0  0  0  0  0  0  0  0  0
    3.6371   -1.0928    0.0000 C   0  0  0  0  0  0  0  0  0
    1.5425   -1.5053    0.0000 C   0  0  0  0  0  0  0  0  0
    1.1300   -2.2198    0.0000 O   0  0  0  0  0  0  0  0  0
    1.1300   -0.7908    0.0000 N   0  0  0  0  0  0  0  0  0
    0.3050   -0.7908    0.0000 C   0  0  0  0  0  0  0  0  0
   -0.1075   -0.0764    0.0000 C   0  0  0  0  0  0  0  0  0
    0.3050    0.6381    0.0000 N   0  0  0  0  0  0  0  0  0
    1.1300    0.6381    0.0000 C   0  0  0  0  0  0  0  0  0
    1.5425   -0.0764    0.0000 C   0  0  0  0  0  0  0  0  0
   -0.1075    1.3526    0.0000 C   0  0  0  0  0  0  0  0  0
  1  2  1  0  0  0  0
  2  3  4  0  0  0  0
  2 11  4  0  0  0  0
  3  4  4  0  0  0  0
  4  5  1  0  0  0  0
  4  6  4  0  0  0  0
  6  7  4  0  0  0  0
  7  8  4  0  0  0  0
  7 11  4  0  0  0  0
  8  9  4  0  0  0  0
  9 10  4  0  0  0  0
  9 12  1  0  0  0  0
 10 11  4  0  0  0  0
 12 13  2  0  0  0  0
 12 14  1  0  0  0  0
 14 15  1  0  0  0  0
 14 19  1  0  0  0  0
 15 16  1  0  0  0  0
 16 17  1  0  0  0  0
 17 18  1  0  0  0  0
 17 20  1  0  0  0  0
 18 19  1  0  0  0  0
M  STY  1   1 DAT
M  SAL   1  1   8
M  SDT   1 MRV_IMPLICIT_H                                        
M  SDD   1     0.0000    0.0000    DR    ALL  0       0  
M  SED   1 IMPL_H1
M  END
>  <Name_Molregno>
331634

>  <HISTAMINE H4>
6.87

$$$$
331732
  Marvin  02231216192D 0   1.00000     0.00000     0

 20 22  0  0  0  0  0  0  0  0999 V2000
   -0.7669    0.1447    0.0000 Cl  0  0  0  0  0  0  0  0  0
   -0.7669   -0.6803    0.0000 C   0  0  0  0  0  0  0  0  0
   -0.0524   -1.0928    0.0000 C   0  0  0  0  0  0  0  0  0
   -0.0524   -1.9178    0.0000 C   0  0  0  0  0  0  0  0  0
   -0.7669   -2.3303    0.0000 C   0  0  0  0  0  0  0  0  0
   -1.4813   -1.9178    0.0000 C   0  0  0  0  0  0  0  0  0
   -1.4813   -1.0928    0.0000 C   0  0  0  0  0  0  0  0  0
   -2.2660   -0.8379    0.0000 N   0  0  0  0  0  0  0  0  0
   -2.7509   -1.5053    0.0000 C   0  0  0  0  0  0  0  0  0
   -2.2660   -2.1727    0.0000 C   0  0  0  0  0  0  0  0  0
   -3.5759   -1.5053    0.0000 C   0  0  0  0  0  0  0  0  0
   -3.9884   -2.2198    0.0000 O   0  0  0  0  0  0  0  0  0
   -3.9884   -0.7908    0.0000 N   0  0  0  0  0  0  0  0  0
   -4.8134   -0.7908    0.0000 C   0  0  0  0  0  0  0  0  0
   -5.2259   -0.0764    0.0000 C   0  0  0  0  0  0  0  0  0
   -4.8134    0.6381    0.0000 N   0  0  0  0  0  0  0  0  0
   -3.9884    0.6381    0.0000 C   0  0  0  0  0  0  0  0  0
   -3.5759   -0.0764    0.0000 C   0  0  0  0  0  0  0  0  0
   -5.2259    1.3526    0.0000 C   0  0  0  0  0  0  0  0  0
    0.6621   -2.3303    0.0000 C   0  0  0  0  0  0  0  0  0
  1  2  1  0  0  0  0
  2  3  4  0  0  0  0
  2  7  4  0  0  0  0
  3  4  4  0  0  0  0
  4  5  4  0  0  0  0
  4 20  1  0  0  0  0
  5  6  4  0  0  0  0
  6  7  4  0  0  0  0
  6 10  4  0  0  0  0
  7  8  4  0  0  0  0
  8  9  4  0  0  0  0
  9 10  4  0  0  0  0
  9 11  1  0  0  0  0
 11 12  2  0  0  0  0
 11 13  1  0  0  0  0
 13 14  1  0  0  0  0
 13 18  1  0  0  0  0
 14 15  1  0  0  0  0
 15 16  1  0  0  0  0
 16 17  1  0  0  0  0
 16 19  1  0  0  0  0
 17 18  1  0  0  0  0
M  STY  1   1 DAT
M  SAL   1  1   8
M  SDT   1 MRV_IMPLICIT_H                                        
M  SDD   1     0.0000    0.0000    DR    ALL  0       0  
M  SED   1 IMPL_H1
M  END
>  <Name_Molregno>
331732

>  <HISTAMINE H4>
7.48

$$$$
331733
  Marvin  02231216192D 0   1.00000     0.00000     0

 17 19  0  0  0  0  0  0  0  0999 V2000
   -4.4061    0.5006    0.0000 S   0  0  0  0  0  0  0  0  0
   -3.6215    0.2457    0.0000 C   0  0  0  0  0  0  0  0  0
   -2.8369    0.5006    0.0000 N   0  0  0  0  0  0  0  0  0
   -2.3520   -0.1668    0.0000 C   0  0  0  0  0  0  0  0  0
   -2.8369   -0.8343    0.0000 C   0  0  0  0  0  0  0  0  0
   -3.6215   -0.5793    0.0000 C   0  0  0  0  0  0  0  0  0
   -4.4061   -0.8343    0.0000 C   0  0  0  0  0  0  0  0  0
   -4.8910   -0.1668    0.0000 C   0  0  0  0  0  0  0  0  0
   -1.5270   -0.1668    0.0000 C   0  0  0  0  0  0  0  0  0
   -1.1145    0.5476    0.0000 O   0  0  0  0  0  0  0  0  0
   -1.1145   -0.8813    0.0000 N   0  0  0  0  0  0  0  0  0
   -0.2895   -0.8813    0.0000 C   0  0  0  0  0  0  0  0  0
    0.1230   -1.5958    0.0000 C   0  0  0  0  0  0  0  0  0
   -0.2895   -2.3102    0.0000 N   0  0  0  0  0  0  0  0  0
   -1.1145   -2.3102    0.0000 C   0  0  0  0  0  0  0  0  0
   -1.5270   -1.5958    0.0000 C   0  0  0  0  0  0  0  0  0
    0.1230   -3.0247    0.0000 C   0  0  0  0  0  0  0  0  0
  1  2  4  0  0  0  0
  1  8  4  0  0  0  0
  2  3  4  0  0  0  0
  2  6  4  0  0  0  0
  3  4  4  0  0  0  0
  4  5  4  0  0  0  0
  4  9  1  0  0  0  0
  5  6  4  0  0  0  0
  6  7  4  0  0  0  0
  7  8  4  0  0  0  0
  9 10  2  0  0  0  0
  9 11  1  0  0  0  0
 11 12  1  0  0  0  0
 11 16  1  0  0  0  0
 12 13  1  0  0  0  0
 13 14  1  0  0  0  0
 14 15  1  0  0  0  0
 14 17  1  0  0  0  0
 15 16  1  0  0  0  0
M  STY  1   1 DAT
M  SAL   1  1   3
M  SDT   1 MRV_IMPLICIT_H                                        
M  SDD   1     0.0000    0.0000    DR    ALL  0       0  
M  SED   1 IMPL_H1
M  END
>  <Name_Molregno>
331733

>  <HISTAMINE H4>
7.05

$$$$
331734
  Marvin  02231216192D 0   1.00000     0.00000     0

 18 20  0  0  0  0  0  0  0  0999 V2000
   -0.0872    0.0235    0.0000 Cl  0  0  0  0  0  0  0  0  0
    0.7378    0.0235    0.0000 C   0  0  0  0  0  0  0  0  0
    1.2227    0.6909    0.0000 S   0  0  0  0  0  0  0  0  0
    2.0073    0.4360    0.0000 C   0  0  0  0  0  0  0  0  0
    2.7919    0.6909    0.0000 N   0  0  0  0  0  0  0  0  0
    3.2769    0.0235    0.0000 C   0  0  0  0  0  0  0  0  0
    2.7919   -0.6440    0.0000 C   0  0  0  0  0  0  0  0  0
    2.0073   -0.3890    0.0000 C   0  0  0  0  0  0  0  0  0
    1.2227   -0.6440    0.0000 C   0  0  0  0  0  0  0  0  0
    4.1019    0.0235    0.0000 C   0  0  0  0  0  0  0  0  0
    4.5144    0.7380    0.0000 O   0  0  0  0  0  0  0  0  0
    4.5144   -0.6910    0.0000 N   0  0  0  0  0  0  0  0  0
    5.3394   -0.6910    0.0000 C   0  0  0  0  0  0  0  0  0
    5.7519   -1.4055    0.0000 C   0  0  0  0  0  0  0  0  0
    5.3394   -2.1199    0.0000 N   0  0  0  0  0  0  0  0  0
    4.5144   -2.1199    0.0000 C   0  0  0  0  0  0  0  0  0
    4.1019   -1.4055    0.0000 C   0  0  0  0  0  0  0  0  0
    5.7519   -2.8344    0.0000 C   0  0  0  0  0  0  0  0  0
  1  2  1  0  0  0  0
  2  3  4  0  0  0  0
  2  9  4  0  0  0  0
  3  4  4  0  0  0  0
  4  5  4  0  0  0  0
  4  8  4  0  0  0  0
  5  6  4  0  0  0  0
  6  7  4  0  0  0  0
  6 10  1  0  0  0  0
  7  8  4  0  0  0  0
  8  9  4  0  0  0  0
 10 11  2  0  0  0  0
 10 12  1  0  0  0  0
 12 13  1  0  0  0  0
 12 17  1  0  0  0  0
 13 14  1  0  0  0  0
 14 15  1  0  0  0  0
 15 16  1  0  0  0  0
 15 18  1  0  0  0  0
 16 17  1  0  0  0  0
M  STY  1   1 DAT
M  SAL   1  1   5
M  SDT   1 MRV_IMPLICIT_H                                        
M  SDD   1     0.0000    0.0000    DR    ALL  0       0  
M  SED   1 IMPL_H1
M  END
>  <Name_Molregno>
331734

>  <HISTAMINE H4>
7.6

$$$$
331744
  Marvin  02231216192D 0   1.00000     0.00000     0

 17 19  0  0  0  0  0  0  0  0999 V2000
   -4.4061    0.5006    0.0000 S   0  0  0  0  0  0  0  0  0
   -3.6215    0.2457    0.0000 C   0  0  0  0  0  0  0  0  0
   -2.8369    0.5006    0.0000 C   0  0  0  0  0  0  0  0  0
   -2.3520   -0.1668    0.0000 C   0  0  0  0  0  0  0  0  0
   -2.8369   -0.8343    0.0000 N   0  0  0  0  0  0  0  0  0
   -3.6215   -0.5793    0.0000 C   0  0  0  0  0  0  0  0  0
   -4.4061   -0.8343    0.0000 C   0  0  0  0  0  0  0  0  0
   -4.8910   -0.1668    0.0000 C   0  0  0  0  0  0  0  0  0
   -1.5270   -0.1668    0.0000 C   0  0  0  0  0  0  0  0  0
   -1.1145    0.5476    0.0000 O   0  0  0  0  0  0  0  0  0
   -1.1145   -0.8813    0.0000 N   0  0  0  0  0  0  0  0  0
   -0.2895   -0.8813    0.0000 C   0  0  0  0  0  0  0  0  0
    0.1230   -1.5958    0.0000 C   0  0  0  0  0  0  0  0  0
   -0.2895   -2.3102    0.0000 N   0  0  0  0  0  0  0  0  0
   -1.1145   -2.3102    0.0000 C   0  0  0  0  0  0  0  0  0
   -1.5270   -1.5958    0.0000 C   0  0  0  0  0  0  0  0  0
    0.1230   -3.0247    0.0000 C   0  0  0  0  0  0  0  0  0
  1  2  4  0  0  0  0
  1  8  4  0  0  0  0
  2  3  4  0  0  0  0
  2  6  4  0  0  0  0
  3  4  4  0  0  0  0
  4  5  4  0  0  0  0
  4  9  1  0  0  0  0
  5  6  4  0  0  0  0
  6  7  4  0  0  0  0
  7  8  4  0  0  0  0
  9 10  2  0  0  0  0
  9 11  1  0  0  0  0
 11 12  1  0  0  0  0
 11 16  1  0  0  0  0
 12 13  1  0  0  0  0
 13 14  1  0  0  0  0
 14 15  1  0  0  0  0
 14 17  1  0  0  0  0
 15 16  1  0  0  0  0
M  STY  1   1 DAT
M  SAL   1  1   5
M  SDT   1 MRV_IMPLICIT_H                                        
M  SDD   1     0.0000    0.0000    DR    ALL  0       0  
M  SED   1 IMPL_H1
M  END
>  <Name_Molregno>
331744

>  <HISTAMINE H4>
7.05

$$$$
331745
  Marvin  02231216192D 0   1.00000     0.00000     0

 18 20  0  0  0  0  0  0  0  0999 V2000
   -0.0872    0.0235    0.0000 Cl  0  0  0  0  0  0  0  0  0
    0.7378    0.0235    0.0000 C   0  0  0  0  0  0  0  0  0
    1.2227    0.6909    0.0000 S   0  0  0  0  0  0  0  0  0
    2.0073    0.4360    0.0000 C   0  0  0  0  0  0  0  0  0
    2.7919    0.6909    0.0000 C   0  0  0  0  0  0  0  0  0
    3.2769    0.0235    0.0000 C   0  0  0  0  0  0  0  0  0
    2.7919   -0.6440    0.0000 N   0  0  0  0  0  0  0  0  0
    2.0073   -0.3890    0.0000 C   0  0  0  0  0  0  0  0  0
    1.2227   -0.6440    0.0000 C   0  0  0  0  0  0  0  0  0
    4.1019    0.0235    0.0000 C   0  0  0  0  0  0  0  0  0
    4.5144    0.7380    0.0000 O   0  0  0  0  0  0  0  0  0
    4.5144   -0.6910    0.0000 N   0  0  0  0  0  0  0  0  0
    5.3394   -0.6910    0.0000 C   0  0  0  0  0  0  0  0  0
    5.7519   -1.4055    0.0000 C   0  0  0  0  0  0  0  0  0
    5.3394   -2.1199    0.0000 N   0  0  0  0  0  0  0  0  0
    4.5144   -2.1199    0.0000 C   0  0  0  0  0  0  0  0  0
    4.1019   -1.4055    0.0000 C   0  0  0  0  0  0  0  0  0
    5.7519   -2.8344    0.0000 C   0  0  0  0  0  0  0  0  0
  1  2  1  0  0  0  0
  2  3  4  0  0  0  0
  2  9  4  0  0  0  0
  3  4  4  0  0  0  0
  4  5  4  0  0  0  0
  4  8  4  0  0  0  0
  5  6  4  0  0  0  0
  6  7  4  0  0  0  0
  6 10  1  0  0  0  0
  7  8  4  0  0  0  0
  8  9  4  0  0  0  0
 10 11  2  0  0  0  0
 10 12  1  0  0  0  0
 12 13  1  0  0  0  0
 12 17  1  0  0  0  0
 13 14  1  0  0  0  0
 14 15  1  0  0  0  0
 15 16  1  0  0  0  0
 15 18  1  0  0  0  0
 16 17  1  0  0  0  0
M  STY  1   1 DAT
M  SAL   1  1   7
M  SDT   1 MRV_IMPLICIT_H                                        
M  SDD   1     0.0000    0.0000    DR    ALL  0       0  
M  SED   1 IMPL_H1
M  END
>  <Name_Molregno>
331745

>  <HISTAMINE H4>
7.4

$$$$
331746
  Marvin  02231216192D 0   1.00000     0.00000     0

 18 20  0  0  0  0  0  0  0  0999 V2000
   -0.7014    1.3722    0.0000 S   0  0  0  0  0  0  0  0  0
   -1.1863    2.0397    0.0000 C   0  0  0  0  0  0  0  0  0
   -0.7014    2.7071    0.0000 C   0  0  0  0  0  0  0  0  0
    0.0832    2.4522    0.0000 C   0  0  0  0  0  0  0  0  0
    0.8679    2.7071    0.0000 N   0  0  0  0  0  0  0  0  0
    1.3528    2.0397    0.0000 C   0  0  0  0  0  0  0  0  0
    0.8679    1.3722    0.0000 C   0  0  0  0  0  0  0  0  0
    0.0832    1.6272    0.0000 C   0  0  0  0  0  0  0  0  0
    2.1778    2.0397    0.0000 C   0  0  0  0  0  0  0  0  0
    2.5903    2.7541    0.0000 O   0  0  0  0  0  0  0  0  0
    2.5903    1.3252    0.0000 N   0  0  0  0  0  0  0  0  0
    3.4153    1.3252    0.0000 C   0  0  0  0  0  0  0  0  0
    3.8278    0.6107    0.0000 C   0  0  0  0  0  0  0  0  0
    3.4153   -0.1037    0.0000 N   0  0  0  0  0  0  0  0  0
    2.5903   -0.1037    0.0000 C   0  0  0  0  0  0  0  0  0
    2.1778    0.6107    0.0000 C   0  0  0  0  0  0  0  0  0
    3.8278   -0.8182    0.0000 C   0  0  0  0  0  0  0  0  0
   -0.9563    3.4917    0.0000 C   0  0  0  0  0  0  0  0  0
  1  2  4  0  0  0  0
  1  8  4  0  0  0  0
  2  3  4  0  0  0  0
  3  4  4  0  0  0  0
  3 18  1  0  0  0  0
  4  5  4  0  0  0  0
  4  8  4  0  0  0  0
  5  6  4  0  0  0  0
  6  7  4  0  0  0  0
  6  9  1  0  0  0  0
  7  8  4  0  0  0  0
  9 10  2  0  0  0  0
  9 11  1  0  0  0  0
 11 12  1  0  0  0  0
 11 16  1  0  0  0  0
 12 13  1  0  0  0  0
 13 14  1  0  0  0  0
 14 15  1  0  0  0  0
 14 17  1  0  0  0  0
 15 16  1  0  0  0  0
M  STY  1   1 DAT
M  SAL   1  1   5
M  SDT   1 MRV_IMPLICIT_H                                        
M  SDD   1     0.0000    0.0000    DR    ALL  0       0  
M  SED   1 IMPL_H1
M  END
>  <Name_Molregno>
331746

>  <HISTAMINE H4>
7.68

$$$$
331747
  Marvin  02231216192D 0   1.00000     0.00000     0

 19 21  0  0  0  0  0  0  0  0999 V2000
   -0.0888    0.9844    0.0000 Cl  0  0  0  0  0  0  0  0  0
    0.7362    0.9844    0.0000 C   0  0  0  0  0  0  0  0  0
    1.2211    0.3170    0.0000 S   0  0  0  0  0  0  0  0  0
    2.0057    0.5719    0.0000 C   0  0  0  0  0  0  0  0  0
    2.0057    1.3969    0.0000 C   0  0  0  0  0  0  0  0  0
    2.7903    1.6518    0.0000 N   0  0  0  0  0  0  0  0  0
    3.2753    0.9844    0.0000 C   0  0  0  0  0  0  0  0  0
    2.7903    0.3170    0.0000 C   0  0  0  0  0  0  0  0  0
    4.1003    0.9844    0.0000 C   0  0  0  0  0  0  0  0  0
    4.5128    1.6989    0.0000 O   0  0  0  0  0  0  0  0  0
    4.5128    0.2699    0.0000 N   0  0  0  0  0  0  0  0  0
    5.3378    0.2699    0.0000 C   0  0  0  0  0  0  0  0  0
    5.7503   -0.4445    0.0000 C   0  0  0  0  0  0  0  0  0
    5.3378   -1.1590    0.0000 N   0  0  0  0  0  0  0  0  0
    4.5128   -1.1590    0.0000 C   0  0  0  0  0  0  0  0  0
    4.1003   -0.4445    0.0000 C   0  0  0  0  0  0  0  0  0
    5.7503   -1.8735    0.0000 C   0  0  0  0  0  0  0  0  0
    1.2211    1.6518    0.0000 C   0  0  0  0  0  0  0  0  0
    0.9662    2.4365    0.0000 C   0  0  0  0  0  0  0  0  0
  1  2  1  0  0  0  0
  2  3  4  0  0  0  0
  2 18  4  0  0  0  0
  3  4  4  0  0  0  0
  4  5  4  0  0  0  0
  4  8  4  0  0  0  0
  5  6  4  0  0  0  0
  5 18  4  0  0  0  0
  6  7  4  0  0  0  0
  7  8  4  0  0  0  0
  7  9  1  0  0  0  0
  9 10  2  0  0  0  0
  9 11  1  0  0  0  0
 11 12  1  0  0  0  0
 11 16  1  0  0  0  0
 12 13  1  0  0  0  0
 13 14  1  0  0  0  0
 14 15  1  0  0  0  0
 14 17  1  0  0  0  0
 15 16  1  0  0  0  0
 18 19  1  0  0  0  0
M  STY  1   1 DAT
M  SAL   1  1   6
M  SDT   1 MRV_IMPLICIT_H                                        
M  SDD   1     0.0000    0.0000    DR    ALL  0       0  
M  SED   1 IMPL_H1
M  END
>  <Name_Molregno>
331747

>  <HISTAMINE H4>
8.52

$$$$
331748
  Marvin  02231216192D 0   1.00000     0.00000     0

 18 20  0  0  0  0  0  0  0  0999 V2000
   -0.8102   -0.3538    0.0000 O   0  0  0  0  0  0  0  0  0
   -0.3977   -1.0683    0.0000 C   0  0  0  0  0  0  0  0  0
   -0.8102   -1.7828    0.0000 N   0  0  0  0  0  0  0  0  0
   -0.3977   -2.4972    0.0000 C   0  0  0  0  0  0  0  0  0
   -0.8102   -3.2117    0.0000 C   0  0  0  0  0  0  0  0  0
   -1.6352   -3.2117    0.0000 N   0  0  0  0  0  0  0  0  0
   -2.0477   -2.4972    0.0000 C   0  0  0  0  0  0  0  0  0
   -1.6352   -1.7828    0.0000 C   0  0  0  0  0  0  0  0  0
   -2.0477   -3.9262    0.0000 C   0  0  0  0  0  0  0  0  0
    0.4273   -1.0683    0.0000 C   0  0  0  0  0  0  0  0  0
    0.9122   -1.7357    0.0000 N   0  0  0  0  0  0  0  0  0
    1.6968   -1.4808    0.0000 C   0  0  0  0  0  0  0  0  0
    1.6968   -0.6558    0.0000 C   0  0  0  0  0  0  0  0  0
    0.9122   -0.4009    0.0000 N   0  0  0  0  0  0  0  0  0
    2.4113   -0.2433    0.0000 C   0  0  0  0  0  0  0  0  0
    3.1258   -0.6558    0.0000 C   0  0  0  0  0  0  0  0  0
    3.1258   -1.4808    0.0000 C   0  0  0  0  0  0  0  0  0
    2.4113   -1.8933    0.0000 C   0  0  0  0  0  0  0  0  0
  1  2  2  0  0  0  0
  2  3  1  0  0  0  0
  2 10  1  0  0  0  0
  3  4  1  0  0  0  0
  3  8  1  0  0  0  0
  4  5  1  0  0  0  0
  5  6  1  0  0  0  0
  6  7  1  0  0  0  0
  6  9  1  0  0  0  0
  7  8  1  0  0  0  0
 10 11  4  0  0  0  0
 10 14  4  0  0  0  0
 11 12  4  0  0  0  0
 12 13  4  0  0  0  0
 12 18  4  0  0  0  0
 13 14  4  0  0  0  0
 13 15  4  0  0  0  0
 15 16  4  0  0  0  0
 16 17  4  0  0  0  0
 17 18  4  0  0  0  0
M  STY  1   1 DAT
M  SAL   1  1  11
M  SDT   1 MRV_IMPLICIT_H                                        
M  SDD   1     0.0000    0.0000    DR    ALL  0       0  
M  SED   1 IMPL_H1
M  END
>  <Name_Molregno>
331748

>  <HISTAMINE H4>
7.46

$$$$
331749
  Marvin  02231216192D 0   1.00000     0.00000     0

 19 21  0  0  0  0  0  0  0  0999 V2000
   -1.7459   -0.4258    0.0000 O   0  0  0  0  0  0  0  0  0
   -1.3334   -1.1403    0.0000 C   0  0  0  0  0  0  0  0  0
   -1.7459   -1.8547    0.0000 N   0  0  0  0  0  0  0  0  0
   -1.3334   -2.5692    0.0000 C   0  0  0  0  0  0  0  0  0
   -1.7459   -3.2837    0.0000 C   0  0  0  0  0  0  0  0  0
   -2.5709   -3.2837    0.0000 N   0  0  0  0  0  0  0  0  0
   -2.9834   -2.5692    0.0000 C   0  0  0  0  0  0  0  0  0
   -2.5709   -1.8547    0.0000 C   0  0  0  0  0  0  0  0  0
   -2.9834   -3.9982    0.0000 C   0  0  0  0  0  0  0  0  0
   -0.5084   -1.1403    0.0000 C   0  0  0  0  0  0  0  0  0
   -0.0235   -1.8077    0.0000 N   0  0  0  0  0  0  0  0  0
    0.7611   -1.5528    0.0000 C   0  0  0  0  0  0  0  0  0
    0.7611   -0.7278    0.0000 C   0  0  0  0  0  0  0  0  0
   -0.0235   -0.4728    0.0000 N   0  0  0  0  0  0  0  0  0
    1.4756   -0.3153    0.0000 C   0  0  0  0  0  0  0  0  0
    2.1901   -0.7278    0.0000 C   0  0  0  0  0  0  0  0  0
    2.1901   -1.5528    0.0000 C   0  0  0  0  0  0  0  0  0
    1.4756   -1.9653    0.0000 C   0  0  0  0  0  0  0  0  0
    1.4756    0.5097    0.0000 C   0  0  0  0  0  0  0  0  0
  1  2  2  0  0  0  0
  2  3  1  0  0  0  0
  2 10  1  0  0  0  0
  3  4  1  0  0  0  0
  3  8  1  0  0  0  0
  4  5  1  0  0  0  0
  5  6  1  0  0  0  0
  6  7  1  0  0  0  0
  6  9  1  0  0  0  0
  7  8  1  0  0  0  0
 10 11  4  0  0  0  0
 10 14  4  0  0  0  0
 11 12  4  0  0  0  0
 12 13  4  0  0  0  0
 12 18  4  0  0  0  0
 13 14  4  0  0  0  0
 13 15  4  0  0  0  0
 15 16  4  0  0  0  0
 15 19  1  0  0  0  0
 16 17  4  0  0  0  0
 17 18  4  0  0  0  0
M  STY  1   1 DAT
M  SAL   1  1  11
M  SDT   1 MRV_IMPLICIT_H                                        
M  SDD   1     0.0000    0.0000    DR    ALL  0       0  
M  SED   1 IMPL_H1
M  END
>  <Name_Molregno>
331749

>  <HISTAMINE H4>
7.52

$$$$
331760
  Marvin  02231216192D 0   1.00000     0.00000     0

 22 24  0  0  0  0  0  0  0  0999 V2000
    0.4825   -2.4354    0.0000 F   0  0  0  0  0  0  0  0  0
   -0.2320   -2.0229    0.0000 C   0  0  0  0  0  0  0  0  0
    0.1805   -1.3084    0.0000 F   0  0  0  0  0  0  0  0  0
   -0.6445   -2.7374    0.0000 F   0  0  0  0  0  0  0  0  0
   -0.9465   -1.6104    0.0000 C   0  0  0  0  0  0  0  0  0
   -1.6609   -2.0229    0.0000 C   0  0  0  0  0  0  0  0  0
   -2.3754   -1.6104    0.0000 C   0  0  0  0  0  0  0  0  0
   -3.1600   -1.8653    0.0000 C   0  0  0  0  0  0  0  0  0
   -3.6449   -1.1979    0.0000 C   0  0  0  0  0  0  0  0  0
   -3.1600   -0.5304    0.0000 N   0  0  0  0  0  0  0  0  0
   -2.3754   -0.7854    0.0000 C   0  0  0  0  0  0  0  0  0
   -1.6609   -0.3729    0.0000 C   0  0  0  0  0  0  0  0  0
   -0.9465   -0.7854    0.0000 C   0  0  0  0  0  0  0  0  0
   -4.4699   -1.1979    0.0000 C   0  0  0  0  0  0  0  0  0
   -4.8824   -1.9124    0.0000 O   0  0  0  0  0  0  0  0  0
   -4.8824   -0.4834    0.0000 N   0  0  0  0  0  0  0  0  0
   -5.7074   -0.4834    0.0000 C   0  0  0  0  0  0  0  0  0
   -6.1199    0.2311    0.0000 C   0  0  0  0  0  0  0  0  0
   -5.7074    0.9455    0.0000 N   0  0  0  0  0  0  0  0  0
   -4.8824    0.9455    0.0000 C   0  0  0  0  0  0  0  0  0
   -4.4699    0.2311    0.0000 C   0  0  0  0  0  0  0  0  0
   -6.1199    1.6600    0.0000 C   0  0  0  0  0  0  0  0  0
  1  2  1  0  0  0  0
  2  3  1  0  0  0  0
  2  4  1  0  0  0  0
  2  5  1  0  0  0  0
  5  6  4  0  0  0  0
  5 13  4  0  0  0  0
  6  7  4  0  0  0  0
  7  8  4  0  0  0  0
  7 11  4  0  0  0  0
  8  9  4  0  0  0  0
  9 10  4  0  0  0  0
  9 14  1  0  0  0  0
 10 11  4  0  0  0  0
 11 12  4  0  0  0  0
 12 13  4  0  0  0  0
 14 15  2  0  0  0  0
 14 16  1  0  0  0  0
 16 17  1  0  0  0  0
 16 21  1  0  0  0  0
 17 18  1  0  0  0  0
 18 19  1  0  0  0  0
 19 20  1  0  0  0  0
 19 22  1  0  0  0  0
 20 21  1  0  0  0  0
M  STY  1   1 DAT
M  SAL   1  1  10
M  SDT   1 MRV_IMPLICIT_H                                        
M  SDD   1     0.0000    0.0000    DR    ALL  0       0  
M  SED   1 IMPL_H1
M  END
>  <Name_Molregno>
331760

>  <HISTAMINE H4>
6.39

$$$$
335202
  Marvin  02231216192D 0   1.00000     0.00000     0

 31 34  0  0  0  0  0  0  0  0999 V2000
   -5.3316    5.4643    0.0000 O   0  0  0  0  0  0  0  0  0
   -6.0461    5.8768    0.0000 C   0  0  0  0  0  0  0  0  0
   -4.6172    5.8768    0.0000 C   0  0  0  0  0  0  0  0  0
   -3.9027    5.4643    0.0000 C   0  0  0  0  0  0  0  0  0
   -3.1882    5.8768    0.0000 C   0  0  0  0  0  0  0  0  0
   -3.1882    6.7018    0.0000 C   0  0  0  0  0  0  0  0  0
   -3.9027    7.1143    0.0000 C   0  0  0  0  0  0  0  0  0
   -4.6172    6.7018    0.0000 C   0  0  0  0  0  0  0  0  0
   -2.4737    7.1143    0.0000 C   0  0  0  0  0  0  0  0  0
   -1.7593    6.7018    0.0000 C   0  0  0  0  0  0  0  0  0
   -1.7593    5.8768    0.0000 C   0  0  0  0  0  0  0  0  0
   -2.4737    5.4643    0.0000 C   0  0  0  0  0  0  0  0  0
   -2.4737    4.6393    0.0000 N   0  0  0  0  0  0  0  0  0
   -1.7593    4.2268    0.0000 C   0  0  0  0  0  0  0  0  0
   -1.7593    3.4018    0.0000 C   0  0  0  0  0  0  0  0  0
   -2.4737    2.9893    0.0000 N   0  0  0  0  0  0  0  0  0
   -3.1882    3.4018    0.0000 C   0  0  0  0  0  0  0  0  0
   -3.1882    4.2268    0.0000 C   0  0  0  0  0  0  0  0  0
   -2.4737    2.1643    0.0000 C   0  0  0  0  0  0  0  0  0
   -1.7593    1.7518    0.0000 C   0  0  0  0  0  0  0  0  0
   -1.7593    0.9268    0.0000 C   0  0  0  0  0  0  0  0  0
   -1.0448    0.5143    0.0000 C   0  0  0  0  0  0  0  0  0
   -1.0448   -0.3107    0.0000 N   0  0  0  0  0  0  0  0  0
   -0.3303   -0.7232    0.0000 N   0  0  0  0  0  0  0  0  0
   -0.3303   -1.5482    0.0000 C   0  0  0  0  0  0  0  0  0
   -1.0448   -1.9607    0.0000 C   0  0  0  0  0  0  0  0  0
   -1.0448   -2.7857    0.0000 O   0  0  0  0  0  0  0  0  0
   -1.7593   -1.5482    0.0000 N   0  0  0  0  0  0  0  0  0
   -2.4737   -1.9607    0.0000 C   0  0  0  0  0  0  0  0  0
   -1.7593   -0.7232    0.0000 C   0  0  0  0  0  0  0  0  0
   -2.4737   -0.3107    0.0000 O   0  0  0  0  0  0  0  0  0
  1  2  1  0  0  0  0
  1  3  1  0  0  0  0
  3  4  4  0  0  0  0
  3  8  4  0  0  0  0
  4  5  4  0  0  0  0
  5  6  4  0  0  0  0
  5 12  4  0  0  0  0
  6  7  4  0  0  0  0
  6  9  4  0  0  0  0
  7  8  4  0  0  0  0
  9 10  4  0  0  0  0
 10 11  4  0  0  0  0
 11 12  4  0  0  0  0
 12 13  1  0  0  0  0
 13 14  1  0  0  0  0
 13 18  1  0  0  0  0
 14 15  1  0  0  0  0
 15 16  1  0  0  0  0
 16 17  1  0  0  0  0
 16 19  1  0  0  0  0
 17 18  1  0  0  0  0
 19 20  1  0  0  0  0
 20 21  1  0  0  0  0
 21 22  1  0  0  0  0
 22 23  1  0  0  0  0
 23 24  1  0  0  0  0
 23 30  1  0  0  0  0
 24 25  2  0  0  0  0
 25 26  1  0  0  0  0
 26 27  2  0  0  0  0
 26 28  1  0  0  0  0
 28 29  1  0  0  0  0
 28 30  1  0  0  0  0
 30 31  2  0  0  0  0
M  END
>  <Name_Molregno>
335202

>  <5-HT1A>
8.87

>  <5-HT2A>
7.38

>  <5-HT2C>
7

>  <5-HT3>
5

>  <5-HT5>
6.64

>  <5-HT6>
6.92

>  <5-HT7>
8.04

>  <Alpha-2A>
5.99

>  <Alpha-2B>
6.5

>  <Alpha-2C>
7.63

>  <Beta-1>
6.32

>  <Beta-2>
7.22

>  <DOPAMINE D1>
5.13

>  <DOPAMINE D2>
7.66

>  <DOPAMINE D3>
7.2

>  <DOPAMINE D4>
8.07

>  <DOPAMINE D5>
5

>  <Dopamine transporter>
6.39

>  <HISTAMINE H1>
6.82

>  <HISTAMINE H2>
6.52

>  <HISTAMINE H3>
5

>  <HISTAMINE H4>
5

>  <Norepinephrine transporter>
5.16

>  <Serotonin transporter>
5.21

$$$$
342906
  Marvin  02231216192D 0   1.00000     0.00000     0

 15 15  0  0  0  0  0  0  0  0999 V2000
   -0.0708   -0.4440    0.0000 N   0  0  0  0  0  0  0  0  0
    0.4812    0.1691    0.0000 C   0  0  0  0  0  0  0  0  0
    1.2349   -0.1664    0.0000 C   0  0  0  0  0  0  0  0  0
    1.1486   -0.9869    0.0000 N   0  0  0  0  0  0  0  0  0
    0.3417   -1.1584    0.0000 C   0  0  0  0  0  0  0  0  0
    1.9493    0.2461    0.0000 C   0  0  0  0  0  0  0  0  0
    2.6638   -0.1664    0.0000 C   0  0  0  0  0  0  0  0  0
    3.3783    0.2461    0.0000 C   0  0  0  0  0  0  0  0  0
    4.0928   -0.1664    0.0000 C   0  0  0  0  0  0  0  0  0
    4.8072    0.2461    0.0000 C   0  0  0  0  0  0  0  0  0
    5.5217   -0.1664    0.0000 N   0  0  0  0  0  0  0  0  0
    6.2362    0.2461    0.0000 C   0  0  0  0  0  0  0  0  0
    6.9506    0.6586    0.0000 C   0  0  0  0  0  0  0  0  0
    6.6487   -0.4684    0.0000 C   0  0  0  0  0  0  0  0  0
    5.8237    0.9605    0.0000 C   0  0  0  0  0  0  0  0  0
  1  2  4  0  0  0  0
  1  5  4  0  0  0  0
  2  3  4  0  0  0  0
  3  4  4  0  0  0  0
  3  6  1  0  0  0  0
  4  5  4  0  0  0  0
  6  7  1  0  0  0  0
  7  8  1  0  0  0  0
  8  9  1  0  0  0  0
  9 10  1  0  0  0  0
 10 11  1  0  0  0  0
 11 12  1  0  0  0  0
 12 13  1  0  0  0  0
 12 14  1  0  0  0  0
 12 15  1  0  0  0  0
M  STY  1   1 DAT
M  SAL   1  1   1
M  SDT   1 MRV_IMPLICIT_H                                        
M  SDD   1     0.0000    0.0000    DR    ALL  0       0  
M  SED   1 IMPL_H1
M  END
>  <Name_Molregno>
342906

>  <HISTAMINE H3>
7.4

>  <HISTAMINE H4>
7.2

$$$$
342907
  Marvin  02231216192D 0   1.00000     0.00000     0

 16 17  0  0  0  0  0  0  0  0999 V2000
    0.3428    1.2703    0.0000 N   0  0  0  0  0  0  0  0  0
    1.1498    1.0988    0.0000 C   0  0  0  0  0  0  0  0  0
    1.2360    0.2783    0.0000 C   0  0  0  0  0  0  0  0  0
    0.4823   -0.0573    0.0000 N   0  0  0  0  0  0  0  0  0
   -0.0697    0.5558    0.0000 C   0  0  0  0  0  0  0  0  0
    1.9505   -0.1342    0.0000 C   0  0  0  0  0  0  0  0  0
    2.6649    0.2783    0.0000 C   0  0  0  0  0  0  0  0  0
    3.3794   -0.1342    0.0000 C   0  0  0  0  0  0  0  0  0
    4.0939    0.2783    0.0000 C   0  0  0  0  0  0  0  0  0
    4.8083   -0.1342    0.0000 C   0  0  0  0  0  0  0  0  0
    5.5228    0.2783    0.0000 N   0  0  0  0  0  0  0  0  0
    6.2373   -0.1342    0.0000 C   0  0  0  0  0  0  0  0  0
    6.9910    0.2014    0.0000 C   0  0  0  0  0  0  0  0  0
    7.5430   -0.4117    0.0000 C   0  0  0  0  0  0  0  0  0
    7.1305   -1.1262    0.0000 C   0  0  0  0  0  0  0  0  0
    6.3235   -0.9547    0.0000 C   0  0  0  0  0  0  0  0  0
  1  2  4  0  0  0  0
  1  5  4  0  0  0  0
  2  3  4  0  0  0  0
  3  4  4  0  0  0  0
  3  6  1  0  0  0  0
  4  5  4  0  0  0  0
  6  7  1  0  0  0  0
  7  8  1  0  0  0  0
  8  9  1  0  0  0  0
  9 10  1  0  0  0  0
 10 11  1  0  0  0  0
 11 12  1  0  0  0  0
 12 13  1  0  0  0  0
 12 16  1  0  0  0  0
 13 14  1  0  0  0  0
 14 15  1  0  0  0  0
 15 16  1  0  0  0  0
M  STY  1   1 DAT
M  SAL   1  1   1
M  SDT   1 MRV_IMPLICIT_H                                        
M  SDD   1     0.0000    0.0000    DR    ALL  0       0  
M  SED   1 IMPL_H1
M  END
>  <Name_Molregno>
342907

>  <HISTAMINE H3>
8.4

>  <HISTAMINE H4>
7.4

$$$$
342995
  Marvin  02231216192D 0   1.00000     0.00000     0

 16 17  0  0  0  0  0  0  0  0999 V2000
   -6.8107   -0.9314    0.0000 N   0  0  0  0  0  0  0  0  0
   -6.2586   -0.3183    0.0000 C   0  0  0  0  0  0  0  0  0
   -5.5050   -0.6538    0.0000 C   0  0  0  0  0  0  0  0  0
   -5.5912   -1.4743    0.0000 N   0  0  0  0  0  0  0  0  0
   -6.3982   -1.6458    0.0000 C   0  0  0  0  0  0  0  0  0
   -4.7905   -0.2413    0.0000 C   0  0  0  0  0  0  0  0  0
   -4.0760   -0.6538    0.0000 C   0  0  0  0  0  0  0  0  0
   -3.3616   -0.2413    0.0000 C   0  0  0  0  0  0  0  0  0
   -2.6471   -0.6538    0.0000 C   0  0  0  0  0  0  0  0  0
   -1.9326   -0.2413    0.0000 C   0  0  0  0  0  0  0  0  0
   -1.2181   -0.6538    0.0000 N   0  0  0  0  0  0  0  0  0
   -0.5037   -0.2413    0.0000 C   0  0  0  0  0  0  0  0  0
    0.2108   -0.6538    0.0000 C   0  0  0  0  0  0  0  0  0
    0.2108   -1.4788    0.0000 C   0  0  0  0  0  0  0  0  0
   -0.5037   -1.8913    0.0000 C   0  0  0  0  0  0  0  0  0
   -1.2181   -1.4788    0.0000 C   0  0  0  0  0  0  0  0  0
  1  2  4  0  0  0  0
  1  5  4  0  0  0  0
  2  3  4  0  0  0  0
  3  4  4  0  0  0  0
  3  6  1  0  0  0  0
  4  5  4  0  0  0  0
  6  7  1  0  0  0  0
  7  8  1  0  0  0  0
  8  9  1  0  0  0  0
  9 10  1  0  0  0  0
 10 11  1  0  0  0  0
 11 12  1  0  0  0  0
 11 16  1  0  0  0  0
 12 13  1  0  0  0  0
 13 14  1  0  0  0  0
 14 15  1  0  0  0  0
 15 16  1  0  0  0  0
M  STY  1   1 DAT
M  SAL   1  1   1
M  SDT   1 MRV_IMPLICIT_H                                        
M  SDD   1     0.0000    0.0000    DR    ALL  0       0  
M  SED   1 IMPL_H1
M  END
>  <Name_Molregno>
342995

>  <HISTAMINE H3>
8.1

>  <HISTAMINE H4>
6.5

$$$$
342996
  Marvin  02231216192D 0   1.00000     0.00000     0

 17 18  0  0  0  0  0  0  0  0999 V2000
   -7.1934    0.8102    0.0000 N   0  0  0  0  0  0  0  0  0
   -6.6413    1.4233    0.0000 C   0  0  0  0  0  0  0  0  0
   -5.8876    1.0877    0.0000 C   0  0  0  0  0  0  0  0  0
   -5.9739    0.2673    0.0000 N   0  0  0  0  0  0  0  0  0
   -6.7809    0.0957    0.0000 C   0  0  0  0  0  0  0  0  0
   -5.1732    1.5002    0.0000 C   0  0  0  0  0  0  0  0  0
   -4.4587    1.0877    0.0000 C   0  0  0  0  0  0  0  0  0
   -3.7442    1.5002    0.0000 C   0  0  0  0  0  0  0  0  0
   -3.0298    1.0877    0.0000 C   0  0  0  0  0  0  0  0  0
   -2.3153    1.5002    0.0000 C   0  0  0  0  0  0  0  0  0
   -1.6008    1.0877    0.0000 N   0  0  0  0  0  0  0  0  0
   -0.9192    1.5525    0.0000 C   0  0  0  0  0  0  0  0  0
   -0.1308    1.3093    0.0000 C   0  0  0  0  0  0  0  0  0
    0.1706    0.5413    0.0000 C   0  0  0  0  0  0  0  0  0
   -0.2419   -0.1731    0.0000 C   0  0  0  0  0  0  0  0  0
   -1.0577   -0.2961    0.0000 C   0  0  0  0  0  0  0  0  0
   -1.6625    0.2650    0.0000 C   0  0  0  0  0  0  0  0  0
  1  2  4  0  0  0  0
  1  5  4  0  0  0  0
  2  3  4  0  0  0  0
  3  4  4  0  0  0  0
  3  6  1  0  0  0  0
  4  5  4  0  0  0  0
  6  7  1  0  0  0  0
  7  8  1  0  0  0  0
  8  9  1  0  0  0  0
  9 10  1  0  0  0  0
 10 11  1  0  0  0  0
 11 12  1  0  0  0  0
 11 17  1  0  0  0  0
 12 13  1  0  0  0  0
 13 14  1  0  0  0  0
 14 15  1  0  0  0  0
 15 16  1  0  0  0  0
 16 17  1  0  0  0  0
M  STY  1   1 DAT
M  SAL   1  1   1
M  SDT   1 MRV_IMPLICIT_H                                        
M  SDD   1     0.0000    0.0000    DR    ALL  0       0  
M  SED   1 IMPL_H1
M  END
>  <Name_Molregno>
342996

>  <HISTAMINE H3>
7.8

>  <HISTAMINE H4>
6.8

$$$$
343039
  Marvin  02231216192D 0   1.00000     0.00000     0

 17 18  0  0  0  0  0  0  0  0999 V2000
   -7.2994    0.7019    0.0000 N   0  0  0  0  0  0  0  0  0
   -6.4924    0.5303    0.0000 C   0  0  0  0  0  0  0  0  0
   -6.4062   -0.2901    0.0000 C   0  0  0  0  0  0  0  0  0
   -7.1599   -0.6257    0.0000 N   0  0  0  0  0  0  0  0  0
   -7.7119   -0.0126    0.0000 C   0  0  0  0  0  0  0  0  0
   -5.6917   -0.7026    0.0000 C   0  0  0  0  0  0  0  0  0
   -4.9772   -0.2901    0.0000 C   0  0  0  0  0  0  0  0  0
   -4.2628   -0.7026    0.0000 C   0  0  0  0  0  0  0  0  0
   -3.5483   -0.2901    0.0000 C   0  0  0  0  0  0  0  0  0
   -2.8338   -0.7026    0.0000 C   0  0  0  0  0  0  0  0  0
   -2.1194   -0.2901    0.0000 N   0  0  0  0  0  0  0  0  0
   -1.4049   -0.7026    0.0000 C   0  0  0  0  0  0  0  0  0
   -0.6904   -0.2901    0.0000 C   0  0  0  0  0  0  0  0  0
    0.0241   -0.7026    0.0000 C   0  0  0  0  0  0  0  0  0
    0.0241   -1.5276    0.0000 C   0  0  0  0  0  0  0  0  0
   -0.6904   -1.9401    0.0000 C   0  0  0  0  0  0  0  0  0
   -1.4049   -1.5276    0.0000 C   0  0  0  0  0  0  0  0  0
  1  2  4  0  0  0  0
  1  5  4  0  0  0  0
  2  3  4  0  0  0  0
  3  4  4  0  0  0  0
  3  6  1  0  0  0  0
  4  5  4  0  0  0  0
  6  7  1  0  0  0  0
  7  8  1  0  0  0  0
  8  9  1  0  0  0  0
  9 10  1  0  0  0  0
 10 11  1  0  0  0  0
 11 12  1  0  0  0  0
 12 13  1  0  0  0  0
 12 17  1  0  0  0  0
 13 14  1  0  0  0  0
 14 15  1  0  0  0  0
 15 16  1  0  0  0  0
 16 17  1  0  0  0  0
M  STY  1   1 DAT
M  SAL   1  1   1
M  SDT   1 MRV_IMPLICIT_H                                        
M  SDD   1     0.0000    0.0000    DR    ALL  0       0  
M  SED   1 IMPL_H1
M  END
>  <Name_Molregno>
343039

>  <HISTAMINE H3>
8

>  <HISTAMINE H4>
7.4

$$$$
343040
  Marvin  02231216192D 0   1.00000     0.00000     0

 18 19  0  0  0  0  0  0  0  0999 V2000
   -7.9654    0.8660    0.0000 N   0  0  0  0  0  0  0  0  0
   -7.1584    0.6944    0.0000 C   0  0  0  0  0  0  0  0  0
   -7.0722   -0.1260    0.0000 C   0  0  0  0  0  0  0  0  0
   -7.8258   -0.4616    0.0000 N   0  0  0  0  0  0  0  0  0
   -8.3779    0.1515    0.0000 C   0  0  0  0  0  0  0  0  0
   -6.3577   -0.5385    0.0000 C   0  0  0  0  0  0  0  0  0
   -5.6432   -0.1260    0.0000 C   0  0  0  0  0  0  0  0  0
   -4.9287   -0.5385    0.0000 C   0  0  0  0  0  0  0  0  0
   -4.2143   -0.1260    0.0000 C   0  0  0  0  0  0  0  0  0
   -3.4998   -0.5385    0.0000 C   0  0  0  0  0  0  0  0  0
   -2.7853   -0.1260    0.0000 N   0  0  0  0  0  0  0  0  0
   -2.0709   -0.5385    0.0000 C   0  0  0  0  0  0  0  0  0
   -1.3892   -0.0738    0.0000 C   0  0  0  0  0  0  0  0  0
   -0.6009   -0.3170    0.0000 C   0  0  0  0  0  0  0  0  0
   -0.2995   -1.0849    0.0000 C   0  0  0  0  0  0  0  0  0
   -0.7120   -1.7994    0.0000 C   0  0  0  0  0  0  0  0  0
   -1.5277   -1.9224    0.0000 C   0  0  0  0  0  0  0  0  0
   -2.1325   -1.3612    0.0000 C   0  0  0  0  0  0  0  0  0
  1  2  4  0  0  0  0
  1  5  4  0  0  0  0
  2  3  4  0  0  0  0
  3  4  4  0  0  0  0
  3  6  1  0  0  0  0
  4  5  4  0  0  0  0
  6  7  1  0  0  0  0
  7  8  1  0  0  0  0
  8  9  1  0  0  0  0
  9 10  1  0  0  0  0
 10 11  1  0  0  0  0
 11 12  1  0  0  0  0
 12 13  1  0  0  0  0
 12 18  1  0  0  0  0
 13 14  1  0  0  0  0
 14 15  1  0  0  0  0
 15 16  1  0  0  0  0
 16 17  1  0  0  0  0
 17 18  1  0  0  0  0
M  STY  1   1 DAT
M  SAL   1  1   1
M  SDT   1 MRV_IMPLICIT_H                                        
M  SDD   1     0.0000    0.0000    DR    ALL  0       0  
M  SED   1 IMPL_H1
M  END
>  <Name_Molregno>
343040

>  <HISTAMINE H3>
8.5

>  <HISTAMINE H4>
7.3

$$$$
343045
  Marvin  02231216192D 0   1.00000     0.00000     0

 19 20  0  0  0  0  0  0  0  0999 V2000
   -0.0075   -1.2334    0.0000 Cl  0  0  0  0  0  0  0  0  0
    0.7069   -0.8209    0.0000 C   0  0  0  0  0  0  0  0  0
    0.7069    0.0041    0.0000 C   0  0  0  0  0  0  0  0  0
    1.4214    0.4166    0.0000 C   0  0  0  0  0  0  0  0  0
    2.1359    0.0041    0.0000 C   0  0  0  0  0  0  0  0  0
    2.1359   -0.8209    0.0000 C   0  0  0  0  0  0  0  0  0
    1.4214   -1.2334    0.0000 C   0  0  0  0  0  0  0  0  0
    2.8503    0.4166    0.0000 C   0  0  0  0  0  0  0  0  0
    3.5648    0.0041    0.0000 N   0  0  0  0  0  0  0  0  0
    4.2793    0.4166    0.0000 C   0  0  0  0  0  0  0  0  0
    4.9938    0.0041    0.0000 C   0  0  0  0  0  0  0  0  0
    5.7082    0.4166    0.0000 C   0  0  0  0  0  0  0  0  0
    6.4227    0.0041    0.0000 C   0  0  0  0  0  0  0  0  0
    7.1372    0.4166    0.0000 C   0  0  0  0  0  0  0  0  0
    7.8516    0.0041    0.0000 C   0  0  0  0  0  0  0  0  0
    8.6053    0.3397    0.0000 N   0  0  0  0  0  0  0  0  0
    9.1574   -0.2734    0.0000 C   0  0  0  0  0  0  0  0  0
    8.7449   -0.9879    0.0000 N   0  0  0  0  0  0  0  0  0
    7.9379   -0.8163    0.0000 C   0  0  0  0  0  0  0  0  0
  1  2  1  0  0  0  0
  2  3  4  0  0  0  0
  2  7  4  0  0  0  0
  3  4  4  0  0  0  0
  4  5  4  0  0  0  0
  5  6  4  0  0  0  0
  5  8  1  0  0  0  0
  6  7  4  0  0  0  0
  8  9  1  0  0  0  0
  9 10  1  0  0  0  0
 10 11  1  0  0  0  0
 11 12  1  0  0  0  0
 12 13  1  0  0  0  0
 13 14  1  0  0  0  0
 14 15  1  0  0  0  0
 15 16  4  0  0  0  0
 15 19  4  0  0  0  0
 16 17  4  0  0  0  0
 17 18  4  0  0  0  0
 18 19  4  0  0  0  0
M  STY  1   1 DAT
M  SAL   1  1  18
M  SDT   1 MRV_IMPLICIT_H                                        
M  SDD   1     0.0000    0.0000    DR    ALL  0       0  
M  SED   1 IMPL_H1
M  END
>  <Name_Molregno>
343045

>  <HISTAMINE H3>
8.6

>  <HISTAMINE H4>
7.2

$$$$
343046
  Marvin  02231216192D 0   1.00000     0.00000     0

 13 13  0  0  0  0  0  0  0  0999 V2000
   -5.4582   -0.9333    0.0000 N   0  0  0  0  0  0  0  0  0
   -4.9062   -0.3202    0.0000 C   0  0  0  0  0  0  0  0  0
   -4.1525   -0.6558    0.0000 C   0  0  0  0  0  0  0  0  0
   -4.2387   -1.4762    0.0000 N   0  0  0  0  0  0  0  0  0
   -5.0457   -1.6478    0.0000 C   0  0  0  0  0  0  0  0  0
   -3.4380   -0.2433    0.0000 C   0  0  0  0  0  0  0  0  0
   -2.7236   -0.6558    0.0000 C   0  0  0  0  0  0  0  0  0
   -2.0091   -0.2433    0.0000 C   0  0  0  0  0  0  0  0  0
   -1.2946   -0.6558    0.0000 C   0  0  0  0  0  0  0  0  0
   -0.5802   -0.2433    0.0000 C   0  0  0  0  0  0  0  0  0
    0.1343   -0.6558    0.0000 N   0  0  0  0  0  0  0  0  0
    0.8488   -0.2433    0.0000 C   0  0  0  0  0  0  0  0  0
    0.1343   -1.4808    0.0000 C   0  0  0  0  0  0  0  0  0
  1  2  4  0  0  0  0
  1  5  4  0  0  0  0
  2  3  4  0  0  0  0
  3  4  4  0  0  0  0
  3  6  1  0  0  0  0
  4  5  4  0  0  0  0
  6  7  1  0  0  0  0
  7  8  1  0  0  0  0
  8  9  1  0  0  0  0
  9 10  1  0  0  0  0
 10 11  1  0  0  0  0
 11 12  1  0  0  0  0
 11 13  1  0  0  0  0
M  STY  1   1 DAT
M  SAL   1  1   1
M  SDT   1 MRV_IMPLICIT_H                                        
M  SDD   1     0.0000    0.0000    DR    ALL  0       0  
M  SED   1 IMPL_H1
M  END
>  <Name_Molregno>
343046

>  <HISTAMINE H3>
7.8

>  <HISTAMINE H4>
6.3

$$$$
343047
  Marvin  02231216192D 0   1.00000     0.00000     0

 15 15  0  0  0  0  0  0  0  0999 V2000
   -5.5958    2.1601    0.0000 N   0  0  0  0  0  0  0  0  0
   -4.8895    1.7339    0.0000 C   0  0  0  0  0  0  0  0  0
   -5.0765    0.9304    0.0000 C   0  0  0  0  0  0  0  0  0
   -5.8985    0.8600    0.0000 N   0  0  0  0  0  0  0  0  0
   -6.2195    1.6200    0.0000 C   0  0  0  0  0  0  0  0  0
   -4.5365    0.3067    0.0000 C   0  0  0  0  0  0  0  0  0
   -3.7263    0.4626    0.0000 C   0  0  0  0  0  0  0  0  0
   -3.1862   -0.1610    0.0000 C   0  0  0  0  0  0  0  0  0
   -2.3761   -0.0051    0.0000 C   0  0  0  0  0  0  0  0  0
   -1.8360   -0.6287    0.0000 C   0  0  0  0  0  0  0  0  0
   -1.0259   -0.4728    0.0000 N   0  0  0  0  0  0  0  0  0
   -0.4858   -1.0965    0.0000 C   0  0  0  0  0  0  0  0  0
    0.3243   -0.9406    0.0000 C   0  0  0  0  0  0  0  0  0
   -0.7558    0.3067    0.0000 C   0  0  0  0  0  0  0  0  0
    0.0543    0.4626    0.0000 C   0  0  0  0  0  0  0  0  0
  1  2  4  0  0  0  0
  1  5  4  0  0  0  0
  2  3  4  0  0  0  0
  3  4  4  0  0  0  0
  3  6  1  0  0  0  0
  4  5  4  0  0  0  0
  6  7  1  0  0  0  0
  7  8  1  0  0  0  0
  8  9  1  0  0  0  0
  9 10  1  0  0  0  0
 10 11  1  0  0  0  0
 11 12  1  0  0  0  0
 11 14  1  0  0  0  0
 12 13  1  0  0  0  0
 14 15  1  0  0  0  0
M  STY  1   1 DAT
M  SAL   1  1   1
M  SDT   1 MRV_IMPLICIT_H                                        
M  SDD   1     0.0000    0.0000    DR    ALL  0       0  
M  SED   1 IMPL_H1
M  END
>  <Name_Molregno>
343047

>  <HISTAMINE H3>
7.2

>  <HISTAMINE H4>
6.2

$$$$
343048
  Marvin  02231216192D 0   1.00000     0.00000     0

 15 15  0  0  0  0  0  0  0  0999 V2000
   -6.8790   -0.5670    0.0000 N   0  0  0  0  0  0  0  0  0
   -6.3270    0.0461    0.0000 C   0  0  0  0  0  0  0  0  0
   -5.5733   -0.2895    0.0000 C   0  0  0  0  0  0  0  0  0
   -5.6595   -1.1099    0.0000 N   0  0  0  0  0  0  0  0  0
   -6.4665   -1.2815    0.0000 C   0  0  0  0  0  0  0  0  0
   -4.8588    0.1230    0.0000 C   0  0  0  0  0  0  0  0  0
   -4.1444   -0.2895    0.0000 C   0  0  0  0  0  0  0  0  0
   -3.4299    0.1230    0.0000 C   0  0  0  0  0  0  0  0  0
   -2.7154   -0.2895    0.0000 C   0  0  0  0  0  0  0  0  0
   -2.0009    0.1230    0.0000 C   0  0  0  0  0  0  0  0  0
   -1.2865   -0.2895    0.0000 N   0  0  0  0  0  0  0  0  0
   -0.5720    0.1230    0.0000 C   0  0  0  0  0  0  0  0  0
    0.1425   -0.2895    0.0000 C   0  0  0  0  0  0  0  0  0
    0.8569    0.1230    0.0000 C   0  0  0  0  0  0  0  0  0
    0.1425   -1.1145    0.0000 C   0  0  0  0  0  0  0  0  0
  1  2  4  0  0  0  0
  1  5  4  0  0  0  0
  2  3  4  0  0  0  0
  3  4  4  0  0  0  0
  3  6  1  0  0  0  0
  4  5  4  0  0  0  0
  6  7  1  0  0  0  0
  7  8  1  0  0  0  0
  8  9  1  0  0  0  0
  9 10  1  0  0  0  0
 10 11  1  0  0  0  0
 11 12  1  0  0  0  0
 12 13  1  0  0  0  0
 13 14  1  0  0  0  0
 13 15  1  0  0  0  0
M  STY  1   1 DAT
M  SAL   1  1   1
M  SDT   1 MRV_IMPLICIT_H                                        
M  SDD   1     0.0000    0.0000    DR    ALL  0       0  
M  SED   1 IMPL_H1
M  END
>  <Name_Molregno>
343048

>  <HISTAMINE H3>
8.8

>  <HISTAMINE H4>
6.9

$$$$
343055
  Marvin  02231216192D 0   1.00000     0.00000     0

 15 16  0  0  0  0  0  0  0  0999 V2000
   -0.0896   -0.0031    0.0000 N   0  0  0  0  0  0  0  0  0
    0.4624    0.6100    0.0000 C   0  0  0  0  0  0  0  0  0
    1.2161    0.2744    0.0000 C   0  0  0  0  0  0  0  0  0
    1.1299   -0.5461    0.0000 N   0  0  0  0  0  0  0  0  0
    0.3229   -0.7176    0.0000 C   0  0  0  0  0  0  0  0  0
    1.9306    0.6869    0.0000 C   0  0  0  0  0  0  0  0  0
    2.6450    0.2744    0.0000 C   0  0  0  0  0  0  0  0  0
    3.3595    0.6869    0.0000 C   0  0  0  0  0  0  0  0  0
    4.0740    0.2744    0.0000 C   0  0  0  0  0  0  0  0  0
    4.7884    0.6869    0.0000 C   0  0  0  0  0  0  0  0  0
    5.5029    0.2744    0.0000 N   0  0  0  0  0  0  0  0  0
    6.2566    0.6100    0.0000 C   0  0  0  0  0  0  0  0  0
    6.8086   -0.0031    0.0000 C   0  0  0  0  0  0  0  0  0
    6.3961   -0.7176    0.0000 C   0  0  0  0  0  0  0  0  0
    5.5891   -0.5461    0.0000 C   0  0  0  0  0  0  0  0  0
  1  2  4  0  0  0  0
  1  5  4  0  0  0  0
  2  3  4  0  0  0  0
  3  4  4  0  0  0  0
  3  6  1  0  0  0  0
  4  5  4  0  0  0  0
  6  7  1  0  0  0  0
  7  8  1  0  0  0  0
  8  9  1  0  0  0  0
  9 10  1  0  0  0  0
 10 11  1  0  0  0  0
 11 12  1  0  0  0  0
 11 15  1  0  0  0  0
 12 13  1  0  0  0  0
 13 14  1  0  0  0  0
 14 15  1  0  0  0  0
M  STY  1   1 DAT
M  SAL   1  1   1
M  SDT   1 MRV_IMPLICIT_H                                        
M  SDD   1     0.0000    0.0000    DR    ALL  0       0  
M  SED   1 IMPL_H1
M  END
>  <Name_Molregno>
343055

>  <HISTAMINE H3>
7.5

>  <HISTAMINE H4>
6.1

$$$$
343078
  Marvin  02231216192D 0   1.00000     0.00000     0

 12 12  0  0  0  0  0  0  0  0999 V2000
   -5.0659   -0.9482    0.0000 N   0  0  0  0  0  0  0  0  0
   -4.5138   -0.3351    0.0000 C   0  0  0  0  0  0  0  0  0
   -3.7602   -0.6707    0.0000 C   0  0  0  0  0  0  0  0  0
   -3.8464   -1.4911    0.0000 N   0  0  0  0  0  0  0  0  0
   -4.6534   -1.6627    0.0000 C   0  0  0  0  0  0  0  0  0
   -3.0457   -0.2582    0.0000 C   0  0  0  0  0  0  0  0  0
   -2.3312   -0.6707    0.0000 C   0  0  0  0  0  0  0  0  0
   -1.6167   -0.2582    0.0000 C   0  0  0  0  0  0  0  0  0
   -0.9023   -0.6707    0.0000 C   0  0  0  0  0  0  0  0  0
   -0.1878   -0.2582    0.0000 N   0  0  0  0  0  0  0  0  0
    0.5267   -0.6707    0.0000 C   0  0  0  0  0  0  0  0  0
    1.2411   -0.2582    0.0000 C   0  0  0  0  0  0  0  0  0
  1  2  4  0  0  0  0
  1  5  4  0  0  0  0
  2  3  4  0  0  0  0
  3  4  4  0  0  0  0
  3  6  1  0  0  0  0
  4  5  4  0  0  0  0
  6  7  1  0  0  0  0
  7  8  1  0  0  0  0
  8  9  1  0  0  0  0
  9 10  1  0  0  0  0
 10 11  1  0  0  0  0
 11 12  1  0  0  0  0
M  STY  1   1 DAT
M  SAL   1  1   1
M  SDT   1 MRV_IMPLICIT_H                                        
M  SDD   1     0.0000    0.0000    DR    ALL  0       0  
M  SED   1 IMPL_H1
M  END
>  <Name_Molregno>
343078

>  <HISTAMINE H3>
7.6

>  <HISTAMINE H4>
7

$$$$
343079
  Marvin  02231216192D 0   1.00000     0.00000     0

 13 13  0  0  0  0  0  0  0  0999 V2000
   -5.2836    0.2619    0.0000 N   0  0  0  0  0  0  0  0  0
   -4.4767    0.0904    0.0000 C   0  0  0  0  0  0  0  0  0
   -4.3904   -0.7301    0.0000 C   0  0  0  0  0  0  0  0  0
   -5.1441   -1.0657    0.0000 N   0  0  0  0  0  0  0  0  0
   -5.6961   -0.4526    0.0000 C   0  0  0  0  0  0  0  0  0
   -3.6760   -1.1426    0.0000 C   0  0  0  0  0  0  0  0  0
   -2.9615   -0.7301    0.0000 C   0  0  0  0  0  0  0  0  0
   -2.2470   -1.1426    0.0000 C   0  0  0  0  0  0  0  0  0
   -1.5325   -0.7301    0.0000 C   0  0  0  0  0  0  0  0  0
   -0.8181   -1.1426    0.0000 N   0  0  0  0  0  0  0  0  0
   -0.1036   -0.7301    0.0000 C   0  0  0  0  0  0  0  0  0
    0.6109   -1.1426    0.0000 C   0  0  0  0  0  0  0  0  0
    1.3253   -0.7301    0.0000 C   0  0  0  0  0  0  0  0  0
  1  2  4  0  0  0  0
  1  5  4  0  0  0  0
  2  3  4  0  0  0  0
  3  4  4  0  0  0  0
  3  6  1  0  0  0  0
  4  5  4  0  0  0  0
  6  7  1  0  0  0  0
  7  8  1  0  0  0  0
  8  9  1  0  0  0  0
  9 10  1  0  0  0  0
 10 11  1  0  0  0  0
 11 12  1  0  0  0  0
 12 13  1  0  0  0  0
M  STY  1   1 DAT
M  SAL   1  1   1
M  SDT   1 MRV_IMPLICIT_H                                        
M  SDD   1     0.0000    0.0000    DR    ALL  0       0  
M  SED   1 IMPL_H1
M  END
>  <Name_Molregno>
343079

>  <HISTAMINE H3>
8.1

>  <HISTAMINE H4>
7.3

$$$$
343080
  Marvin  02231216192D 0   1.00000     0.00000     0

 13 13  0  0  0  0  0  0  0  0999 V2000
   -5.4582   -0.9333    0.0000 N   0  0  0  0  0  0  0  0  0
   -4.9062   -0.3202    0.0000 C   0  0  0  0  0  0  0  0  0
   -4.1525   -0.6558    0.0000 C   0  0  0  0  0  0  0  0  0
   -4.2387   -1.4762    0.0000 N   0  0  0  0  0  0  0  0  0
   -5.0457   -1.6478    0.0000 C   0  0  0  0  0  0  0  0  0
   -3.4380   -0.2433    0.0000 C   0  0  0  0  0  0  0  0  0
   -2.7236   -0.6558    0.0000 C   0  0  0  0  0  0  0  0  0
   -2.0091   -0.2433    0.0000 C   0  0  0  0  0  0  0  0  0
   -1.2946   -0.6558    0.0000 C   0  0  0  0  0  0  0  0  0
   -0.5802   -0.2433    0.0000 N   0  0  0  0  0  0  0  0  0
    0.1343   -0.6558    0.0000 C   0  0  0  0  0  0  0  0  0
    0.8488   -0.2433    0.0000 C   0  0  0  0  0  0  0  0  0
    0.1343   -1.4808    0.0000 C   0  0  0  0  0  0  0  0  0
  1  2  4  0  0  0  0
  1  5  4  0  0  0  0
  2  3  4  0  0  0  0
  3  4  4  0  0  0  0
  3  6  1  0  0  0  0
  4  5  4  0  0  0  0
  6  7  1  0  0  0  0
  7  8  1  0  0  0  0
  8  9  1  0  0  0  0
  9 10  1  0  0  0  0
 10 11  1  0  0  0  0
 11 12  1  0  0  0  0
 11 13  1  0  0  0  0
M  STY  1   1 DAT
M  SAL   1  1   1
M  SDT   1 MRV_IMPLICIT_H                                        
M  SDD   1     0.0000    0.0000    DR    ALL  0       0  
M  SED   1 IMPL_H1
M  END
>  <Name_Molregno>
343080

>  <HISTAMINE H3>
7.1

>  <HISTAMINE H4>
6.7

$$$$
343260
  Marvin  02231216192D 0   1.00000     0.00000     0

 14 14  0  0  0  0  0  0  0  0999 V2000
   -0.0751   -0.3064    0.0000 N   0  0  0  0  0  0  0  0  0
    0.4770    0.3067    0.0000 C   0  0  0  0  0  0  0  0  0
    1.2306   -0.0289    0.0000 C   0  0  0  0  0  0  0  0  0
    1.1444   -0.8493    0.0000 N   0  0  0  0  0  0  0  0  0
    0.3374   -1.0209    0.0000 C   0  0  0  0  0  0  0  0  0
    1.9451    0.3836    0.0000 C   0  0  0  0  0  0  0  0  0
    2.6596   -0.0289    0.0000 C   0  0  0  0  0  0  0  0  0
    3.3741    0.3836    0.0000 C   0  0  0  0  0  0  0  0  0
    4.0885   -0.0289    0.0000 C   0  0  0  0  0  0  0  0  0
    4.8030    0.3836    0.0000 N   0  0  0  0  0  0  0  0  0
    5.5175   -0.0289    0.0000 C   0  0  0  0  0  0  0  0  0
    6.2319    0.3836    0.0000 C   0  0  0  0  0  0  0  0  0
    6.9464   -0.0289    0.0000 C   0  0  0  0  0  0  0  0  0
    7.6609    0.3836    0.0000 C   0  0  0  0  0  0  0  0  0
  1  2  4  0  0  0  0
  1  5  4  0  0  0  0
  2  3  4  0  0  0  0
  3  4  4  0  0  0  0
  3  6  1  0  0  0  0
  4  5  4  0  0  0  0
  6  7  1  0  0  0  0
  7  8  1  0  0  0  0
  8  9  1  0  0  0  0
  9 10  1  0  0  0  0
 10 11  1  0  0  0  0
 11 12  1  0  0  0  0
 12 13  1  0  0  0  0
 13 14  1  0  0  0  0
M  STY  1   1 DAT
M  SAL   1  1   1
M  SDT   1 MRV_IMPLICIT_H                                        
M  SDD   1     0.0000    0.0000    DR    ALL  0       0  
M  SED   1 IMPL_H1
M  END
>  <Name_Molregno>
343260

>  <HISTAMINE H3>
8.2

>  <HISTAMINE H4>
7.2

$$$$
343261
  Marvin  02231216192D 0   1.00000     0.00000     0

 14 14  0  0  0  0  0  0  0  0999 V2000
   -5.8486    1.2769    0.0000 N   0  0  0  0  0  0  0  0  0
   -5.0416    1.1054    0.0000 C   0  0  0  0  0  0  0  0  0
   -4.9553    0.2849    0.0000 C   0  0  0  0  0  0  0  0  0
   -5.7090   -0.0507    0.0000 N   0  0  0  0  0  0  0  0  0
   -6.2611    0.5624    0.0000 C   0  0  0  0  0  0  0  0  0
   -4.2409   -0.1276    0.0000 C   0  0  0  0  0  0  0  0  0
   -3.5264    0.2849    0.0000 C   0  0  0  0  0  0  0  0  0
   -2.8119   -0.1276    0.0000 C   0  0  0  0  0  0  0  0  0
   -2.0975    0.2849    0.0000 C   0  0  0  0  0  0  0  0  0
   -1.3830   -0.1276    0.0000 N   0  0  0  0  0  0  0  0  0
   -0.6685    0.2849    0.0000 C   0  0  0  0  0  0  0  0  0
    0.0460   -0.1276    0.0000 C   0  0  0  0  0  0  0  0  0
    0.7604    0.2849    0.0000 C   0  0  0  0  0  0  0  0  0
    0.0460   -0.9526    0.0000 C   0  0  0  0  0  0  0  0  0
  1  2  4  0  0  0  0
  1  5  4  0  0  0  0
  2  3  4  0  0  0  0
  3  4  4  0  0  0  0
  3  6  1  0  0  0  0
  4  5  4  0  0  0  0
  6  7  1  0  0  0  0
  7  8  1  0  0  0  0
  8  9  1  0  0  0  0
  9 10  1  0  0  0  0
 10 11  1  0  0  0  0
 11 12  1  0  0  0  0
 12 13  1  0  0  0  0
 12 14  1  0  0  0  0
M  STY  1   1 DAT
M  SAL   1  1   1
M  SDT   1 MRV_IMPLICIT_H                                        
M  SDD   1     0.0000    0.0000    DR    ALL  0       0  
M  SED   1 IMPL_H1
M  END
>  <Name_Molregno>
343261

>  <HISTAMINE H3>
8.5

>  <HISTAMINE H4>
7.1

$$$$
343262
  Marvin  02231216192D 0   1.00000     0.00000     0

 14 14  0  0  0  0  0  0  0  0999 V2000
   -5.4164    0.1943    0.0000 N   0  0  0  0  0  0  0  0  0
   -4.6094    0.0228    0.0000 C   0  0  0  0  0  0  0  0  0
   -4.5232   -0.7977    0.0000 C   0  0  0  0  0  0  0  0  0
   -5.2769   -1.1333    0.0000 N   0  0  0  0  0  0  0  0  0
   -5.8289   -0.5202    0.0000 C   0  0  0  0  0  0  0  0  0
   -3.8087   -1.2102    0.0000 C   0  0  0  0  0  0  0  0  0
   -3.0942   -0.7977    0.0000 C   0  0  0  0  0  0  0  0  0
   -2.3798   -1.2102    0.0000 C   0  0  0  0  0  0  0  0  0
   -1.6653   -0.7977    0.0000 C   0  0  0  0  0  0  0  0  0
   -0.9508   -1.2102    0.0000 N   0  0  0  0  0  0  0  0  0
   -0.2364   -0.7977    0.0000 C   0  0  0  0  0  0  0  0  0
    0.4781   -0.3852    0.0000 C   0  0  0  0  0  0  0  0  0
    0.1761   -1.5122    0.0000 C   0  0  0  0  0  0  0  0  0
   -0.6489   -0.0832    0.0000 C   0  0  0  0  0  0  0  0  0
  1  2  4  0  0  0  0
  1  5  4  0  0  0  0
  2  3  4  0  0  0  0
  3  4  4  0  0  0  0
  3  6  1  0  0  0  0
  4  5  4  0  0  0  0
  6  7  1  0  0  0  0
  7  8  1  0  0  0  0
  8  9  1  0  0  0  0
  9 10  1  0  0  0  0
 10 11  1  0  0  0  0
 11 12  1  0  0  0  0
 11 13  1  0  0  0  0
 11 14  1  0  0  0  0
M  STY  1   1 DAT
M  SAL   1  1   1
M  SDT   1 MRV_IMPLICIT_H                                        
M  SDD   1     0.0000    0.0000    DR    ALL  0       0  
M  SED   1 IMPL_H1
M  END
>  <Name_Molregno>
343262

>  <HISTAMINE H3>
6.2

>  <HISTAMINE H4>
6.1

$$$$
343263
  Marvin  02231216192D 0   1.00000     0.00000     0

 15 16  0  0  0  0  0  0  0  0999 V2000
   -0.0896   -0.0031    0.0000 N   0  0  0  0  0  0  0  0  0
    0.4624    0.6100    0.0000 C   0  0  0  0  0  0  0  0  0
    1.2161    0.2744    0.0000 C   0  0  0  0  0  0  0  0  0
    1.1299   -0.5461    0.0000 N   0  0  0  0  0  0  0  0  0
    0.3229   -0.7176    0.0000 C   0  0  0  0  0  0  0  0  0
    1.9306    0.6869    0.0000 C   0  0  0  0  0  0  0  0  0
    2.6450    0.2744    0.0000 C   0  0  0  0  0  0  0  0  0
    3.3595    0.6869    0.0000 C   0  0  0  0  0  0  0  0  0
    4.0740    0.2744    0.0000 C   0  0  0  0  0  0  0  0  0
    4.7884    0.6869    0.0000 N   0  0  0  0  0  0  0  0  0
    5.5029    0.2744    0.0000 C   0  0  0  0  0  0  0  0  0
    6.2566    0.6100    0.0000 C   0  0  0  0  0  0  0  0  0
    6.8086   -0.0031    0.0000 C   0  0  0  0  0  0  0  0  0
    6.3961   -0.7176    0.0000 C   0  0  0  0  0  0  0  0  0
    5.5891   -0.5461    0.0000 C   0  0  0  0  0  0  0  0  0
  1  2  4  0  0  0  0
  1  5  4  0  0  0  0
  2  3  4  0  0  0  0
  3  4  4  0  0  0  0
  3  6  1  0  0  0  0
  4  5  4  0  0  0  0
  6  7  1  0  0  0  0
  7  8  1  0  0  0  0
  8  9  1  0  0  0  0
  9 10  1  0  0  0  0
 10 11  1  0  0  0  0
 11 12  1  0  0  0  0
 11 15  1  0  0  0  0
 12 13  1  0  0  0  0
 13 14  1  0  0  0  0
 14 15  1  0  0  0  0
M  STY  1   1 DAT
M  SAL   1  1   1
M  SDT   1 MRV_IMPLICIT_H                                        
M  SDD   1     0.0000    0.0000    DR    ALL  0       0  
M  SED   1 IMPL_H1
M  END
>  <Name_Molregno>
343263

>  <HISTAMINE H3>
7.4

>  <HISTAMINE H4>
7.4

$$$$
343274
  Marvin  02231216192D 0   1.00000     0.00000     0

 16 17  0  0  0  0  0  0  0  0999 V2000
   -6.8107   -0.9314    0.0000 N   0  0  0  0  0  0  0  0  0
   -6.2586   -0.3183    0.0000 C   0  0  0  0  0  0  0  0  0
   -5.5050   -0.6538    0.0000 C   0  0  0  0  0  0  0  0  0
   -5.5912   -1.4743    0.0000 N   0  0  0  0  0  0  0  0  0
   -6.3982   -1.6458    0.0000 C   0  0  0  0  0  0  0  0  0
   -4.7905   -0.2413    0.0000 C   0  0  0  0  0  0  0  0  0
   -4.0760   -0.6538    0.0000 C   0  0  0  0  0  0  0  0  0
   -3.3616   -0.2413    0.0000 C   0  0  0  0  0  0  0  0  0
   -2.6471   -0.6538    0.0000 C   0  0  0  0  0  0  0  0  0
   -1.9326   -0.2413    0.0000 N   0  0  0  0  0  0  0  0  0
   -1.2181   -0.6538    0.0000 C   0  0  0  0  0  0  0  0  0
   -0.5037   -0.2413    0.0000 C   0  0  0  0  0  0  0  0  0
    0.2108   -0.6538    0.0000 C   0  0  0  0  0  0  0  0  0
    0.2108   -1.4788    0.0000 C   0  0  0  0  0  0  0  0  0
   -0.5037   -1.8913    0.0000 C   0  0  0  0  0  0  0  0  0
   -1.2181   -1.4788    0.0000 C   0  0  0  0  0  0  0  0  0
  1  2  4  0  0  0  0
  1  5  4  0  0  0  0
  2  3  4  0  0  0  0
  3  4  4  0  0  0  0
  3  6  1  0  0  0  0
  4  5  4  0  0  0  0
  6  7  1  0  0  0  0
  7  8  1  0  0  0  0
  8  9  1  0  0  0  0
  9 10  1  0  0  0  0
 10 11  1  0  0  0  0
 11 12  1  0  0  0  0
 11 16  1  0  0  0  0
 12 13  1  0  0  0  0
 13 14  1  0  0  0  0
 14 15  1  0  0  0  0
 15 16  1  0  0  0  0
M  STY  1   1 DAT
M  SAL   1  1   1
M  SDT   1 MRV_IMPLICIT_H                                        
M  SDD   1     0.0000    0.0000    DR    ALL  0       0  
M  SED   1 IMPL_H1
M  END
>  <Name_Molregno>
343274

>  <HISTAMINE H3>
7.5

>  <HISTAMINE H4>
7

$$$$
343379
  Marvin  02231216192D 0   1.00000     0.00000     0

 17 18  0  0  0  0  0  0  0  0999 V2000
   -7.1934    0.8102    0.0000 N   0  0  0  0  0  0  0  0  0
   -6.6413    1.4233    0.0000 C   0  0  0  0  0  0  0  0  0
   -5.8876    1.0877    0.0000 C   0  0  0  0  0  0  0  0  0
   -5.9739    0.2673    0.0000 N   0  0  0  0  0  0  0  0  0
   -6.7809    0.0957    0.0000 C   0  0  0  0  0  0  0  0  0
   -5.1732    1.5002    0.0000 C   0  0  0  0  0  0  0  0  0
   -4.4587    1.0877    0.0000 C   0  0  0  0  0  0  0  0  0
   -3.7442    1.5002    0.0000 C   0  0  0  0  0  0  0  0  0
   -3.0298    1.0877    0.0000 C   0  0  0  0  0  0  0  0  0
   -2.3153    1.5002    0.0000 N   0  0  0  0  0  0  0  0  0
   -1.6008    1.0877    0.0000 C   0  0  0  0  0  0  0  0  0
   -0.9192    1.5525    0.0000 C   0  0  0  0  0  0  0  0  0
   -0.1308    1.3093    0.0000 C   0  0  0  0  0  0  0  0  0
    0.1706    0.5413    0.0000 C   0  0  0  0  0  0  0  0  0
   -0.2419   -0.1731    0.0000 C   0  0  0  0  0  0  0  0  0
   -1.0577   -0.2961    0.0000 C   0  0  0  0  0  0  0  0  0
   -1.6625    0.2650    0.0000 C   0  0  0  0  0  0  0  0  0
  1  2  4  0  0  0  0
  1  5  4  0  0  0  0
  2  3  4  0  0  0  0
  3  4  4  0  0  0  0
  3  6  1  0  0  0  0
  4  5  4  0  0  0  0
  6  7  1  0  0  0  0
  7  8  1  0  0  0  0
  8  9  1  0  0  0  0
  9 10  1  0  0  0  0
 10 11  1  0  0  0  0
 11 12  1  0  0  0  0
 11 17  1  0  0  0  0
 12 13  1  0  0  0  0
 13 14  1  0  0  0  0
 14 15  1  0  0  0  0
 15 16  1  0  0  0  0
 16 17  1  0  0  0  0
M  STY  1   1 DAT
M  SAL   1  1   1
M  SDT   1 MRV_IMPLICIT_H                                        
M  SDD   1     0.0000    0.0000    DR    ALL  0       0  
M  SED   1 IMPL_H1
M  END
>  <Name_Molregno>
343379

>  <HISTAMINE H3>
7.4

>  <HISTAMINE H4>
7.3

$$$$
343468
  Marvin  02231216192D 0   1.00000     0.00000     0

 13 13  0  0  0  0  0  0  0  0999 V2000
   -5.2836    0.2619    0.0000 N   0  0  0  0  0  0  0  0  0
   -4.4767    0.0904    0.0000 C   0  0  0  0  0  0  0  0  0
   -4.3904   -0.7301    0.0000 C   0  0  0  0  0  0  0  0  0
   -5.1441   -1.0657    0.0000 N   0  0  0  0  0  0  0  0  0
   -5.6961   -0.4526    0.0000 C   0  0  0  0  0  0  0  0  0
   -3.6760   -1.1426    0.0000 C   0  0  0  0  0  0  0  0  0
   -2.9615   -0.7301    0.0000 C   0  0  0  0  0  0  0  0  0
   -2.2470   -1.1426    0.0000 C   0  0  0  0  0  0  0  0  0
   -1.5325   -0.7301    0.0000 C   0  0  0  0  0  0  0  0  0
   -0.8181   -1.1426    0.0000 C   0  0  0  0  0  0  0  0  0
   -0.1036   -0.7301    0.0000 N   0  0  0  0  0  0  0  0  0
    0.6109   -1.1426    0.0000 C   0  0  0  0  0  0  0  0  0
    1.3253   -0.7301    0.0000 C   0  0  0  0  0  0  0  0  0
  1  2  4  0  0  0  0
  1  5  4  0  0  0  0
  2  3  4  0  0  0  0
  3  4  4  0  0  0  0
  3  6  1  0  0  0  0
  4  5  4  0  0  0  0
  6  7  1  0  0  0  0
  7  8  1  0  0  0  0
  8  9  1  0  0  0  0
  9 10  1  0  0  0  0
 10 11  1  0  0  0  0
 11 12  1  0  0  0  0
 12 13  1  0  0  0  0
M  STY  1   1 DAT
M  SAL   1  1   1
M  SDT   1 MRV_IMPLICIT_H                                        
M  SDD   1     0.0000    0.0000    DR    ALL  0       0  
M  SED   1 IMPL_H1
M  END
>  <Name_Molregno>
343468

>  <HISTAMINE H3>
8.1

>  <HISTAMINE H4>
6.5

$$$$
343469
  Marvin  02231216192D 0   1.00000     0.00000     0

 14 14  0  0  0  0  0  0  0  0999 V2000
   -6.4172   -0.7073    0.0000 N   0  0  0  0  0  0  0  0  0
   -5.8651   -0.0942    0.0000 C   0  0  0  0  0  0  0  0  0
   -5.1114   -0.4298    0.0000 C   0  0  0  0  0  0  0  0  0
   -5.1977   -1.2503    0.0000 N   0  0  0  0  0  0  0  0  0
   -6.0047   -1.4218    0.0000 C   0  0  0  0  0  0  0  0  0
   -4.3970   -0.0173    0.0000 C   0  0  0  0  0  0  0  0  0
   -3.6825   -0.4298    0.0000 C   0  0  0  0  0  0  0  0  0
   -2.9680   -0.0173    0.0000 C   0  0  0  0  0  0  0  0  0
   -2.2536   -0.4298    0.0000 C   0  0  0  0  0  0  0  0  0
   -1.5391   -0.0173    0.0000 C   0  0  0  0  0  0  0  0  0
   -0.8246   -0.4298    0.0000 N   0  0  0  0  0  0  0  0  0
   -0.1101   -0.0173    0.0000 C   0  0  0  0  0  0  0  0  0
    0.6043   -0.4298    0.0000 C   0  0  0  0  0  0  0  0  0
    1.3188   -0.0173    0.0000 C   0  0  0  0  0  0  0  0  0
  1  2  4  0  0  0  0
  1  5  4  0  0  0  0
  2  3  4  0  0  0  0
  3  4  4  0  0  0  0
  3  6  1  0  0  0  0
  4  5  4  0  0  0  0
  6  7  1  0  0  0  0
  7  8  1  0  0  0  0
  8  9  1  0  0  0  0
  9 10  1  0  0  0  0
 10 11  1  0  0  0  0
 11 12  1  0  0  0  0
 12 13  1  0  0  0  0
 13 14  1  0  0  0  0
M  STY  1   1 DAT
M  SAL   1  1   1
M  SDT   1 MRV_IMPLICIT_H                                        
M  SDD   1     0.0000    0.0000    DR    ALL  0       0  
M  SED   1 IMPL_H1
M  END
>  <Name_Molregno>
343469

>  <HISTAMINE H3>
8.3

>  <HISTAMINE H4>
6.8

$$$$
343470
  Marvin  02231216192D 0   1.00000     0.00000     0

 14 14  0  0  0  0  0  0  0  0999 V2000
   -5.8486    1.2769    0.0000 N   0  0  0  0  0  0  0  0  0
   -5.0416    1.1054    0.0000 C   0  0  0  0  0  0  0  0  0
   -4.9553    0.2849    0.0000 C   0  0  0  0  0  0  0  0  0
   -5.7090   -0.0507    0.0000 N   0  0  0  0  0  0  0  0  0
   -6.2611    0.5624    0.0000 C   0  0  0  0  0  0  0  0  0
   -4.2409   -0.1276    0.0000 C   0  0  0  0  0  0  0  0  0
   -3.5264    0.2849    0.0000 C   0  0  0  0  0  0  0  0  0
   -2.8119   -0.1276    0.0000 C   0  0  0  0  0  0  0  0  0
   -2.0975    0.2849    0.0000 C   0  0  0  0  0  0  0  0  0
   -1.3830   -0.1276    0.0000 C   0  0  0  0  0  0  0  0  0
   -0.6685    0.2849    0.0000 N   0  0  0  0  0  0  0  0  0
    0.0460   -0.1276    0.0000 C   0  0  0  0  0  0  0  0  0
    0.7604    0.2849    0.0000 C   0  0  0  0  0  0  0  0  0
    0.0460   -0.9526    0.0000 C   0  0  0  0  0  0  0  0  0
  1  2  4  0  0  0  0
  1  5  4  0  0  0  0
  2  3  4  0  0  0  0
  3  4  4  0  0  0  0
  3  6  1  0  0  0  0
  4  5  4  0  0  0  0
  6  7  1  0  0  0  0
  7  8  1  0  0  0  0
  8  9  1  0  0  0  0
  9 10  1  0  0  0  0
 10 11  1  0  0  0  0
 11 12  1  0  0  0  0
 12 13  1  0  0  0  0
 12 14  1  0  0  0  0
M  STY  1   1 DAT
M  SAL   1  1   1
M  SDT   1 MRV_IMPLICIT_H                                        
M  SDD   1     0.0000    0.0000    DR    ALL  0       0  
M  SED   1 IMPL_H1
M  END
>  <Name_Molregno>
343470

>  <HISTAMINE H3>
7.9

>  <HISTAMINE H4>
6.9

$$$$
343479
  Marvin  02231216192D 0   1.00000     0.00000     0

 15 15  0  0  0  0  0  0  0  0999 V2000
   -6.6637    0.6599    0.0000 N   0  0  0  0  0  0  0  0  0
   -5.8567    0.4884    0.0000 C   0  0  0  0  0  0  0  0  0
   -5.7705   -0.3321    0.0000 C   0  0  0  0  0  0  0  0  0
   -6.5242   -0.6676    0.0000 N   0  0  0  0  0  0  0  0  0
   -7.0762   -0.0545    0.0000 C   0  0  0  0  0  0  0  0  0
   -5.0560   -0.7446    0.0000 C   0  0  0  0  0  0  0  0  0
   -4.3416   -0.3321    0.0000 C   0  0  0  0  0  0  0  0  0
   -3.6271   -0.7446    0.0000 C   0  0  0  0  0  0  0  0  0
   -2.9126   -0.3321    0.0000 C   0  0  0  0  0  0  0  0  0
   -2.1981   -0.7446    0.0000 C   0  0  0  0  0  0  0  0  0
   -1.4837   -0.3321    0.0000 N   0  0  0  0  0  0  0  0  0
   -0.7692   -0.7446    0.0000 C   0  0  0  0  0  0  0  0  0
   -0.0547   -0.3321    0.0000 C   0  0  0  0  0  0  0  0  0
    0.6597   -0.7446    0.0000 C   0  0  0  0  0  0  0  0  0
    1.3742   -0.3321    0.0000 C   0  0  0  0  0  0  0  0  0
  1  2  4  0  0  0  0
  1  5  4  0  0  0  0
  2  3  4  0  0  0  0
  3  4  4  0  0  0  0
  3  6  1  0  0  0  0
  4  5  4  0  0  0  0
  6  7  1  0  0  0  0
  7  8  1  0  0  0  0
  8  9  1  0  0  0  0
  9 10  1  0  0  0  0
 10 11  1  0  0  0  0
 11 12  1  0  0  0  0
 12 13  1  0  0  0  0
 13 14  1  0  0  0  0
 14 15  1  0  0  0  0
M  STY  1   1 DAT
M  SAL   1  1   1
M  SDT   1 MRV_IMPLICIT_H                                        
M  SDD   1     0.0000    0.0000    DR    ALL  0       0  
M  SED   1 IMPL_H1
M  END
>  <Name_Molregno>
343479

>  <HISTAMINE H3>
8.4

>  <HISTAMINE H4>
6.7

$$$$
343530
  Marvin  02231216192D 0   1.00000     0.00000     0

 18 19  0  0  0  0  0  0  0  0999 V2000
    0.0583    0.8140    0.0000 Cl  0  0  0  0  0  0  0  0  0
    0.7728    0.4015    0.0000 C   0  0  0  0  0  0  0  0  0
    1.4872    0.8140    0.0000 C   0  0  0  0  0  0  0  0  0
    2.2017    0.4015    0.0000 C   0  0  0  0  0  0  0  0  0
    2.2017   -0.4235    0.0000 C   0  0  0  0  0  0  0  0  0
    1.4872   -0.8360    0.0000 C   0  0  0  0  0  0  0  0  0
    0.7728   -0.4235    0.0000 C   0  0  0  0  0  0  0  0  0
    2.9162   -0.8360    0.0000 C   0  0  0  0  0  0  0  0  0
    3.6307   -0.4235    0.0000 N   0  0  0  0  0  0  0  0  0
    4.3451   -0.8360    0.0000 C   0  0  0  0  0  0  0  0  0
    5.0596   -0.4235    0.0000 C   0  0  0  0  0  0  0  0  0
    5.7741   -0.8360    0.0000 C   0  0  0  0  0  0  0  0  0
    6.4885   -0.4235    0.0000 C   0  0  0  0  0  0  0  0  0
    7.2030   -0.8360    0.0000 C   0  0  0  0  0  0  0  0  0
    7.9567   -0.5005    0.0000 N   0  0  0  0  0  0  0  0  0
    8.5087   -1.1136    0.0000 C   0  0  0  0  0  0  0  0  0
    8.0962   -1.8280    0.0000 N   0  0  0  0  0  0  0  0  0
    7.2892   -1.6565    0.0000 C   0  0  0  0  0  0  0  0  0
  1  2  1  0  0  0  0
  2  3  4  0  0  0  0
  2  7  4  0  0  0  0
  3  4  4  0  0  0  0
  4  5  4  0  0  0  0
  5  6  4  0  0  0  0
  5  8  1  0  0  0  0
  6  7  4  0  0  0  0
  8  9  1  0  0  0  0
  9 10  1  0  0  0  0
 10 11  1  0  0  0  0
 11 12  1  0  0  0  0
 12 13  1  0  0  0  0
 13 14  1  0  0  0  0
 14 15  4  0  0  0  0
 14 18  4  0  0  0  0
 15 16  4  0  0  0  0
 16 17  4  0  0  0  0
 17 18  4  0  0  0  0
M  STY  1   1 DAT
M  SAL   1  1  17
M  SDT   1 MRV_IMPLICIT_H                                        
M  SDD   1     0.0000    0.0000    DR    ALL  0       0  
M  SED   1 IMPL_H1
M  END
>  <Name_Molregno>
343530

>  <HISTAMINE H3>
7.8

>  <HISTAMINE H4>
7.7

$$$$
343531
  Marvin  02231216192D 0   1.00000     0.00000     0

 12 12  0  0  0  0  0  0  0  0999 V2000
   -4.4680    0.4251    0.0000 N   0  0  0  0  0  0  0  0  0
   -3.6611    0.2536    0.0000 C   0  0  0  0  0  0  0  0  0
   -3.5748   -0.5669    0.0000 C   0  0  0  0  0  0  0  0  0
   -4.3285   -0.9025    0.0000 N   0  0  0  0  0  0  0  0  0
   -4.8805   -0.2894    0.0000 C   0  0  0  0  0  0  0  0  0
   -2.8604   -0.9794    0.0000 C   0  0  0  0  0  0  0  0  0
   -2.1459   -0.5669    0.0000 C   0  0  0  0  0  0  0  0  0
   -1.4314   -0.9794    0.0000 C   0  0  0  0  0  0  0  0  0
   -0.7169   -0.5669    0.0000 C   0  0  0  0  0  0  0  0  0
   -0.0025   -0.9794    0.0000 N   0  0  0  0  0  0  0  0  0
    0.7120   -0.5669    0.0000 C   0  0  0  0  0  0  0  0  0
   -0.0025   -1.8044    0.0000 C   0  0  0  0  0  0  0  0  0
  1  2  4  0  0  0  0
  1  5  4  0  0  0  0
  2  3  4  0  0  0  0
  3  4  4  0  0  0  0
  3  6  1  0  0  0  0
  4  5  4  0  0  0  0
  6  7  1  0  0  0  0
  7  8  1  0  0  0  0
  8  9  1  0  0  0  0
  9 10  1  0  0  0  0
 10 11  1  0  0  0  0
 10 12  1  0  0  0  0
M  STY  1   1 DAT
M  SAL   1  1   1
M  SDT   1 MRV_IMPLICIT_H                                        
M  SDD   1     0.0000    0.0000    DR    ALL  0       0  
M  SED   1 IMPL_H1
M  END
>  <Name_Molregno>
343531

>  <HISTAMINE H3>
8.5

>  <HISTAMINE H4>
6.1

$$$$
343532
  Marvin  02231216192D 0   1.00000     0.00000     0

 14 14  0  0  0  0  0  0  0  0999 V2000
    0.0086    0.5321    0.0000 N   0  0  0  0  0  0  0  0  0
    0.7933    0.7871    0.0000 C   0  0  0  0  0  0  0  0  0
    1.2782    0.1196    0.0000 C   0  0  0  0  0  0  0  0  0
    0.7933   -0.5478    0.0000 N   0  0  0  0  0  0  0  0  0
    0.0086   -0.2929    0.0000 C   0  0  0  0  0  0  0  0  0
    2.1032    0.1196    0.0000 C   0  0  0  0  0  0  0  0  0
    2.5157   -0.5948    0.0000 C   0  0  0  0  0  0  0  0  0
    3.3407   -0.5948    0.0000 C   0  0  0  0  0  0  0  0  0
    3.7532   -1.3093    0.0000 C   0  0  0  0  0  0  0  0  0
    4.5782   -1.3093    0.0000 N   0  0  0  0  0  0  0  0  0
    4.9907   -2.0238    0.0000 C   0  0  0  0  0  0  0  0  0
    5.8157   -2.0238    0.0000 C   0  0  0  0  0  0  0  0  0
    4.9907   -0.5948    0.0000 C   0  0  0  0  0  0  0  0  0
    5.8157   -0.5948    0.0000 C   0  0  0  0  0  0  0  0  0
  1  2  4  0  0  0  0
  1  5  4  0  0  0  0
  2  3  4  0  0  0  0
  3  4  4  0  0  0  0
  3  6  1  0  0  0  0
  4  5  4  0  0  0  0
  6  7  1  0  0  0  0
  7  8  1  0  0  0  0
  8  9  1  0  0  0  0
  9 10  1  0  0  0  0
 10 11  1  0  0  0  0
 10 13  1  0  0  0  0
 11 12  1  0  0  0  0
 13 14  1  0  0  0  0
M  STY  1   1 DAT
M  SAL   1  1   1
M  SDT   1 MRV_IMPLICIT_H                                        
M  SDD   1     0.0000    0.0000    DR    ALL  0       0  
M  SED   1 IMPL_H1
M  END
>  <Name_Molregno>
343532

>  <HISTAMINE H3>
7

>  <HISTAMINE H4>
6.5

$$$$
343533
  Marvin  02231216192D 0   1.00000     0.00000     0

 14 15  0  0  0  0  0  0  0  0999 V2000
    0.3632    1.0132    0.0000 N   0  0  0  0  0  0  0  0  0
    1.1702    0.8416    0.0000 C   0  0  0  0  0  0  0  0  0
    1.2564    0.0212    0.0000 C   0  0  0  0  0  0  0  0  0
    0.5027   -0.3144    0.0000 N   0  0  0  0  0  0  0  0  0
   -0.0493    0.2987    0.0000 C   0  0  0  0  0  0  0  0  0
    1.9709   -0.3913    0.0000 C   0  0  0  0  0  0  0  0  0
    2.6854    0.0212    0.0000 C   0  0  0  0  0  0  0  0  0
    3.3998   -0.3913    0.0000 C   0  0  0  0  0  0  0  0  0
    4.1143    0.0212    0.0000 C   0  0  0  0  0  0  0  0  0
    4.8288   -0.3913    0.0000 N   0  0  0  0  0  0  0  0  0
    5.5824   -0.0558    0.0000 C   0  0  0  0  0  0  0  0  0
    6.1345   -0.6689    0.0000 C   0  0  0  0  0  0  0  0  0
    5.7220   -1.3833    0.0000 C   0  0  0  0  0  0  0  0  0
    4.9150   -1.2118    0.0000 C   0  0  0  0  0  0  0  0  0
  1  2  4  0  0  0  0
  1  5  4  0  0  0  0
  2  3  4  0  0  0  0
  3  4  4  0  0  0  0
  3  6  1  0  0  0  0
  4  5  4  0  0  0  0
  6  7  1  0  0  0  0
  7  8  1  0  0  0  0
  8  9  1  0  0  0  0
  9 10  1  0  0  0  0
 10 11  1  0  0  0  0
 10 14  1  0  0  0  0
 11 12  1  0  0  0  0
 12 13  1  0  0  0  0
 13 14  1  0  0  0  0
M  STY  1   1 DAT
M  SAL   1  1   1
M  SDT   1 MRV_IMPLICIT_H                                        
M  SDD   1     0.0000    0.0000    DR    ALL  0       0  
M  SED   1 IMPL_H1
M  END
>  <Name_Molregno>
343533

>  <HISTAMINE H3>
7.4

>  <HISTAMINE H4>
6.3

$$$$
343539
  Marvin  02231216192D 0   1.00000     0.00000     0

 15 16  0  0  0  0  0  0  0  0999 V2000
   -5.9401    1.4341    0.0000 N   0  0  0  0  0  0  0  0  0
   -5.1331    1.2626    0.0000 C   0  0  0  0  0  0  0  0  0
   -5.0469    0.4421    0.0000 C   0  0  0  0  0  0  0  0  0
   -5.8006    0.1065    0.0000 N   0  0  0  0  0  0  0  0  0
   -6.3526    0.7196    0.0000 C   0  0  0  0  0  0  0  0  0
   -4.3324    0.0296    0.0000 C   0  0  0  0  0  0  0  0  0
   -3.6179    0.4421    0.0000 C   0  0  0  0  0  0  0  0  0
   -2.9035    0.0296    0.0000 C   0  0  0  0  0  0  0  0  0
   -2.1890    0.4421    0.0000 C   0  0  0  0  0  0  0  0  0
   -1.4745    0.0296    0.0000 N   0  0  0  0  0  0  0  0  0
   -0.7601    0.4421    0.0000 C   0  0  0  0  0  0  0  0  0
   -0.0456    0.0296    0.0000 C   0  0  0  0  0  0  0  0  0
   -0.0456   -0.7954    0.0000 C   0  0  0  0  0  0  0  0  0
   -0.7601   -1.2079    0.0000 C   0  0  0  0  0  0  0  0  0
   -1.4745   -0.7954    0.0000 C   0  0  0  0  0  0  0  0  0
  1  2  4  0  0  0  0
  1  5  4  0  0  0  0
  2  3  4  0  0  0  0
  3  4  4  0  0  0  0
  3  6  1  0  0  0  0
  4  5  4  0  0  0  0
  6  7  1  0  0  0  0
  7  8  1  0  0  0  0
  8  9  1  0  0  0  0
  9 10  1  0  0  0  0
 10 11  1  0  0  0  0
 10 15  1  0  0  0  0
 11 12  1  0  0  0  0
 12 13  1  0  0  0  0
 13 14  1  0  0  0  0
 14 15  1  0  0  0  0
M  STY  1   1 DAT
M  SAL   1  1   1
M  SDT   1 MRV_IMPLICIT_H                                        
M  SDD   1     0.0000    0.0000    DR    ALL  0       0  
M  SED   1 IMPL_H1
M  END
>  <Name_Molregno>
343539

>  <HISTAMINE H3>
7.7

>  <HISTAMINE H4>
6.4

$$$$
343540
  Marvin  02231216192D 0   1.00000     0.00000     0

 16 17  0  0  0  0  0  0  0  0999 V2000
   -6.4899    0.8745    0.0000 N   0  0  0  0  0  0  0  0  0
   -5.6829    0.7030    0.0000 C   0  0  0  0  0  0  0  0  0
   -5.5967   -0.1175    0.0000 C   0  0  0  0  0  0  0  0  0
   -6.3504   -0.4531    0.0000 N   0  0  0  0  0  0  0  0  0
   -6.9024    0.1600    0.0000 C   0  0  0  0  0  0  0  0  0
   -4.8822   -0.5300    0.0000 C   0  0  0  0  0  0  0  0  0
   -4.1677   -0.1175    0.0000 C   0  0  0  0  0  0  0  0  0
   -3.4533   -0.5300    0.0000 C   0  0  0  0  0  0  0  0  0
   -2.7388   -0.1175    0.0000 C   0  0  0  0  0  0  0  0  0
   -2.0243   -0.5300    0.0000 N   0  0  0  0  0  0  0  0  0
   -1.3427   -0.0653    0.0000 C   0  0  0  0  0  0  0  0  0
   -0.5543   -0.3084    0.0000 C   0  0  0  0  0  0  0  0  0
   -0.2529   -1.0764    0.0000 C   0  0  0  0  0  0  0  0  0
   -0.6654   -1.7909    0.0000 C   0  0  0  0  0  0  0  0  0
   -1.4812   -1.9138    0.0000 C   0  0  0  0  0  0  0  0  0
   -2.0860   -1.3527    0.0000 C   0  0  0  0  0  0  0  0  0
  1  2  4  0  0  0  0
  1  5  4  0  0  0  0
  2  3  4  0  0  0  0
  3  4  4  0  0  0  0
  3  6  1  0  0  0  0
  4  5  4  0  0  0  0
  6  7  1  0  0  0  0
  7  8  1  0  0  0  0
  8  9  1  0  0  0  0
  9 10  1  0  0  0  0
 10 11  1  0  0  0  0
 10 16  1  0  0  0  0
 11 12  1  0  0  0  0
 12 13  1  0  0  0  0
 13 14  1  0  0  0  0
 14 15  1  0  0  0  0
 15 16  1  0  0  0  0
M  STY  1   1 DAT
M  SAL   1  1   1
M  SDT   1 MRV_IMPLICIT_H                                        
M  SDD   1     0.0000    0.0000    DR    ALL  0       0  
M  SED   1 IMPL_H1
M  END
>  <Name_Molregno>
343540

>  <HISTAMINE H3>
7.4

>  <HISTAMINE H4>
6.3

$$$$
344371
  Marvin  02231216192D 0   1.00000     0.00000     0

 27 29  0  0  0  0  0  0  0  0999 V2000
   -8.3424    3.5017    0.0000 O   0  0  0  0  0  0  0  0  0
   -9.0569    3.9142    0.0000 C   0  0  0  0  0  0  0  0  0
   -8.3424    2.6767    0.0000 C   0  0  0  0  0  0  0  0  0
   -7.6279    2.2642    0.0000 C   0  0  0  0  0  0  0  0  0
   -7.6279    1.4392    0.0000 C   0  0  0  0  0  0  0  0  0
   -6.9134    1.0267    0.0000 N   0  0  0  0  0  0  0  0  0
   -6.1990    1.4392    0.0000 C   0  0  0  0  0  0  0  0  0
   -5.4845    1.0267    0.0000 C   0  0  0  0  0  0  0  0  0
   -5.4845    0.2017    0.0000 N   0  0  0  0  0  0  0  0  0
   -6.1990   -0.2108    0.0000 C   0  0  0  0  0  0  0  0  0
   -6.9134    0.2017    0.0000 C   0  0  0  0  0  0  0  0  0
   -4.7700   -0.2108    0.0000 C   0  0  0  0  0  0  0  0  0
   -4.0556    0.2017    0.0000 C   0  0  0  0  0  0  0  0  0
   -3.3411   -0.2108    0.0000 C   0  0  0  0  0  0  0  0  0
   -2.6266    0.2017    0.0000 C   0  0  0  0  0  0  0  0  0
   -1.9121   -0.2108    0.0000 N   0  0  0  0  0  0  0  0  0
   -1.1977    0.2017    0.0000 N   0  0  0  0  0  0  0  0  0
   -0.4832   -0.2108    0.0000 C   0  0  0  0  0  0  0  0  0
   -0.4832   -1.0358    0.0000 C   0  0  0  0  0  0  0  0  0
    0.2313   -1.4483    0.0000 O   0  0  0  0  0  0  0  0  0
   -1.1977   -1.4483    0.0000 N   0  0  0  0  0  0  0  0  0
   -1.1977   -2.2733    0.0000 C   0  0  0  0  0  0  0  0  0
   -1.9121   -1.0358    0.0000 C   0  0  0  0  0  0  0  0  0
   -2.6266   -1.4483    0.0000 O   0  0  0  0  0  0  0  0  0
   -8.3424    1.0267    0.0000 C   0  0  0  0  0  0  0  0  0
   -9.0569    1.4392    0.0000 C   0  0  0  0  0  0  0  0  0
   -9.0569    2.2642    0.0000 C   0  0  0  0  0  0  0  0  0
  1  2  1  0  0  0  0
  1  3  1  0  0  0  0
  3  4  4  0  0  0  0
  3 27  4  0  0  0  0
  4  5  4  0  0  0  0
  5  6  1  0  0  0  0
  5 25  4  0  0  0  0
  6  7  1  0  0  0  0
  6 11  1  0  0  0  0
  7  8  1  0  0  0  0
  8  9  1  0  0  0  0
  9 10  1  0  0  0  0
  9 12  1  0  0  0  0
 10 11  1  0  0  0  0
 12 13  1  0  0  0  0
 13 14  1  0  0  0  0
 14 15  1  0  0  0  0
 15 16  1  0  0  0  0
 16 17  1  0  0  0  0
 16 23  1  0  0  0  0
 17 18  2  0  0  0  0
 18 19  1  0  0  0  0
 19 20  2  0  0  0  0
 19 21  1  0  0  0  0
 21 22  1  0  0  0  0
 21 23  1  0  0  0  0
 23 24  2  0  0  0  0
 25 26  4  0  0  0  0
 26 27  4  0  0  0  0
M  END
>  <Name_Molregno>
344371

>  <5-HT1A>
8.96

>  <5-HT1B>
6.64

>  <5-HT1E>
5

>  <5-HT2A>
5.68

>  <5-HT3>
5

>  <5-HT5>
5

>  <5-HT6>
5

>  <5-HT7>
6.48

>  <Alpha-1A>
6.38

>  <Alpha-1B>
6.42

>  <Alpha-2A>
6.6

>  <Alpha-2C>
6.96

>  <DOPAMINE D2>
5.59

>  <DOPAMINE D3>
5

>  <DOPAMINE D4>
5

>  <DOPAMINE D5>
5

>  <Dopamine transporter>
5

>  <HISTAMINE H1>
6.08

>  <HISTAMINE H2>
5.67

>  <HISTAMINE H3>
5

>  <HISTAMINE H4>
5

>  <Norepinephrine transporter>
5

>  <Serotonin transporter>
5

$$$$
352829
  Marvin  02231216192D 0   1.00000     0.00000     0

 22 25  0  0  0  0  0  0  0  0999 V2000
   -0.3818   -1.7384    0.0000 Cl  0  0  0  0  0  0  0  0  0
    0.4065   -1.9816    0.0000 C   0  0  0  0  0  0  0  0  0
    1.0113   -1.4204    0.0000 C   0  0  0  0  0  0  0  0  0
    1.7996   -1.6636    0.0000 C   0  0  0  0  0  0  0  0  0
    2.3140   -1.0186    0.0000 N   0  0  0  0  0  0  0  0  0
    3.1390   -1.0186    0.0000 C   0  0  0  0  0  0  0  0  0
    3.4969   -0.2753    0.0000 N   0  0  0  0  0  0  0  0  0
    3.0322    0.4063    0.0000 C   0  0  0  0  0  0  0  0  0
    3.3902    1.1496    0.0000 C   0  0  0  0  0  0  0  0  0
    4.2129    1.2113    0.0000 C   0  0  0  0  0  0  0  0  0
    4.6776    0.5296    0.0000 C   0  0  0  0  0  0  0  0  0
    4.3196   -0.2137    0.0000 C   0  0  0  0  0  0  0  0  0
    3.6534   -1.6636    0.0000 C   0  0  0  0  0  0  0  0  0
    3.4698   -2.4679    0.0000 C   0  0  0  0  0  0  0  0  0
    2.7265   -2.8259    0.0000 N   0  0  0  0  0  0  0  0  0
    1.9832   -2.4679    0.0000 C   0  0  0  0  0  0  0  0  0
    1.3784   -3.0291    0.0000 C   0  0  0  0  0  0  0  0  0
    0.5901   -2.7859    0.0000 C   0  0  0  0  0  0  0  0  0
    4.0746   -3.0291    0.0000 C   0  0  0  0  0  0  0  0  0
    4.8629   -2.7859    0.0000 C   0  0  0  0  0  0  0  0  0
    5.0465   -1.9816    0.0000 C   0  0  0  0  0  0  0  0  0
    4.4417   -1.4204    0.0000 C   0  0  0  0  0  0  0  0  0
  1  2  1  0  0  0  0
  2  3  4  0  0  0  0
  2 18  4  0  0  0  0
  3  4  4  0  0  0  0
  4  5  1  0  0  0  0
  4 16  4  0  0  0  0
  5  6  2  0  0  0  0
  6  7  1  0  0  0  0
  6 13  1  0  0  0  0
  7  8  1  0  0  0  0
  7 12  1  0  0  0  0
  8  9  1  0  0  0  0
  9 10  1  0  0  0  0
 10 11  1  0  0  0  0
 11 12  1  0  0  0  0
 13 14  4  0  0  0  0
 13 22  4  0  0  0  0
 14 15  1  0  0  0  0
 14 19  4  0  0  0  0
 15 16  1  0  0  0  0
 16 17  4  0  0  0  0
 17 18  4  0  0  0  0
 19 20  4  0  0  0  0
 20 21  4  0  0  0  0
 21 22  4  0  0  0  0
M  END
>  <Name_Molregno>
352829

>  <HISTAMINE H4>
5

$$$$
352830
  Marvin  02231216192D 0   1.00000     0.00000     0

 22 25  0  0  0  0  0  0  0  0999 V2000
   -0.3818   -1.7384    0.0000 Cl  0  0  0  0  0  0  0  0  0
    0.4065   -1.9816    0.0000 C   0  0  0  0  0  0  0  0  0
    1.0113   -1.4204    0.0000 C   0  0  0  0  0  0  0  0  0
    1.7996   -1.6636    0.0000 C   0  0  0  0  0  0  0  0  0
    2.3140   -1.0186    0.0000 N   0  0  0  0  0  0  0  0  0
    3.1390   -1.0186    0.0000 C   0  0  0  0  0  0  0  0  0
    3.4969   -0.2753    0.0000 N   0  0  0  0  0  0  0  0  0
    3.0322    0.4063    0.0000 C   0  0  0  0  0  0  0  0  0
    3.3902    1.1496    0.0000 C   0  0  0  0  0  0  0  0  0
    4.2129    1.2113    0.0000 O   0  0  0  0  0  0  0  0  0
    4.6776    0.5296    0.0000 C   0  0  0  0  0  0  0  0  0
    4.3196   -0.2137    0.0000 C   0  0  0  0  0  0  0  0  0
    3.6534   -1.6636    0.0000 C   0  0  0  0  0  0  0  0  0
    3.4698   -2.4679    0.0000 C   0  0  0  0  0  0  0  0  0
    2.7265   -2.8259    0.0000 N   0  0  0  0  0  0  0  0  0
    1.9832   -2.4679    0.0000 C   0  0  0  0  0  0  0  0  0
    1.3784   -3.0291    0.0000 C   0  0  0  0  0  0  0  0  0
    0.5901   -2.7859    0.0000 C   0  0  0  0  0  0  0  0  0
    4.0746   -3.0291    0.0000 C   0  0  0  0  0  0  0  0  0
    4.8629   -2.7859    0.0000 C   0  0  0  0  0  0  0  0  0
    5.0465   -1.9816    0.0000 C   0  0  0  0  0  0  0  0  0
    4.4417   -1.4204    0.0000 C   0  0  0  0  0  0  0  0  0
  1  2  1  0  0  0  0
  2  3  4  0  0  0  0
  2 18  4  0  0  0  0
  3  4  4  0  0  0  0
  4  5  1  0  0  0  0
  4 16  4  0  0  0  0
  5  6  2  0  0  0  0
  6  7  1  0  0  0  0
  6 13  1  0  0  0  0
  7  8  1  0  0  0  0
  7 12  1  0  0  0  0
  8  9  1  0  0  0  0
  9 10  1  0  0  0  0
 10 11  1  0  0  0  0
 11 12  1  0  0  0  0
 13 14  4  0  0  0  0
 13 22  4  0  0  0  0
 14 15  1  0  0  0  0
 14 19  4  0  0  0  0
 15 16  1  0  0  0  0
 16 17  4  0  0  0  0
 17 18  4  0  0  0  0
 19 20  4  0  0  0  0
 20 21  4  0  0  0  0
 21 22  4  0  0  0  0
M  END
>  <Name_Molregno>
352830

>  <HISTAMINE H4>
5

$$$$
352896
  Marvin  02231216192D 0   1.00000     0.00000     0

 24 27  0  0  0  0  0  0  0  0999 V2000
   -6.2647   -2.4248    0.0000 Cl  0  0  0  0  0  0  0  0  0
   -5.4763   -2.6680    0.0000 C   0  0  0  0  0  0  0  0  0
   -4.8716   -2.1068    0.0000 C   0  0  0  0  0  0  0  0  0
   -4.0832   -2.3500    0.0000 C   0  0  0  0  0  0  0  0  0
   -3.5688   -1.7050    0.0000 N   0  0  0  0  0  0  0  0  0
   -2.7438   -1.7050    0.0000 C   0  0  0  0  0  0  0  0  0
   -2.3859   -0.9617    0.0000 N   0  0  0  0  0  0  0  0  0
   -2.8506   -0.2800    0.0000 C   0  0  0  0  0  0  0  0  0
   -2.4927    0.4633    0.0000 C   0  0  0  0  0  0  0  0  0
   -1.6700    0.5249    0.0000 N   0  0  0  0  0  0  0  0  0
   -1.2052   -0.1567    0.0000 C   0  0  0  0  0  0  0  0  0
   -1.5632   -0.9000    0.0000 C   0  0  0  0  0  0  0  0  0
   -1.3120    1.2682    0.0000 C   0  0  0  0  0  0  0  0  0
   -2.2295   -2.3500    0.0000 C   0  0  0  0  0  0  0  0  0
   -1.4411   -2.1068    0.0000 C   0  0  0  0  0  0  0  0  0
   -0.8363   -2.6680    0.0000 C   0  0  0  0  0  0  0  0  0
   -0.0480   -2.4248    0.0000 F   0  0  0  0  0  0  0  0  0
   -1.0199   -3.4723    0.0000 C   0  0  0  0  0  0  0  0  0
   -1.8083   -3.7155    0.0000 C   0  0  0  0  0  0  0  0  0
   -2.4130   -3.1543    0.0000 C   0  0  0  0  0  0  0  0  0
   -3.1563   -3.5123    0.0000 O   0  0  0  0  0  0  0  0  0
   -3.8996   -3.1543    0.0000 C   0  0  0  0  0  0  0  0  0
   -4.5044   -3.7155    0.0000 C   0  0  0  0  0  0  0  0  0
   -5.2928   -3.4723    0.0000 C   0  0  0  0  0  0  0  0  0
  1  2  1  0  0  0  0
  2  3  4  0  0  0  0
  2 24  4  0  0  0  0
  3  4  4  0  0  0  0
  4  5  1  0  0  0  0
  4 22  4  0  0  0  0
  5  6  2  0  0  0  0
  6  7  1  0  0  0  0
  6 14  1  0  0  0  0
  7  8  1  0  0  0  0
  7 12  1  0  0  0  0
  8  9  1  0  0  0  0
  9 10  1  0  0  0  0
 10 11  1  0  0  0  0
 10 13  1  0  0  0  0
 11 12  1  0  0  0  0
 14 15  4  0  0  0  0
 14 20  4  0  0  0  0
 15 16  4  0  0  0  0
 16 17  1  0  0  0  0
 16 18  4  0  0  0  0
 18 19  4  0  0  0  0
 19 20  4  0  0  0  0
 20 21  1  0  0  0  0
 21 22  1  0  0  0  0
 22 23  4  0  0  0  0
 23 24  4  0  0  0  0
M  END
>  <Name_Molregno>
352896

>  <HISTAMINE H4>
6.72

$$$$
352943
  Marvin  02231216192D 0   1.00000     0.00000     0

 24 27  0  0  0  0  0  0  0  0999 V2000
    0.4033    2.6266    0.0000 Cl  0  0  0  0  0  0  0  0  0
    1.0081    2.0655    0.0000 C   0  0  0  0  0  0  0  0  0
    1.7964    2.3086    0.0000 C   0  0  0  0  0  0  0  0  0
    2.4012    1.7475    0.0000 C   0  0  0  0  0  0  0  0  0
    3.1445    2.1054    0.0000 O   0  0  0  0  0  0  0  0  0
    3.8878    1.7475    0.0000 C   0  0  0  0  0  0  0  0  0
    4.0713    0.9432    0.0000 C   0  0  0  0  0  0  0  0  0
    4.8597    0.7000    0.0000 C   0  0  0  0  0  0  0  0  0
    5.4645    1.2611    0.0000 C   0  0  0  0  0  0  0  0  0
    5.2809    2.0655    0.0000 C   0  0  0  0  0  0  0  0  0
    5.8856    2.6266    0.0000 F   0  0  0  0  0  0  0  0  0
    4.4925    2.3086    0.0000 C   0  0  0  0  0  0  0  0  0
    3.5570    0.2982    0.0000 C   0  0  0  0  0  0  0  0  0
    2.7320    0.2982    0.0000 N   0  0  0  0  0  0  0  0  0
    2.2176    0.9432    0.0000 C   0  0  0  0  0  0  0  0  0
    1.4292    0.7000    0.0000 C   0  0  0  0  0  0  0  0  0
    0.8245    1.2611    0.0000 C   0  0  0  0  0  0  0  0  0
    3.9149   -0.4451    0.0000 N   0  0  0  0  0  0  0  0  0
    4.7376   -0.5068    0.0000 C   0  0  0  0  0  0  0  0  0
    5.0956   -1.2501    0.0000 C   0  0  0  0  0  0  0  0  0
    4.6308   -1.9317    0.0000 N   0  0  0  0  0  0  0  0  0
    3.8081   -1.8701    0.0000 C   0  0  0  0  0  0  0  0  0
    3.4502   -1.1268    0.0000 C   0  0  0  0  0  0  0  0  0
    4.9888   -2.6750    0.0000 C   0  0  0  0  0  0  0  0  0
  1  2  1  0  0  0  0
  2  3  4  0  0  0  0
  2 17  4  0  0  0  0
  3  4  4  0  0  0  0
  4  5  1  0  0  0  0
  4 15  4  0  0  0  0
  5  6  1  0  0  0  0
  6  7  4  0  0  0  0
  6 12  4  0  0  0  0
  7  8  4  0  0  0  0
  7 13  1  0  0  0  0
  8  9  4  0  0  0  0
  9 10  4  0  0  0  0
 10 11  1  0  0  0  0
 10 12  4  0  0  0  0
 13 14  2  0  0  0  0
 13 18  1  0  0  0  0
 14 15  1  0  0  0  0
 15 16  4  0  0  0  0
 16 17  4  0  0  0  0
 18 19  1  0  0  0  0
 18 23  1  0  0  0  0
 19 20  1  0  0  0  0
 20 21  1  0  0  0  0
 21 22  1  0  0  0  0
 21 24  1  0  0  0  0
 22 23  1  0  0  0  0
M  END
>  <Name_Molregno>
352943

>  <HISTAMINE H4>
7.41

$$$$
352962
  Marvin  02231216192D 0   1.00000     0.00000     0

 22 25  0  0  0  0  0  0  0  0999 V2000
   -0.3818   -1.7384    0.0000 Cl  0  0  0  0  0  0  0  0  0
    0.4065   -1.9816    0.0000 C   0  0  0  0  0  0  0  0  0
    1.0113   -1.4204    0.0000 C   0  0  0  0  0  0  0  0  0
    1.7996   -1.6636    0.0000 C   0  0  0  0  0  0  0  0  0
    2.3140   -1.0186    0.0000 N   0  0  0  0  0  0  0  0  0
    3.1390   -1.0186    0.0000 C   0  0  0  0  0  0  0  0  0
    3.4969   -0.2753    0.0000 N   0  0  0  0  0  0  0  0  0
    3.0322    0.4063    0.0000 C   0  0  0  0  0  0  0  0  0
    3.3902    1.1496    0.0000 C   0  0  0  0  0  0  0  0  0
    4.2129    1.2113    0.0000 N   0  0  0  0  0  0  0  0  0
    4.6776    0.5296    0.0000 C   0  0  0  0  0  0  0  0  0
    4.3196   -0.2137    0.0000 C   0  0  0  0  0  0  0  0  0
    3.6534   -1.6636    0.0000 C   0  0  0  0  0  0  0  0  0
    3.4698   -2.4679    0.0000 C   0  0  0  0  0  0  0  0  0
    2.7265   -2.8259    0.0000 O   0  0  0  0  0  0  0  0  0
    1.9832   -2.4679    0.0000 C   0  0  0  0  0  0  0  0  0
    1.3784   -3.0291    0.0000 C   0  0  0  0  0  0  0  0  0
    0.5901   -2.7859    0.0000 C   0  0  0  0  0  0  0  0  0
    4.0746   -3.0291    0.0000 C   0  0  0  0  0  0  0  0  0
    4.8629   -2.7859    0.0000 C   0  0  0  0  0  0  0  0  0
    5.0465   -1.9816    0.0000 C   0  0  0  0  0  0  0  0  0
    4.4417   -1.4204    0.0000 C   0  0  0  0  0  0  0  0  0
  1  2  1  0  0  0  0
  2  3  4  0  0  0  0
  2 18  4  0  0  0  0
  3  4  4  0  0  0  0
  4  5  1  0  0  0  0
  4 16  4  0  0  0  0
  5  6  2  0  0  0  0
  6  7  1  0  0  0  0
  6 13  1  0  0  0  0
  7  8  1  0  0  0  0
  7 12  1  0  0  0  0
  8  9  1  0  0  0  0
  9 10  1  0  0  0  0
 10 11  1  0  0  0  0
 11 12  1  0  0  0  0
 13 14  4  0  0  0  0
 13 22  4  0  0  0  0
 14 15  1  0  0  0  0
 14 19  4  0  0  0  0
 15 16  1  0  0  0  0
 16 17  4  0  0  0  0
 17 18  4  0  0  0  0
 19 20  4  0  0  0  0
 20 21  4  0  0  0  0
 21 22  4  0  0  0  0
M  END
>  <Name_Molregno>
352962

>  <HISTAMINE H4>
6.49

$$$$
352992
  Marvin  02231216192D 0   1.00000     0.00000     0

 24 27  0  0  0  0  0  0  0  0999 V2000
   -0.7628   -2.7610    0.0000 Cl  0  0  0  0  0  0  0  0  0
    0.0255   -3.0042    0.0000 C   0  0  0  0  0  0  0  0  0
    0.6303   -2.4430    0.0000 C   0  0  0  0  0  0  0  0  0
    1.4186   -2.6862    0.0000 C   0  0  0  0  0  0  0  0  0
    1.9330   -2.0412    0.0000 N   0  0  0  0  0  0  0  0  0
    2.7580   -2.0412    0.0000 C   0  0  0  0  0  0  0  0  0
    3.1159   -1.2979    0.0000 N   0  0  0  0  0  0  0  0  0
    2.6512   -0.6163    0.0000 C   0  0  0  0  0  0  0  0  0
    3.0092    0.1270    0.0000 C   0  0  0  0  0  0  0  0  0
    3.8319    0.1887    0.0000 N   0  0  0  0  0  0  0  0  0
    4.2966   -0.4930    0.0000 C   0  0  0  0  0  0  0  0  0
    3.9386   -1.2363    0.0000 C   0  0  0  0  0  0  0  0  0
    4.1898    0.9320    0.0000 C   0  0  0  0  0  0  0  0  0
    3.7251    1.6136    0.0000 C   0  0  0  0  0  0  0  0  0
    3.2724   -2.6862    0.0000 C   0  0  0  0  0  0  0  0  0
    3.0888   -3.4905    0.0000 C   0  0  0  0  0  0  0  0  0
    2.3455   -3.8485    0.0000 O   0  0  0  0  0  0  0  0  0
    1.6022   -3.4905    0.0000 C   0  0  0  0  0  0  0  0  0
    0.9974   -4.0517    0.0000 C   0  0  0  0  0  0  0  0  0
    0.2091   -3.8085    0.0000 C   0  0  0  0  0  0  0  0  0
    3.6936   -4.0517    0.0000 C   0  0  0  0  0  0  0  0  0
    4.4819   -3.8085    0.0000 C   0  0  0  0  0  0  0  0  0
    4.6655   -3.0042    0.0000 C   0  0  0  0  0  0  0  0  0
    4.0607   -2.4430    0.0000 C   0  0  0  0  0  0  0  0  0
  1  2  1  0  0  0  0
  2  3  4  0  0  0  0
  2 20  4  0  0  0  0
  3  4  4  0  0  0  0
  4  5  1  0  0  0  0
  4 18  4  0  0  0  0
  5  6  2  0  0  0  0
  6  7  1  0  0  0  0
  6 15  1  0  0  0  0
  7  8  1  0  0  0  0
  7 12  1  0  0  0  0
  8  9  1  0  0  0  0
  9 10  1  0  0  0  0
 10 11  1  0  0  0  0
 10 13  1  0  0  0  0
 11 12  1  0  0  0  0
 13 14  1  0  0  0  0
 15 16  4  0  0  0  0
 15 24  4  0  0  0  0
 16 17  1  0  0  0  0
 16 21  4  0  0  0  0
 17 18  1  0  0  0  0
 18 19  4  0  0  0  0
 19 20  4  0  0  0  0
 21 22  4  0  0  0  0
 22 23  4  0  0  0  0
 23 24  4  0  0  0  0
M  END
>  <Name_Molregno>
352992

>  <HISTAMINE H4>
6.54

$$$$
352993
  Marvin  02231216192D 0   1.00000     0.00000     0

 25 28  0  0  0  0  0  0  0  0999 V2000
   -0.5238   -2.6099    0.0000 Cl  0  0  0  0  0  0  0  0  0
    0.2645   -2.8531    0.0000 C   0  0  0  0  0  0  0  0  0
    0.8693   -2.2920    0.0000 C   0  0  0  0  0  0  0  0  0
    1.6576   -2.5351    0.0000 C   0  0  0  0  0  0  0  0  0
    2.1720   -1.8901    0.0000 N   0  0  0  0  0  0  0  0  0
    2.9970   -1.8901    0.0000 C   0  0  0  0  0  0  0  0  0
    3.3549   -1.1468    0.0000 N   0  0  0  0  0  0  0  0  0
    2.8902   -0.4652    0.0000 C   0  0  0  0  0  0  0  0  0
    3.2482    0.2781    0.0000 C   0  0  0  0  0  0  0  0  0
    4.0709    0.3398    0.0000 N   0  0  0  0  0  0  0  0  0
    4.5356   -0.3419    0.0000 C   0  0  0  0  0  0  0  0  0
    4.1776   -1.0852    0.0000 C   0  0  0  0  0  0  0  0  0
    4.4288    1.0831    0.0000 C   0  0  0  0  0  0  0  0  0
    3.9641    1.7647    0.0000 C   0  0  0  0  0  0  0  0  0
    5.2515    1.1447    0.0000 C   0  0  0  0  0  0  0  0  0
    3.5114   -2.5351    0.0000 C   0  0  0  0  0  0  0  0  0
    3.3278   -3.3394    0.0000 C   0  0  0  0  0  0  0  0  0
    2.5845   -3.6974    0.0000 O   0  0  0  0  0  0  0  0  0
    1.8412   -3.3394    0.0000 C   0  0  0  0  0  0  0  0  0
    1.2364   -3.9006    0.0000 C   0  0  0  0  0  0  0  0  0
    0.4481   -3.6574    0.0000 C   0  0  0  0  0  0  0  0  0
    3.9326   -3.9006    0.0000 C   0  0  0  0  0  0  0  0  0
    4.7209   -3.6574    0.0000 C   0  0  0  0  0  0  0  0  0
    4.9045   -2.8531    0.0000 C   0  0  0  0  0  0  0  0  0
    4.2997   -2.2920    0.0000 C   0  0  0  0  0  0  0  0  0
  1  2  1  0  0  0  0
  2  3  4  0  0  0  0
  2 21  4  0  0  0  0
  3  4  4  0  0  0  0
  4  5  1  0  0  0  0
  4 19  4  0  0  0  0
  5  6  2  0  0  0  0
  6  7  1  0  0  0  0
  6 16  1  0  0  0  0
  7  8  1  0  0  0  0
  7 12  1  0  0  0  0
  8  9  1  0  0  0  0
  9 10  1  0  0  0  0
 10 11  1  0  0  0  0
 10 13  1  0  0  0  0
 11 12  1  0  0  0  0
 13 14  1  0  0  0  0
 13 15  1  0  0  0  0
 16 17  4  0  0  0  0
 16 25  4  0  0  0  0
 17 18  1  0  0  0  0
 17 22  4  0  0  0  0
 18 19  1  0  0  0  0
 19 20  4  0  0  0  0
 20 21  4  0  0  0  0
 22 23  4  0  0  0  0
 23 24  4  0  0  0  0
 24 25  4  0  0  0  0
M  END
>  <Name_Molregno>
352993

>  <HISTAMINE H4>
5.97

$$$$
353058
  Marvin  02231216192D 0   1.00000     0.00000     0

 25 28  0  0  0  0  0  0  0  0999 V2000
   -0.5803   -2.5545    0.0000 Cl  0  0  0  0  0  0  0  0  0
    0.2081   -2.7977    0.0000 C   0  0  0  0  0  0  0  0  0
    0.8129   -2.2365    0.0000 C   0  0  0  0  0  0  0  0  0
    1.6012   -2.4797    0.0000 C   0  0  0  0  0  0  0  0  0
    2.1156   -1.8347    0.0000 N   0  0  0  0  0  0  0  0  0
    2.9406   -1.8347    0.0000 C   0  0  0  0  0  0  0  0  0
    3.2985   -1.0914    0.0000 N   0  0  0  0  0  0  0  0  0
    2.8338   -0.4097    0.0000 C   0  0  0  0  0  0  0  0  0
    3.1918    0.3336    0.0000 C   0  0  0  0  0  0  0  0  0
    4.0144    0.3952    0.0000 N   0  0  0  0  0  0  0  0  0
    4.4792   -0.2864    0.0000 C   0  0  0  0  0  0  0  0  0
    4.1212   -1.0297    0.0000 C   0  0  0  0  0  0  0  0  0
    4.3724    1.1385    0.0000 C   0  0  0  0  0  0  0  0  0
    5.1951    1.2002    0.0000 C   0  0  0  0  0  0  0  0  0
    5.5530    1.9435    0.0000 O   0  0  0  0  0  0  0  0  0
    3.4550   -2.4797    0.0000 C   0  0  0  0  0  0  0  0  0
    3.2714   -3.2840    0.0000 C   0  0  0  0  0  0  0  0  0
    2.5281   -3.6420    0.0000 N   0  0  0  0  0  0  0  0  0
    1.7848   -3.2840    0.0000 C   0  0  0  0  0  0  0  0  0
    1.1800   -3.8451    0.0000 C   0  0  0  0  0  0  0  0  0
    0.3917   -3.6020    0.0000 C   0  0  0  0  0  0  0  0  0
    3.8762   -3.8451    0.0000 C   0  0  0  0  0  0  0  0  0
    4.6645   -3.6020    0.0000 C   0  0  0  0  0  0  0  0  0
    4.8481   -2.7977    0.0000 C   0  0  0  0  0  0  0  0  0
    4.2433   -2.2365    0.0000 C   0  0  0  0  0  0  0  0  0
  1  2  1  0  0  0  0
  2  3  4  0  0  0  0
  2 21  4  0  0  0  0
  3  4  4  0  0  0  0
  4  5  1  0  0  0  0
  4 19  4  0  0  0  0
  5  6  2  0  0  0  0
  6  7  1  0  0  0  0
  6 16  1  0  0  0  0
  7  8  1  0  0  0  0
  7 12  1  0  0  0  0
  8  9  1  0  0  0  0
  9 10  1  0  0  0  0
 10 11  1  0  0  0  0
 10 13  1  0  0  0  0
 11 12  1  0  0  0  0
 13 14  1  0  0  0  0
 14 15  1  0  0  0  0
 16 17  4  0  0  0  0
 16 25  4  0  0  0  0
 17 18  1  0  0  0  0
 17 22  4  0  0  0  0
 18 19  1  0  0  0  0
 19 20  4  0  0  0  0
 20 21  4  0  0  0  0
 22 23  4  0  0  0  0
 23 24  4  0  0  0  0
 24 25  4  0  0  0  0
M  END
>  <Name_Molregno>
353058

>  <HISTAMINE H4>
5.33

$$$$
353068
  Marvin  02231216192D 0   1.00000     0.00000     0

 24 27  0  0  0  0  0  0  0  0999 V2000
   -0.5444   -2.1446    0.0000 Cl  0  0  0  0  0  0  0  0  0
    0.2439   -2.3878    0.0000 C   0  0  0  0  0  0  0  0  0
    0.8487   -1.8266    0.0000 C   0  0  0  0  0  0  0  0  0
    1.6370   -2.0698    0.0000 C   0  0  0  0  0  0  0  0  0
    2.1514   -1.4248    0.0000 N   0  0  0  0  0  0  0  0  0
    2.9764   -1.4248    0.0000 C   0  0  0  0  0  0  0  0  0
    3.3344   -0.6815    0.0000 N   0  0  0  0  0  0  0  0  0
    2.8696    0.0001    0.0000 C   0  0  0  0  0  0  0  0  0
    3.2276    0.7434    0.0000 C   0  0  0  0  0  0  0  0  0
    4.0503    0.8051    0.0000 N   0  0  0  0  0  0  0  0  0
    4.5150    0.1234    0.0000 C   0  0  0  0  0  0  0  0  0
    4.1571   -0.6199    0.0000 C   0  0  0  0  0  0  0  0  0
    4.4082    1.5484    0.0000 C   0  0  0  0  0  0  0  0  0
    3.4908   -2.0698    0.0000 C   0  0  0  0  0  0  0  0  0
    3.3072   -2.8741    0.0000 C   0  0  0  0  0  0  0  0  0
    2.5639   -3.2321    0.0000 O   0  0  0  0  0  0  0  0  0
    1.8206   -2.8741    0.0000 C   0  0  0  0  0  0  0  0  0
    1.2158   -3.4353    0.0000 C   0  0  0  0  0  0  0  0  0
    0.4275   -3.1921    0.0000 C   0  0  0  0  0  0  0  0  0
    3.9120   -3.4353    0.0000 C   0  0  0  0  0  0  0  0  0
    4.7003   -3.1921    0.0000 C   0  0  0  0  0  0  0  0  0
    5.3051   -3.7532    0.0000 Cl  0  0  0  0  0  0  0  0  0
    4.8839   -2.3878    0.0000 C   0  0  0  0  0  0  0  0  0
    4.2791   -1.8266    0.0000 C   0  0  0  0  0  0  0  0  0
  1  2  1  0  0  0  0
  2  3  4  0  0  0  0
  2 19  4  0  0  0  0
  3  4  4  0  0  0  0
  4  5  1  0  0  0  0
  4 17  4  0  0  0  0
  5  6  2  0  0  0  0
  6  7  1  0  0  0  0
  6 14  1  0  0  0  0
  7  8  1  0  0  0  0
  7 12  1  0  0  0  0
  8  9  1  0  0  0  0
  9 10  1  0  0  0  0
 10 11  1  0  0  0  0
 10 13  1  0  0  0  0
 11 12  1  0  0  0  0
 14 15  4  0  0  0  0
 14 24  4  0  0  0  0
 15 16  1  0  0  0  0
 15 20  4  0  0  0  0
 16 17  1  0  0  0  0
 17 18  4  0  0  0  0
 18 19  4  0  0  0  0
 20 21  4  0  0  0  0
 21 22  1  0  0  0  0
 21 23  4  0  0  0  0
 23 24  4  0  0  0  0
M  END
>  <Name_Molregno>
353068

>  <HISTAMINE H4>
6.51

$$$$
353069
  Marvin  02231216192D 0   1.00000     0.00000     0

 24 27  0  0  0  0  0  0  0  0999 V2000
   -0.7148   -2.3606    0.0000 Cl  0  0  0  0  0  0  0  0  0
    0.0735   -2.6038    0.0000 C   0  0  0  0  0  0  0  0  0
    0.6783   -2.0426    0.0000 C   0  0  0  0  0  0  0  0  0
    1.4666   -2.2858    0.0000 C   0  0  0  0  0  0  0  0  0
    1.9810   -1.6408    0.0000 N   0  0  0  0  0  0  0  0  0
    2.8060   -1.6408    0.0000 C   0  0  0  0  0  0  0  0  0
    3.1640   -0.8975    0.0000 N   0  0  0  0  0  0  0  0  0
    2.6992   -0.2158    0.0000 C   0  0  0  0  0  0  0  0  0
    3.0572    0.5275    0.0000 C   0  0  0  0  0  0  0  0  0
    3.8799    0.5891    0.0000 N   0  0  0  0  0  0  0  0  0
    4.3446   -0.0925    0.0000 C   0  0  0  0  0  0  0  0  0
    3.9866   -0.8358    0.0000 C   0  0  0  0  0  0  0  0  0
    4.2378    1.3324    0.0000 C   0  0  0  0  0  0  0  0  0
    3.3204   -2.2858    0.0000 C   0  0  0  0  0  0  0  0  0
    3.1368   -3.0901    0.0000 C   0  0  0  0  0  0  0  0  0
    2.3935   -3.4481    0.0000 O   0  0  0  0  0  0  0  0  0
    1.6502   -3.0901    0.0000 C   0  0  0  0  0  0  0  0  0
    1.0454   -3.6513    0.0000 C   0  0  0  0  0  0  0  0  0
    0.2571   -3.4081    0.0000 C   0  0  0  0  0  0  0  0  0
    3.7416   -3.6513    0.0000 C   0  0  0  0  0  0  0  0  0
    3.5580   -4.4556    0.0000 F   0  0  0  0  0  0  0  0  0
    4.5299   -3.4081    0.0000 C   0  0  0  0  0  0  0  0  0
    4.7135   -2.6038    0.0000 C   0  0  0  0  0  0  0  0  0
    4.1087   -2.0426    0.0000 C   0  0  0  0  0  0  0  0  0
  1  2  1  0  0  0  0
  2  3  4  0  0  0  0
  2 19  4  0  0  0  0
  3  4  4  0  0  0  0
  4  5  1  0  0  0  0
  4 17  4  0  0  0  0
  5  6  2  0  0  0  0
  6  7  1  0  0  0  0
  6 14  1  0  0  0  0
  7  8  1  0  0  0  0
  7 12  1  0  0  0  0
  8  9  1  0  0  0  0
  9 10  1  0  0  0  0
 10 11  1  0  0  0  0
 10 13  1  0  0  0  0
 11 12  1  0  0  0  0
 14 15  4  0  0  0  0
 14 24  4  0  0  0  0
 15 16  1  0  0  0  0
 15 20  4  0  0  0  0
 16 17  1  0  0  0  0
 17 18  4  0  0  0  0
 18 19  4  0  0  0  0
 20 21  1  0  0  0  0
 20 22  4  0  0  0  0
 22 23  4  0  0  0  0
 23 24  4  0  0  0  0
M  END
>  <Name_Molregno>
353069

>  <HISTAMINE H4>
7.56

$$$$
353070
  Marvin  02231216192D 0   1.00000     0.00000     0

 23 26  0  0  0  0  0  0  0  0999 V2000
    0.4642    2.7256    0.0000 Cl  0  0  0  0  0  0  0  0  0
    1.0689    2.1644    0.0000 C   0  0  0  0  0  0  0  0  0
    1.8573    2.4076    0.0000 C   0  0  0  0  0  0  0  0  0
    2.4620    1.8465    0.0000 C   0  0  0  0  0  0  0  0  0
    3.2053    2.2044    0.0000 O   0  0  0  0  0  0  0  0  0
    3.9486    1.8465    0.0000 C   0  0  0  0  0  0  0  0  0
    4.1322    1.0422    0.0000 C   0  0  0  0  0  0  0  0  0
    4.9206    0.7990    0.0000 C   0  0  0  0  0  0  0  0  0
    5.5253    1.3601    0.0000 C   0  0  0  0  0  0  0  0  0
    5.3418    2.1644    0.0000 C   0  0  0  0  0  0  0  0  0
    4.5534    2.4076    0.0000 C   0  0  0  0  0  0  0  0  0
    3.6178    0.3972    0.0000 C   0  0  0  0  0  0  0  0  0
    2.7928    0.3972    0.0000 N   0  0  0  0  0  0  0  0  0
    2.2785    1.0422    0.0000 C   0  0  0  0  0  0  0  0  0
    1.4901    0.7990    0.0000 C   0  0  0  0  0  0  0  0  0
    0.8853    1.3601    0.0000 C   0  0  0  0  0  0  0  0  0
    3.9758   -0.3461    0.0000 N   0  0  0  0  0  0  0  0  0
    4.7985   -0.4078    0.0000 C   0  0  0  0  0  0  0  0  0
    5.1564   -1.1511    0.0000 C   0  0  0  0  0  0  0  0  0
    4.6917   -1.8327    0.0000 N   0  0  0  0  0  0  0  0  0
    3.8690   -1.7711    0.0000 C   0  0  0  0  0  0  0  0  0
    3.5111   -1.0278    0.0000 C   0  0  0  0  0  0  0  0  0
    5.0497   -2.5760    0.0000 C   0  0  0  0  0  0  0  0  0
  1  2  1  0  0  0  0
  2  3  4  0  0  0  0
  2 16  4  0  0  0  0
  3  4  4  0  0  0  0
  4  5  1  0  0  0  0
  4 14  4  0  0  0  0
  5  6  1  0  0  0  0
  6  7  4  0  0  0  0
  6 11  4  0  0  0  0
  7  8  4  0  0  0  0
  7 12  1  0  0  0  0
  8  9  4  0  0  0  0
  9 10  4  0  0  0  0
 10 11  4  0  0  0  0
 12 13  2  0  0  0  0
 12 17  1  0  0  0  0
 13 14  1  0  0  0  0
 14 15  4  0  0  0  0
 15 16  4  0  0  0  0
 17 18  1  0  0  0  0
 17 22  1  0  0  0  0
 18 19  1  0  0  0  0
 19 20  1  0  0  0  0
 20 21  1  0  0  0  0
 20 23  1  0  0  0  0
 21 22  1  0  0  0  0
M  END
>  <Name_Molregno>
353070

>  <HISTAMINE H1>
8.11

>  <HISTAMINE H2>
5.06

>  <HISTAMINE H3>
5.04

>  <HISTAMINE H4>
7.57

$$$$
353103
  Marvin  02231216192D 0   1.00000     0.00000     0

 23 26  0  0  0  0  0  0  0  0999 V2000
    1.7204    1.2047    0.0000 O   0  0  0  0  0  0  0  0  0
    2.4637    0.8467    0.0000 C   0  0  0  0  0  0  0  0  0
    3.0684    1.4079    0.0000 C   0  0  0  0  0  0  0  0  0
    3.8568    1.1647    0.0000 C   0  0  0  0  0  0  0  0  0
    4.0404    0.3604    0.0000 C   0  0  0  0  0  0  0  0  0
    3.4356   -0.2007    0.0000 C   0  0  0  0  0  0  0  0  0
    2.6472    0.0424    0.0000 C   0  0  0  0  0  0  0  0  0
    2.1329   -0.6026    0.0000 N   0  0  0  0  0  0  0  0  0
    1.3079   -0.6026    0.0000 C   0  0  0  0  0  0  0  0  0
    0.9499   -1.3459    0.0000 N   0  0  0  0  0  0  0  0  0
    1.4147   -2.0275    0.0000 C   0  0  0  0  0  0  0  0  0
    1.0567   -2.7708    0.0000 C   0  0  0  0  0  0  0  0  0
    0.2340   -2.8325    0.0000 N   0  0  0  0  0  0  0  0  0
   -0.2307   -2.1508    0.0000 C   0  0  0  0  0  0  0  0  0
    0.1272   -1.4075    0.0000 C   0  0  0  0  0  0  0  0  0
   -0.1240   -3.5758    0.0000 C   0  0  0  0  0  0  0  0  0
    0.7935    0.0424    0.0000 C   0  0  0  0  0  0  0  0  0
    0.9771    0.8467    0.0000 C   0  0  0  0  0  0  0  0  0
    0.3723    1.4079    0.0000 C   0  0  0  0  0  0  0  0  0
   -0.4160    1.1647    0.0000 C   0  0  0  0  0  0  0  0  0
   -0.5996    0.3604    0.0000 C   0  0  0  0  0  0  0  0  0
    0.0051   -0.2007    0.0000 C   0  0  0  0  0  0  0  0  0
    4.4615    1.7259    0.0000 C   0  0  0  0  0  0  0  0  0
  1  2  1  0  0  0  0
  1 18  1  0  0  0  0
  2  3  4  0  0  0  0
  2  7  4  0  0  0  0
  3  4  4  0  0  0  0
  4  5  4  0  0  0  0
  4 23  1  0  0  0  0
  5  6  4  0  0  0  0
  6  7  4  0  0  0  0
  7  8  1  0  0  0  0
  8  9  2  0  0  0  0
  9 10  1  0  0  0  0
  9 17  1  0  0  0  0
 10 11  1  0  0  0  0
 10 15  1  0  0  0  0
 11 12  1  0  0  0  0
 12 13  1  0  0  0  0
 13 14  1  0  0  0  0
 13 16  1  0  0  0  0
 14 15  1  0  0  0  0
 17 18  4  0  0  0  0
 17 22  4  0  0  0  0
 18 19  4  0  0  0  0
 19 20  4  0  0  0  0
 20 21  4  0  0  0  0
 21 22  4  0  0  0  0
M  END
>  <Name_Molregno>
353103

>  <HISTAMINE H4>
7.1

$$$$
353128
  Marvin  02231216192D 0   1.00000     0.00000     0

 24 27  0  0  0  0  0  0  0  0999 V2000
   -0.1736    0.0140    0.0000 Cl  0  0  0  0  0  0  0  0  0
   -0.3571   -0.7903    0.0000 C   0  0  0  0  0  0  0  0  0
    0.2476   -1.3515    0.0000 C   0  0  0  0  0  0  0  0  0
    0.9909   -0.9935    0.0000 O   0  0  0  0  0  0  0  0  0
    1.7342   -1.3515    0.0000 C   0  0  0  0  0  0  0  0  0
    2.3390   -0.7903    0.0000 C   0  0  0  0  0  0  0  0  0
    3.1273   -1.0335    0.0000 C   0  0  0  0  0  0  0  0  0
    3.7321   -0.4723    0.0000 Cl  0  0  0  0  0  0  0  0  0
    3.3109   -1.8378    0.0000 C   0  0  0  0  0  0  0  0  0
    2.7062   -2.3989    0.0000 C   0  0  0  0  0  0  0  0  0
    1.9178   -2.1558    0.0000 C   0  0  0  0  0  0  0  0  0
    1.4034   -2.8008    0.0000 N   0  0  0  0  0  0  0  0  0
    0.5784   -2.8008    0.0000 C   0  0  0  0  0  0  0  0  0
    0.2205   -3.5441    0.0000 N   0  0  0  0  0  0  0  0  0
    0.6852   -4.2257    0.0000 C   0  0  0  0  0  0  0  0  0
    0.3273   -4.9690    0.0000 C   0  0  0  0  0  0  0  0  0
   -0.4954   -5.0307    0.0000 N   0  0  0  0  0  0  0  0  0
   -0.9602   -4.3490    0.0000 C   0  0  0  0  0  0  0  0  0
   -0.6022   -3.6057    0.0000 C   0  0  0  0  0  0  0  0  0
   -0.8534   -5.7740    0.0000 C   0  0  0  0  0  0  0  0  0
    0.0641   -2.1558    0.0000 C   0  0  0  0  0  0  0  0  0
   -0.7243   -2.3989    0.0000 C   0  0  0  0  0  0  0  0  0
   -1.3291   -1.8378    0.0000 C   0  0  0  0  0  0  0  0  0
   -1.1455   -1.0335    0.0000 C   0  0  0  0  0  0  0  0  0
  1  2  1  0  0  0  0
  2  3  4  0  0  0  0
  2 24  4  0  0  0  0
  3  4  1  0  0  0  0
  3 21  4  0  0  0  0
  4  5  1  0  0  0  0
  5  6  4  0  0  0  0
  5 11  4  0  0  0  0
  6  7  4  0  0  0  0
  7  8  1  0  0  0  0
  7  9  4  0  0  0  0
  9 10  4  0  0  0  0
 10 11  4  0  0  0  0
 11 12  1  0  0  0  0
 12 13  2  0  0  0  0
 13 14  1  0  0  0  0
 13 21  1  0  0  0  0
 14 15  1  0  0  0  0
 14 19  1  0  0  0  0
 15 16  1  0  0  0  0
 16 17  1  0  0  0  0
 17 18  1  0  0  0  0
 17 20  1  0  0  0  0
 18 19  1  0  0  0  0
 21 22  4  0  0  0  0
 22 23  4  0  0  0  0
 23 24  4  0  0  0  0
M  END
>  <Name_Molregno>
353128

>  <HISTAMINE H4>
7.34

$$$$
353156
  Marvin  02231216192D 0   1.00000     0.00000     0

 24 27  0  0  0  0  0  0  0  0999 V2000
    0.3236    2.9294    0.0000 Cl  0  0  0  0  0  0  0  0  0
    0.9284    2.3683    0.0000 C   0  0  0  0  0  0  0  0  0
    1.7168    2.6114    0.0000 C   0  0  0  0  0  0  0  0  0
    2.3215    2.0503    0.0000 C   0  0  0  0  0  0  0  0  0
    3.0648    2.4082    0.0000 O   0  0  0  0  0  0  0  0  0
    3.8081    2.0503    0.0000 C   0  0  0  0  0  0  0  0  0
    3.9917    1.2460    0.0000 C   0  0  0  0  0  0  0  0  0
    4.7801    1.0028    0.0000 C   0  0  0  0  0  0  0  0  0
    5.3848    1.5639    0.0000 C   0  0  0  0  0  0  0  0  0
    5.2012    2.3683    0.0000 C   0  0  0  0  0  0  0  0  0
    4.4129    2.6114    0.0000 C   0  0  0  0  0  0  0  0  0
    4.2293    3.4157    0.0000 F   0  0  0  0  0  0  0  0  0
    3.4773    0.6010    0.0000 C   0  0  0  0  0  0  0  0  0
    2.6523    0.6010    0.0000 N   0  0  0  0  0  0  0  0  0
    2.1379    1.2460    0.0000 C   0  0  0  0  0  0  0  0  0
    1.3496    1.0028    0.0000 C   0  0  0  0  0  0  0  0  0
    0.7448    1.5639    0.0000 C   0  0  0  0  0  0  0  0  0
    3.8353   -0.1423    0.0000 N   0  0  0  0  0  0  0  0  0
    4.6580   -0.2040    0.0000 C   0  0  0  0  0  0  0  0  0
    5.0159   -0.9473    0.0000 C   0  0  0  0  0  0  0  0  0
    4.5512   -1.6289    0.0000 N   0  0  0  0  0  0  0  0  0
    3.7285   -1.5673    0.0000 C   0  0  0  0  0  0  0  0  0
    3.3705   -0.8240    0.0000 C   0  0  0  0  0  0  0  0  0
    4.9091   -2.3722    0.0000 C   0  0  0  0  0  0  0  0  0
  1  2  1  0  0  0  0
  2  3  4  0  0  0  0
  2 17  4  0  0  0  0
  3  4  4  0  0  0  0
  4  5  1  0  0  0  0
  4 15  4  0  0  0  0
  5  6  1  0  0  0  0
  6  7  4  0  0  0  0
  6 11  4  0  0  0  0
  7  8  4  0  0  0  0
  7 13  1  0  0  0  0
  8  9  4  0  0  0  0
  9 10  4  0  0  0  0
 10 11  4  0  0  0  0
 11 12  1  0  0  0  0
 13 14  2  0  0  0  0
 13 18  1  0  0  0  0
 14 15  1  0  0  0  0
 15 16  4  0  0  0  0
 16 17  4  0  0  0  0
 18 19  1  0  0  0  0
 18 23  1  0  0  0  0
 19 20  1  0  0  0  0
 20 21  1  0  0  0  0
 21 22  1  0  0  0  0
 21 24  1  0  0  0  0
 22 23  1  0  0  0  0
M  END
>  <Name_Molregno>
353156

>  <HISTAMINE H4>
7.51

$$$$
354645
  Marvin  02231216192D 0   1.00000     0.00000     0

 26 27  0  0  0  0  0  0  0  0999 V2000
    6.4312    0.3436    0.0000 N   0  0  0  0  0  0  0  0  0
    5.7167    0.7561    0.0000 C   0  0  0  0  0  0  0  0  0
    5.0022    0.3436    0.0000 C   0  0  0  0  0  0  0  0  0
    5.0022   -0.4814    0.0000 C   0  0  0  0  0  0  0  0  0
    4.2878   -0.8939    0.0000 C   0  0  0  0  0  0  0  0  0
    3.5733   -0.4814    0.0000 C   0  0  0  0  0  0  0  0  0
    3.5733    0.3436    0.0000 C   0  0  0  0  0  0  0  0  0
    4.2878    0.7561    0.0000 C   0  0  0  0  0  0  0  0  0
    2.8588   -0.8939    0.0000 C   0  0  0  0  0  0  0  0  0
    2.8588   -1.7189    0.0000 C   0  0  0  0  0  0  0  0  0
    2.1444   -2.1314    0.0000 C   0  0  0  0  0  0  0  0  0
    1.4299   -1.7189    0.0000 C   0  0  0  0  0  0  0  0  0
    1.4299   -0.8939    0.0000 C   0  0  0  0  0  0  0  0  0
    2.1444   -0.4814    0.0000 C   0  0  0  0  0  0  0  0  0
    0.7154   -2.1314    0.0000 C   0  0  0  0  0  0  0  0  0
    0.0009   -1.7189    0.0000 N   0  0  0  0  0  0  0  0  0
   -0.7135   -2.1314    0.0000 C   0  0  0  0  0  0  0  0  0
   -1.4280   -1.7189    0.0000 C   0  0  0  0  0  0  0  0  0
   -2.1425   -2.1314    0.0000 C   0  0  0  0  0  0  0  0  0
   -2.8569   -1.7189    0.0000 C   0  0  0  0  0  0  0  0  0
   -3.5714   -2.1314    0.0000 C   0  0  0  0  0  0  0  0  0
    7.1456    0.7561    0.0000 C   0  0  0  0  0  0  0  0  0
    7.8601    0.3436    0.0000 C   0  0  0  0  0  0  0  0  0
    8.5746    0.7561    0.0000 C   0  0  0  0  0  0  0  0  0
    9.2891    0.3436    0.0000 C   0  0  0  0  0  0  0  0  0
   10.0035    0.7561    0.0000 C   0  0  0  0  0  0  0  0  0
  1  2  1  0  0  0  0
  1 22  1  0  0  0  0
  2  3  1  0  0  0  0
  3  4  4  0  0  0  0
  3  8  4  0  0  0  0
  4  5  4  0  0  0  0
  5  6  4  0  0  0  0
  6  7  4  0  0  0  0
  6  9  1  0  0  0  0
  7  8  4  0  0  0  0
  9 10  4  0  0  0  0
  9 14  4  0  0  0  0
 10 11  4  0  0  0  0
 11 12  4  0  0  0  0
 12 13  4  0  0  0  0
 12 15  1  0  0  0  0
 13 14  4  0  0  0  0
 15 16  1  0  0  0  0
 16 17  1  0  0  0  0
 17 18  1  0  0  0  0
 18 19  1  0  0  0  0
 19 20  1  0  0  0  0
 20 21  1  0  0  0  0
 22 23  1  0  0  0  0
 23 24  1  0  0  0  0
 24 25  1  0  0  0  0
 25 26  1  0  0  0  0
M  END
>  <Name_Molregno>
354645

>  <HISTAMINE H3>
6.12

>  <HISTAMINE H4>
5.19

$$$$
354674
  Marvin  02231216192D 0   1.00000     0.00000     0

 26 29  0  0  0  0  0  0  0  0999 V2000
    0.3833   -2.3966    0.0000 N   0  0  0  0  0  0  0  0  0
    1.0977   -2.8091    0.0000 C   0  0  0  0  0  0  0  0  0
    1.0977   -3.6341    0.0000 C   0  0  0  0  0  0  0  0  0
    0.3833   -4.0466    0.0000 C   0  0  0  0  0  0  0  0  0
   -0.3312   -3.6341    0.0000 C   0  0  0  0  0  0  0  0  0
   -0.3312   -2.8091    0.0000 C   0  0  0  0  0  0  0  0  0
    0.3833   -1.5716    0.0000 C   0  0  0  0  0  0  0  0  0
    1.0977   -1.1591    0.0000 C   0  0  0  0  0  0  0  0  0
    1.0977   -0.3341    0.0000 C   0  0  0  0  0  0  0  0  0
    1.8122    0.0784    0.0000 C   0  0  0  0  0  0  0  0  0
    2.5267   -0.3341    0.0000 C   0  0  0  0  0  0  0  0  0
    2.5267   -1.1591    0.0000 C   0  0  0  0  0  0  0  0  0
    1.8122   -1.5716    0.0000 C   0  0  0  0  0  0  0  0  0
    3.2411    0.0784    0.0000 C   0  0  0  0  0  0  0  0  0
    3.2411    0.9034    0.0000 C   0  0  0  0  0  0  0  0  0
    3.9556    1.3159    0.0000 C   0  0  0  0  0  0  0  0  0
    4.6701    0.9034    0.0000 C   0  0  0  0  0  0  0  0  0
    4.6701    0.0784    0.0000 C   0  0  0  0  0  0  0  0  0
    3.9556   -0.3341    0.0000 C   0  0  0  0  0  0  0  0  0
    5.3846    1.3159    0.0000 C   0  0  0  0  0  0  0  0  0
    6.0990    0.9034    0.0000 N   0  0  0  0  0  0  0  0  0
    6.8135    1.3159    0.0000 C   0  0  0  0  0  0  0  0  0
    7.5280    0.9034    0.0000 C   0  0  0  0  0  0  0  0  0
    7.5280    0.0784    0.0000 C   0  0  0  0  0  0  0  0  0
    6.8135   -0.3341    0.0000 C   0  0  0  0  0  0  0  0  0
    6.0990    0.0784    0.0000 C   0  0  0  0  0  0  0  0  0
  1  2  1  0  0  0  0
  1  6  1  0  0  0  0
  1  7  1  0  0  0  0
  2  3  1  0  0  0  0
  3  4  1  0  0  0  0
  4  5  1  0  0  0  0
  5  6  1  0  0  0  0
  7  8  1  0  0  0  0
  8  9  4  0  0  0  0
  8 13  4  0  0  0  0
  9 10  4  0  0  0  0
 10 11  4  0  0  0  0
 11 12  4  0  0  0  0
 11 14  1  0  0  0  0
 12 13  4  0  0  0  0
 14 15  4  0  0  0  0
 14 19  4  0  0  0  0
 15 16  4  0  0  0  0
 16 17  4  0  0  0  0
 17 18  4  0  0  0  0
 17 20  1  0  0  0  0
 18 19  4  0  0  0  0
 20 21  1  0  0  0  0
 21 22  1  0  0  0  0
 21 26  1  0  0  0  0
 22 23  1  0  0  0  0
 23 24  1  0  0  0  0
 24 25  1  0  0  0  0
 25 26  1  0  0  0  0
M  END
>  <Name_Molregno>
354674

>  <HISTAMINE H3>
8.97

>  <HISTAMINE H4>
4.6

$$$$
354740
  Marvin  02231216192D 0   1.00000     0.00000     0

 30 33  0  0  1  0  0  0  0  0999 V2000
    0.2833   -2.2295    0.0000 N   0  0  0  0  0  0  0  0  0
    0.9978   -2.6420    0.0000 C   0  0  0  0  0  0  0  0  0
    0.9978   -3.4670    0.0000 C   0  0  0  0  0  0  0  0  0
    0.2833   -3.8795    0.0000 C   0  0  0  0  0  0  0  0  0
   -0.4311   -3.4670    0.0000 C   0  0  0  0  0  0  0  0  0
   -0.4311   -2.6420    0.0000 C   0  0  0  0  0  0  0  0  0
   -1.1456   -3.8795    0.0000 C   0  0  0  0  0  0  0  0  0
    1.7123   -3.8795    0.0000 C   0  0  0  0  0  0  0  0  0
    0.2833   -1.4045    0.0000 C   0  0  0  0  0  0  0  0  0
    0.9978   -0.9920    0.0000 C   0  0  0  0  0  0  0  0  0
    0.9978   -0.1670    0.0000 C   0  0  0  0  0  0  0  0  0
    1.7123    0.2455    0.0000 C   0  0  0  0  0  0  0  0  0
    2.4268   -0.1670    0.0000 C   0  0  0  0  0  0  0  0  0
    2.4268   -0.9920    0.0000 C   0  0  0  0  0  0  0  0  0
    1.7123   -1.4045    0.0000 C   0  0  0  0  0  0  0  0  0
    3.1412    0.2455    0.0000 C   0  0  0  0  0  0  0  0  0
    3.1412    1.0705    0.0000 C   0  0  0  0  0  0  0  0  0
    3.8557    1.4830    0.0000 C   0  0  0  0  0  0  0  0  0
    4.5702    1.0705    0.0000 C   0  0  0  0  0  0  0  0  0
    4.5702    0.2455    0.0000 C   0  0  0  0  0  0  0  0  0
    3.8557   -0.1670    0.0000 C   0  0  0  0  0  0  0  0  0
    5.2846    1.4830    0.0000 C   0  0  0  0  0  0  0  0  0
    5.9991    1.0705    0.0000 N   0  0  0  0  0  0  0  0  0
    6.7136    1.4830    0.0000 C   0  0  0  0  0  0  0  0  0
    7.4281    1.0705    0.0000 C   0  0  0  0  0  0  0  0  0
    7.4281    0.2455    0.0000 C   0  0  0  0  0  0  0  0  0
    6.7136   -0.1670    0.0000 C   0  0  0  0  0  0  0  0  0
    5.9991    0.2455    0.0000 C   0  0  0  0  0  0  0  0  0
    6.7136   -0.9920    0.0000 C   0  0  0  0  0  0  0  0  0
    8.1425    1.4830    0.0000 C   0  0  0  0  0  0  0  0  0
  1  2  1  0  0  0  0
  1  6  1  0  0  0  0
  1  9  1  0  0  0  0
  2  3  1  0  0  0  0
  3  4  1  0  0  0  0
  3  8  1  0  0  0  0
  4  5  1  0  0  0  0
  5  6  1  0  0  0  0
  5  7  1  0  0  0  0
  9 10  1  0  0  0  0
 10 11  4  0  0  0  0
 10 15  4  0  0  0  0
 11 12  4  0  0  0  0
 12 13  4  0  0  0  0
 13 14  4  0  0  0  0
 13 16  1  0  0  0  0
 14 15  4  0  0  0  0
 16 17  4  0  0  0  0
 16 21  4  0  0  0  0
 17 18  4  0  0  0  0
 18 19  4  0  0  0  0
 19 20  4  0  0  0  0
 19 22  1  0  0  0  0
 20 21  4  0  0  0  0
 22 23  1  0  0  0  0
 23 24  1  0  0  0  0
 23 28  1  0  0  0  0
 24 25  1  0  0  0  0
 25 26  1  0  0  0  0
 25 30  1  0  0  0  0
 26 27  1  0  0  0  0
 27 28  1  0  0  0  0
 27 29  1  0  0  0  0
M  END
>  <Name_Molregno>
354740

>  <HISTAMINE H3>
6.4

>  <HISTAMINE H4>
4.86

$$$$
354743
  Marvin  02231216192D 0   1.00000     0.00000     0

 30 33  0  0  0  0  0  0  0  0999 V2000
   -3.4956    2.5838    0.0000 N   0  0  0  0  0  0  0  0  0
   -2.7811    2.1713    0.0000 C   0  0  0  0  0  0  0  0  0
   -2.7811    1.3463    0.0000 C   0  0  0  0  0  0  0  0  0
   -2.0667    0.9338    0.0000 C   0  0  0  0  0  0  0  0  0
   -2.0667    0.1088    0.0000 C   0  0  0  0  0  0  0  0  0
   -2.7811   -0.3037    0.0000 C   0  0  0  0  0  0  0  0  0
   -3.4956    0.1088    0.0000 C   0  0  0  0  0  0  0  0  0
   -3.4956    0.9338    0.0000 C   0  0  0  0  0  0  0  0  0
   -2.7811   -1.1287    0.0000 C   0  0  0  0  0  0  0  0  0
   -2.0667   -1.5412    0.0000 C   0  0  0  0  0  0  0  0  0
   -2.0667   -2.3662    0.0000 C   0  0  0  0  0  0  0  0  0
   -2.7811   -2.7787    0.0000 C   0  0  0  0  0  0  0  0  0
   -3.4956   -2.3662    0.0000 C   0  0  0  0  0  0  0  0  0
   -3.4956   -1.5412    0.0000 C   0  0  0  0  0  0  0  0  0
   -2.7811   -3.6037    0.0000 C   0  0  0  0  0  0  0  0  0
   -3.4956   -4.0162    0.0000 N   0  0  0  0  0  0  0  0  0
   -4.2101   -3.6037    0.0000 C   0  0  0  0  0  0  0  0  0
   -3.4956   -4.8412    0.0000 C   0  0  0  0  0  0  0  0  0
   -2.7811   -5.2537    0.0000 C   0  0  0  0  0  0  0  0  0
   -2.7811   -6.0787    0.0000 C   0  0  0  0  0  0  0  0  0
   -3.4956   -6.4912    0.0000 C   0  0  0  0  0  0  0  0  0
   -4.2101   -6.0787    0.0000 C   0  0  0  0  0  0  0  0  0
   -4.2101   -5.2537    0.0000 C   0  0  0  0  0  0  0  0  0
   -4.2101    2.1713    0.0000 C   0  0  0  0  0  0  0  0  0
   -3.4956    3.4088    0.0000 C   0  0  0  0  0  0  0  0  0
   -4.2101    3.8213    0.0000 C   0  0  0  0  0  0  0  0  0
   -4.2101    4.6463    0.0000 C   0  0  0  0  0  0  0  0  0
   -3.4956    5.0588    0.0000 C   0  0  0  0  0  0  0  0  0
   -2.7811    4.6463    0.0000 C   0  0  0  0  0  0  0  0  0
   -2.7811    3.8213    0.0000 C   0  0  0  0  0  0  0  0  0
  1  2  1  0  0  0  0
  1 24  1  0  0  0  0
  1 25  1  0  0  0  0
  2  3  1  0  0  0  0
  3  4  4  0  0  0  0
  3  8  4  0  0  0  0
  4  5  4  0  0  0  0
  5  6  4  0  0  0  0
  6  7  4  0  0  0  0
  6  9  1  0  0  0  0
  7  8  4  0  0  0  0
  9 10  4  0  0  0  0
  9 14  4  0  0  0  0
 10 11  4  0  0  0  0
 11 12  4  0  0  0  0
 12 13  4  0  0  0  0
 12 15  1  0  0  0  0
 13 14  4  0  0  0  0
 15 16  1  0  0  0  0
 16 17  1  0  0  0  0
 16 18  1  0  0  0  0
 18 19  1  0  0  0  0
 18 23  1  0  0  0  0
 19 20  1  0  0  0  0
 20 21  1  0  0  0  0
 21 22  1  0  0  0  0
 22 23  1  0  0  0  0
 25 26  1  0  0  0  0
 25 30  1  0  0  0  0
 26 27  1  0  0  0  0
 27 28  1  0  0  0  0
 28 29  1  0  0  0  0
 29 30  1  0  0  0  0
M  END
>  <Name_Molregno>
354743

>  <HISTAMINE H3>
7.43

>  <HISTAMINE H4>
5.19

$$$$
357195
  Marvin  02231216192D 0   1.00000     0.00000     0

 19 21  0  0  1  0  0  0  0  0999 V2000
   -0.1361   -2.2537    0.0000 Cl  0  0  0  0  0  0  0  0  0
    0.5784   -1.8412    0.0000 C   0  0  0  0  0  0  0  0  0
    0.5784   -1.0162    0.0000 C   0  0  0  0  0  0  0  0  0
    1.2929   -0.6037    0.0000 C   0  0  0  0  0  0  0  0  0
    2.0073   -1.0162    0.0000 C   0  0  0  0  0  0  0  0  0
    2.0073   -1.8412    0.0000 C   0  0  0  0  0  0  0  0  0
    1.2929   -2.2537    0.0000 C   0  0  0  0  0  0  0  0  0
    2.7218   -0.6037    0.0000 C   0  0  0  0  0  0  0  0  0
    3.4363   -1.0162    0.0000 N   0  0  0  0  0  0  0  0  0
    4.1507   -0.6037    0.0000 C   0  0  0  0  0  0  0  0  0
    4.8652   -1.0162    0.0000 C   0  0  0  0  0  0  0  0  0
    5.5797   -0.6037    0.0000 C   0  0  0  0  0  0  0  0  0
    5.9922    0.1107    0.0000 C   0  0  0  0  0  0  0  0  0
    6.4047   -0.6037    0.0000 C   0  0  0  0  0  0  0  0  0
    7.1192   -1.0162    0.0000 C   0  0  0  0  0  0  0  0  0
    7.8728   -0.6807    0.0000 N   0  0  0  0  0  0  0  0  0
    8.4249   -1.2938    0.0000 C   0  0  0  0  0  0  0  0  0
    8.0124   -2.0082    0.0000 N   0  0  0  0  0  0  0  0  0
    7.2054   -1.8367    0.0000 C   0  0  0  0  0  0  0  0  0
  1  2  1  0  0  0  0
  2  3  4  0  0  0  0
  2  7  4  0  0  0  0
  3  4  4  0  0  0  0
  4  5  4  0  0  0  0
  5  6  4  0  0  0  0
  5  8  1  0  0  0  0
  6  7  4  0  0  0  0
  8  9  1  0  0  0  0
  9 10  1  0  0  0  0
 10 11  1  0  0  0  0
 11 12  1  0  0  0  0
 12 13  1  0  0  0  0
 12 14  1  0  0  0  0
 13 14  1  0  0  0  0
 14 15  1  0  0  0  0
 15 16  4  0  0  0  0
 15 19  4  0  0  0  0
 16 17  4  0  0  0  0
 17 18  4  0  0  0  0
 18 19  4  0  0  0  0
M  STY  1   1 DAT
M  SAL   1  1  18
M  SDT   1 MRV_IMPLICIT_H                                        
M  SDD   1     0.0000    0.0000    DR    ALL  0       0  
M  SED   1 IMPL_H1
M  END
>  <Name_Molregno>
357195

>  <HISTAMINE H3>
8.04

>  <HISTAMINE H4>
7.36

$$$$
357220
  Marvin  02231216192D 0   1.00000     0.00000     0

 18 20  0  0  1  0  0  0  0  0999 V2000
   -0.0997   -0.1434    0.0000 N   0  0  0  0  0  0  0  0  0
    0.4523    0.4697    0.0000 C   0  0  0  0  0  0  0  0  0
    1.2060    0.1341    0.0000 C   0  0  0  0  0  0  0  0  0
    1.1198   -0.6864    0.0000 N   0  0  0  0  0  0  0  0  0
    0.3128   -0.8579    0.0000 C   0  0  0  0  0  0  0  0  0
    1.9205    0.5466    0.0000 C   0  0  0  0  0  0  0  0  0
    2.3330    1.2611    0.0000 C   0  0  0  0  0  0  0  0  0
    2.7455    0.5466    0.0000 C   0  0  0  0  0  0  0  0  0
    3.4600    0.1341    0.0000 C   0  0  0  0  0  0  0  0  0
    4.1744    0.5466    0.0000 C   0  0  0  0  0  0  0  0  0
    4.8889    0.1341    0.0000 N   0  0  0  0  0  0  0  0  0
    5.6034    0.5466    0.0000 C   0  0  0  0  0  0  0  0  0
    6.3178    0.1341    0.0000 C   0  0  0  0  0  0  0  0  0
    7.0323    0.5466    0.0000 C   0  0  0  0  0  0  0  0  0
    7.7468    0.1341    0.0000 C   0  0  0  0  0  0  0  0  0
    7.7468   -0.6909    0.0000 C   0  0  0  0  0  0  0  0  0
    7.0323   -1.1034    0.0000 C   0  0  0  0  0  0  0  0  0
    6.3178   -0.6909    0.0000 C   0  0  0  0  0  0  0  0  0
  1  2  4  0  0  0  0
  1  5  4  0  0  0  0
  2  3  4  0  0  0  0
  3  4  4  0  0  0  0
  3  6  1  0  0  0  0
  4  5  4  0  0  0  0
  6  7  1  0  0  0  0
  6  8  1  0  0  0  0
  7  8  1  0  0  0  0
  8  9  1  0  0  0  0
  9 10  1  0  0  0  0
 10 11  1  0  0  0  0
 11 12  1  0  0  0  0
 12 13  1  0  0  0  0
 13 14  1  0  0  0  0
 13 18  1  0  0  0  0
 14 15  1  0  0  0  0
 15 16  1  0  0  0  0
 16 17  1  0  0  0  0
 17 18  1  0  0  0  0
M  STY  1   1 DAT
M  SAL   1  1   1
M  SDT   1 MRV_IMPLICIT_H                                        
M  SDD   1     0.0000    0.0000    DR    ALL  0       0  
M  SED   1 IMPL_H1
M  END
>  <Name_Molregno>
357220

>  <HISTAMINE H3>
7.36

>  <HISTAMINE H4>
6.79

$$$$
357221
  Marvin  02231216192D 0   1.00000     0.00000     0

 18 20  0  0  1  0  0  0  0  0999 V2000
    7.0994    2.5698    0.0000 Cl  0  0  0  0  0  0  0  0  0
    6.3849    2.1573    0.0000 C   0  0  0  0  0  0  0  0  0
    6.3849    1.3323    0.0000 C   0  0  0  0  0  0  0  0  0
    5.6705    0.9198    0.0000 C   0  0  0  0  0  0  0  0  0
    4.9560    1.3323    0.0000 C   0  0  0  0  0  0  0  0  0
    4.9560    2.1573    0.0000 C   0  0  0  0  0  0  0  0  0
    5.6705    2.5698    0.0000 C   0  0  0  0  0  0  0  0  0
    4.2415    0.9198    0.0000 C   0  0  0  0  0  0  0  0  0
    4.2415    0.0948    0.0000 N   0  0  0  0  0  0  0  0  0
    3.5271   -0.3177    0.0000 C   0  0  0  0  0  0  0  0  0
    3.5271   -1.1427    0.0000 C   0  0  0  0  0  0  0  0  0
    3.9396   -1.8572    0.0000 C   0  0  0  0  0  0  0  0  0
    3.1146   -1.8572    0.0000 C   0  0  0  0  0  0  0  0  0
    2.4001   -2.2697    0.0000 C   0  0  0  0  0  0  0  0  0
    2.3138   -3.0902    0.0000 N   0  0  0  0  0  0  0  0  0
    1.5069   -3.2617    0.0000 C   0  0  0  0  0  0  0  0  0
    1.0944   -2.5472    0.0000 N   0  0  0  0  0  0  0  0  0
    1.6464   -1.9341    0.0000 C   0  0  0  0  0  0  0  0  0
  1  2  1  0  0  0  0
  2  3  4  0  0  0  0
  2  7  4  0  0  0  0
  3  4  4  0  0  0  0
  4  5  4  0  0  0  0
  5  6  4  0  0  0  0
  5  8  1  0  0  0  0
  6  7  4  0  0  0  0
  8  9  1  0  0  0  0
  9 10  1  0  0  0  0
 10 11  1  0  0  0  0
 11 12  1  0  0  0  0
 11 13  1  0  0  0  0
 12 13  1  0  0  0  0
 13 14  1  0  0  0  0
 14 15  4  0  0  0  0
 14 18  4  0  0  0  0
 15 16  4  0  0  0  0
 16 17  4  0  0  0  0
 17 18  4  0  0  0  0
M  STY  1   1 DAT
M  SAL   1  1  17
M  SDT   1 MRV_IMPLICIT_H                                        
M  SDD   1     0.0000    0.0000    DR    ALL  0       0  
M  SED   1 IMPL_H1
M  END
>  <Name_Molregno>
357221

>  <HISTAMINE H3>
6.44

>  <HISTAMINE H4>
6.47

$$$$
357222
  Marvin  02231216192D 0   1.00000     0.00000     0

 17 19  0  0  1  0  0  0  0  0999 V2000
    5.7474    1.8459    0.0000 N   0  0  0  0  0  0  0  0  0
    6.0024    1.0613    0.0000 C   0  0  0  0  0  0  0  0  0
    5.3349    0.5764    0.0000 C   0  0  0  0  0  0  0  0  0
    4.6675    1.0613    0.0000 N   0  0  0  0  0  0  0  0  0
    4.9224    1.8459    0.0000 C   0  0  0  0  0  0  0  0  0
    5.3349   -0.2486    0.0000 C   0  0  0  0  0  0  0  0  0
    5.7474   -0.9631    0.0000 C   0  0  0  0  0  0  0  0  0
    4.9224   -0.9631    0.0000 C   0  0  0  0  0  0  0  0  0
    4.2080   -1.3756    0.0000 C   0  0  0  0  0  0  0  0  0
    3.4935   -0.9631    0.0000 N   0  0  0  0  0  0  0  0  0
    2.7790   -1.3756    0.0000 C   0  0  0  0  0  0  0  0  0
    2.0646   -0.9631    0.0000 C   0  0  0  0  0  0  0  0  0
    1.3501   -1.3756    0.0000 C   0  0  0  0  0  0  0  0  0
    0.6356   -0.9631    0.0000 C   0  0  0  0  0  0  0  0  0
    0.6356   -0.1381    0.0000 C   0  0  0  0  0  0  0  0  0
    1.3501    0.2744    0.0000 C   0  0  0  0  0  0  0  0  0
    2.0646   -0.1381    0.0000 C   0  0  0  0  0  0  0  0  0
  1  2  4  0  0  0  0
  1  5  4  0  0  0  0
  2  3  4  0  0  0  0
  3  4  4  0  0  0  0
  3  6  1  0  0  0  0
  4  5  4  0  0  0  0
  6  7  1  0  0  0  0
  6  8  1  0  0  0  0
  7  8  1  0  0  0  0
  8  9  1  0  0  0  0
  9 10  1  0  0  0  0
 10 11  1  0  0  0  0
 11 12  1  0  0  0  0
 12 13  1  0  0  0  0
 12 17  1  0  0  0  0
 13 14  1  0  0  0  0
 14 15  1  0  0  0  0
 15 16  1  0  0  0  0
 16 17  1  0  0  0  0
M  STY  1   1 DAT
M  SAL   1  1   1
M  SDT   1 MRV_IMPLICIT_H                                        
M  SDD   1     0.0000    0.0000    DR    ALL  0       0  
M  SED   1 IMPL_H1
M  END
>  <Name_Molregno>
357222

>  <HISTAMINE H3>
6.5

>  <HISTAMINE H4>
6.47

$$$$
368800
  Marvin  02231216192D 0   1.00000     0.00000     0

 29 32  0  0  0  0  0  0  0  0999 V2000
    3.0192   -2.9668    0.0000 Cl  0  0  0  0  0  0  0  0  0
    2.6067   -2.2524    0.0000 C   0  0  0  0  0  0  0  0  0
    1.7817   -2.2524    0.0000 C   0  0  0  0  0  0  0  0  0
    1.3692   -1.5379    0.0000 C   0  0  0  0  0  0  0  0  0
    0.5442   -1.5379    0.0000 O   0  0  0  0  0  0  0  0  0
    0.1317   -0.8234    0.0000 C   0  0  0  0  0  0  0  0  0
   -0.6933   -0.8234    0.0000 C   0  0  0  0  0  0  0  0  0
   -1.1058   -0.1089    0.0000 C   0  0  0  0  0  0  0  0  0
   -1.9308   -0.1089    0.0000 N   0  0  0  0  0  0  0  0  0
   -2.3433   -0.8234    0.0000 C   0  0  0  0  0  0  0  0  0
   -3.1683   -0.8234    0.0000 C   0  0  0  0  0  0  0  0  0
   -3.5808   -0.1089    0.0000 N   0  0  0  0  0  0  0  0  0
   -3.1683    0.6055    0.0000 C   0  0  0  0  0  0  0  0  0
   -2.3433    0.6055    0.0000 C   0  0  0  0  0  0  0  0  0
   -4.4058   -0.1089    0.0000 C   0  0  0  0  0  0  0  0  0
    1.7817   -0.8234    0.0000 C   0  0  0  0  0  0  0  0  0
    2.6067   -0.8234    0.0000 C   0  0  0  0  0  0  0  0  0
    3.0192   -1.5379    0.0000 C   0  0  0  0  0  0  0  0  0
    3.8442   -1.5379    0.0000 C   0  0  0  0  0  0  0  0  0
    4.3291   -2.2053    0.0000 N   0  0  0  0  0  0  0  0  0
    5.1137   -1.9504    0.0000 C   0  0  0  0  0  0  0  0  0
    5.1137   -1.1254    0.0000 C   0  0  0  0  0  0  0  0  0
    4.3291   -0.8704    0.0000 N   0  0  0  0  0  0  0  0  0
    5.8282   -0.7129    0.0000 C   0  0  0  0  0  0  0  0  0
    5.8282    0.1121    0.0000 C   0  0  0  0  0  0  0  0  0
    6.5427   -1.1254    0.0000 C   0  0  0  0  0  0  0  0  0
    6.5427   -1.9504    0.0000 C   0  0  0  0  0  0  0  0  0
    5.8282   -2.3629    0.0000 C   0  0  0  0  0  0  0  0  0
    7.2571   -0.7129    0.0000 C   0  0  0  0  0  0  0  0  0
  1  2  1  0  0  0  0
  2  3  4  0  0  0  0
  2 18  4  0  0  0  0
  3  4  4  0  0  0  0
  4  5  1  0  0  0  0
  4 16  4  0  0  0  0
  5  6  1  0  0  0  0
  6  7  1  0  0  0  0
  7  8  1  0  0  0  0
  8  9  1  0  0  0  0
  9 10  1  0  0  0  0
  9 14  1  0  0  0  0
 10 11  1  0  0  0  0
 11 12  1  0  0  0  0
 12 13  1  0  0  0  0
 12 15  1  0  0  0  0
 13 14  1  0  0  0  0
 16 17  4  0  0  0  0
 17 18  4  0  0  0  0
 18 19  1  0  0  0  0
 19 20  4  0  0  0  0
 19 23  4  0  0  0  0
 20 21  4  0  0  0  0
 21 22  4  0  0  0  0
 21 28  4  0  0  0  0
 22 23  4  0  0  0  0
 22 24  4  0  0  0  0
 24 25  1  0  0  0  0
 24 26  4  0  0  0  0
 26 27  4  0  0  0  0
 26 29  1  0  0  0  0
 27 28  4  0  0  0  0
M  STY  1   1 DAT
M  SAL   1  1  20
M  SDT   1 MRV_IMPLICIT_H                                        
M  SDD   1     0.0000    0.0000    DR    ALL  0       0  
M  SED   1 IMPL_H1
M  END
>  <Name_Molregno>
368800

>  <HISTAMINE H4>
7.34

$$$$
368808
  Marvin  02231216192D 0   1.00000     0.00000     0

 29 32  0  0  0  0  0  0  0  0999 V2000
    2.9995   -2.8473    0.0000 Cl  0  0  0  0  0  0  0  0  0
    2.5870   -2.1328    0.0000 C   0  0  0  0  0  0  0  0  0
    1.7620   -2.1328    0.0000 C   0  0  0  0  0  0  0  0  0
    1.3495   -1.4183    0.0000 C   0  0  0  0  0  0  0  0  0
    0.5245   -1.4183    0.0000 O   0  0  0  0  0  0  0  0  0
    0.1120   -0.7039    0.0000 C   0  0  0  0  0  0  0  0  0
   -0.7130   -0.7039    0.0000 C   0  0  0  0  0  0  0  0  0
   -1.1255    0.0106    0.0000 C   0  0  0  0  0  0  0  0  0
   -1.9505    0.0106    0.0000 N   0  0  0  0  0  0  0  0  0
   -2.3630   -0.7039    0.0000 C   0  0  0  0  0  0  0  0  0
   -3.1880   -0.7039    0.0000 C   0  0  0  0  0  0  0  0  0
   -3.6005    0.0106    0.0000 N   0  0  0  0  0  0  0  0  0
   -3.1880    0.7251    0.0000 C   0  0  0  0  0  0  0  0  0
   -2.3630    0.7251    0.0000 C   0  0  0  0  0  0  0  0  0
   -4.4255    0.0106    0.0000 C   0  0  0  0  0  0  0  0  0
    1.7620   -0.7039    0.0000 C   0  0  0  0  0  0  0  0  0
    2.5870   -0.7039    0.0000 C   0  0  0  0  0  0  0  0  0
    2.9995   -1.4183    0.0000 C   0  0  0  0  0  0  0  0  0
    3.8245   -1.4183    0.0000 C   0  0  0  0  0  0  0  0  0
    4.3094   -2.0858    0.0000 N   0  0  0  0  0  0  0  0  0
    5.0940   -1.8308    0.0000 C   0  0  0  0  0  0  0  0  0
    5.0940   -1.0058    0.0000 C   0  0  0  0  0  0  0  0  0
    4.3094   -0.7509    0.0000 N   0  0  0  0  0  0  0  0  0
    5.8085   -0.5933    0.0000 C   0  0  0  0  0  0  0  0  0
    6.5229   -1.0058    0.0000 C   0  0  0  0  0  0  0  0  0
    6.5229   -1.8308    0.0000 C   0  0  0  0  0  0  0  0  0
    5.8085   -2.2433    0.0000 C   0  0  0  0  0  0  0  0  0
    7.2374   -2.2433    0.0000 C   0  0  0  0  0  0  0  0  0
    5.8085    0.2317    0.0000 C   0  0  0  0  0  0  0  0  0
  1  2  1  0  0  0  0
  2  3  4  0  0  0  0
  2 18  4  0  0  0  0
  3  4  4  0  0  0  0
  4  5  1  0  0  0  0
  4 16  4  0  0  0  0
  5  6  1  0  0  0  0
  6  7  1  0  0  0  0
  7  8  1  0  0  0  0
  8  9  1  0  0  0  0
  9 10  1  0  0  0  0
  9 14  1  0  0  0  0
 10 11  1  0  0  0  0
 11 12  1  0  0  0  0
 12 13  1  0  0  0  0
 12 15  1  0  0  0  0
 13 14  1  0  0  0  0
 16 17  4  0  0  0  0
 17 18  4  0  0  0  0
 18 19  1  0  0  0  0
 19 20  4  0  0  0  0
 19 23  4  0  0  0  0
 20 21  4  0  0  0  0
 21 22  4  0  0  0  0
 21 27  4  0  0  0  0
 22 23  4  0  0  0  0
 22 24  4  0  0  0  0
 24 25  4  0  0  0  0
 24 29  1  0  0  0  0
 25 26  4  0  0  0  0
 26 27  4  0  0  0  0
 26 28  1  0  0  0  0
M  STY  1   1 DAT
M  SAL   1  1  20
M  SDT   1 MRV_IMPLICIT_H                                        
M  SDD   1     0.0000    0.0000    DR    ALL  0       0  
M  SED   1 IMPL_H1
M  END
>  <Name_Molregno>
368808

>  <HISTAMINE H4>
7.66

$$$$
368809
  Marvin  02231216192D 0   1.00000     0.00000     0

 31 34  0  0  0  0  0  0  0  0999 V2000
    2.2381   -3.2154    0.0000 Cl  0  0  0  0  0  0  0  0  0
    1.8256   -2.5009    0.0000 C   0  0  0  0  0  0  0  0  0
    1.0006   -2.5009    0.0000 C   0  0  0  0  0  0  0  0  0
    0.5881   -1.7864    0.0000 C   0  0  0  0  0  0  0  0  0
   -0.2369   -1.7864    0.0000 O   0  0  0  0  0  0  0  0  0
   -0.6494   -1.0719    0.0000 C   0  0  0  0  0  0  0  0  0
   -1.4744   -1.0719    0.0000 C   0  0  0  0  0  0  0  0  0
   -1.8869   -0.3575    0.0000 C   0  0  0  0  0  0  0  0  0
   -2.7119   -0.3575    0.0000 N   0  0  0  0  0  0  0  0  0
   -3.1244   -1.0719    0.0000 C   0  0  0  0  0  0  0  0  0
   -3.9494   -1.0719    0.0000 C   0  0  0  0  0  0  0  0  0
   -4.3619   -0.3575    0.0000 N   0  0  0  0  0  0  0  0  0
   -3.9494    0.3570    0.0000 C   0  0  0  0  0  0  0  0  0
   -3.1244    0.3570    0.0000 C   0  0  0  0  0  0  0  0  0
   -5.1869   -0.3575    0.0000 C   0  0  0  0  0  0  0  0  0
    1.0006   -1.0719    0.0000 C   0  0  0  0  0  0  0  0  0
    1.8256   -1.0719    0.0000 C   0  0  0  0  0  0  0  0  0
    2.2381   -1.7864    0.0000 C   0  0  0  0  0  0  0  0  0
    3.0631   -1.7864    0.0000 C   0  0  0  0  0  0  0  0  0
    3.5480   -2.4539    0.0000 N   0  0  0  0  0  0  0  0  0
    4.3326   -2.1989    0.0000 C   0  0  0  0  0  0  0  0  0
    4.3326   -1.3739    0.0000 C   0  0  0  0  0  0  0  0  0
    3.5480   -1.1190    0.0000 N   0  0  0  0  0  0  0  0  0
    5.0471   -0.9614    0.0000 C   0  0  0  0  0  0  0  0  0
    5.7616   -1.3739    0.0000 C   0  0  0  0  0  0  0  0  0
    5.7616   -2.1989    0.0000 C   0  0  0  0  0  0  0  0  0
    5.0471   -2.6114    0.0000 C   0  0  0  0  0  0  0  0  0
    6.4761   -0.9614    0.0000 C   0  0  0  0  0  0  0  0  0
    7.1905   -0.5489    0.0000 C   0  0  0  0  0  0  0  0  0
    6.8886   -1.6759    0.0000 C   0  0  0  0  0  0  0  0  0
    6.0636   -0.2469    0.0000 C   0  0  0  0  0  0  0  0  0
  1  2  1  0  0  0  0
  2  3  4  0  0  0  0
  2 18  4  0  0  0  0
  3  4  4  0  0  0  0
  4  5  1  0  0  0  0
  4 16  4  0  0  0  0
  5  6  1  0  0  0  0
  6  7  1  0  0  0  0
  7  8  1  0  0  0  0
  8  9  1  0  0  0  0
  9 10  1  0  0  0  0
  9 14  1  0  0  0  0
 10 11  1  0  0  0  0
 11 12  1  0  0  0  0
 12 13  1  0  0  0  0
 12 15  1  0  0  0  0
 13 14  1  0  0  0  0
 16 17  4  0  0  0  0
 17 18  4  0  0  0  0
 18 19  1  0  0  0  0
 19 20  4  0  0  0  0
 19 23  4  0  0  0  0
 20 21  4  0  0  0  0
 21 22  4  0  0  0  0
 21 27  4  0  0  0  0
 22 23  4  0  0  0  0
 22 24  4  0  0  0  0
 24 25  4  0  0  0  0
 25 26  4  0  0  0  0
 25 28  1  0  0  0  0
 26 27  4  0  0  0  0
 28 29  1  0  0  0  0
 28 30  1  0  0  0  0
 28 31  1  0  0  0  0
M  STY  1   1 DAT
M  SAL   1  1  20
M  SDT   1 MRV_IMPLICIT_H                                        
M  SDD   1     0.0000    0.0000    DR    ALL  0       0  
M  SED   1 IMPL_H1
M  END
>  <Name_Molregno>
368809

>  <HISTAMINE H4>
7.03

$$$$
368817
  Marvin  02231216192D 0   1.00000     0.00000     0

 31 35  0  0  0  0  0  0  0  0999 V2000
    0.1301   -0.3528    0.0000 Cl  0  0  0  0  0  0  0  0  0
    0.8571   -0.7428    0.0000 C   0  0  0  0  0  0  0  0  0
    1.5583   -0.3082    0.0000 C   0  0  0  0  0  0  0  0  0
    2.2853   -0.6982    0.0000 C   0  0  0  0  0  0  0  0  0
    2.9866   -0.2636    0.0000 O   0  0  0  0  0  0  0  0  0
    3.7136   -0.6536    0.0000 C   0  0  0  0  0  0  0  0  0
    4.4148   -0.2190    0.0000 C   0  0  0  0  0  0  0  0  0
    5.1418   -0.6090    0.0000 C   0  0  0  0  0  0  0  0  0
    5.8430   -0.1743    0.0000 N   0  0  0  0  0  0  0  0  0
    5.8173    0.6503    0.0000 C   0  0  0  0  0  0  0  0  0
    6.5185    1.0849    0.0000 C   0  0  0  0  0  0  0  0  0
    7.2455    0.6949    0.0000 N   0  0  0  0  0  0  0  0  0
    7.2713   -0.1297    0.0000 C   0  0  0  0  0  0  0  0  0
    6.5700   -0.5643    0.0000 C   0  0  0  0  0  0  0  0  0
    7.9468    1.1295    0.0000 C   0  0  0  0  0  0  0  0  0
    2.3111   -1.5228    0.0000 C   0  0  0  0  0  0  0  0  0
    1.6098   -1.9574    0.0000 C   0  0  0  0  0  0  0  0  0
    0.8828   -1.5674    0.0000 C   0  0  0  0  0  0  0  0  0
    0.1816   -2.0020    0.0000 C   0  0  0  0  0  0  0  0  0
    0.1210   -2.8248    0.0000 N   0  0  0  0  0  0  0  0  0
   -0.6802   -3.0214    0.0000 C   0  0  0  0  0  0  0  0  0
   -1.1148   -2.3202    0.0000 C   0  0  0  0  0  0  0  0  0
   -0.5822   -1.6902    0.0000 N   0  0  0  0  0  0  0  0  0
   -1.9394   -2.3460    0.0000 C   0  0  0  0  0  0  0  0  0
   -2.3294   -3.0730    0.0000 C   0  0  0  0  0  0  0  0  0
   -1.8948   -3.7742    0.0000 C   0  0  0  0  0  0  0  0  0
   -1.0702   -3.7484    0.0000 C   0  0  0  0  0  0  0  0  0
   -3.1540   -3.0987    0.0000 C   0  0  0  0  0  0  0  0  0
   -3.5886   -2.3975    0.0000 C   0  0  0  0  0  0  0  0  0
   -3.1986   -1.6705    0.0000 C   0  0  0  0  0  0  0  0  0
   -2.3740   -1.6447    0.0000 C   0  0  0  0  0  0  0  0  0
  1  2  1  0  0  0  0
  2  3  4  0  0  0  0
  2 18  4  0  0  0  0
  3  4  4  0  0  0  0
  4  5  1  0  0  0  0
  4 16  4  0  0  0  0
  5  6  1  0  0  0  0
  6  7  1  0  0  0  0
  7  8  1  0  0  0  0
  8  9  1  0  0  0  0
  9 10  1  0  0  0  0
  9 14  1  0  0  0  0
 10 11  1  0  0  0  0
 11 12  1  0  0  0  0
 12 13  1  0  0  0  0
 12 15  1  0  0  0  0
 13 14  1  0  0  0  0
 16 17  4  0  0  0  0
 17 18  4  0  0  0  0
 18 19  1  0  0  0  0
 19 20  4  0  0  0  0
 19 23  4  0  0  0  0
 20 21  4  0  0  0  0
 21 22  4  0  0  0  0
 21 27  4  0  0  0  0
 22 23  4  0  0  0  0
 22 24  4  0  0  0  0
 24 25  4  0  0  0  0
 24 31  4  0  0  0  0
 25 26  4  0  0  0  0
 25 28  4  0  0  0  0
 26 27  4  0  0  0  0
 28 29  4  0  0  0  0
 29 30  4  0  0  0  0
 30 31  4  0  0  0  0
M  STY  1   1 DAT
M  SAL   1  1  20
M  SDT   1 MRV_IMPLICIT_H                                        
M  SDD   1     0.0000    0.0000    DR    ALL  0       0  
M  SED   1 IMPL_H1
M  END
>  <Name_Molregno>
368817

>  <HISTAMINE H4>
7.55

$$$$
368818
  Marvin  02231216192D 0   1.00000     0.00000     0

 32 35  0  0  1  0  0  0  0  0999 V2000
   -0.0037    0.0565    0.0000 Cl  0  0  0  0  0  0  0  0  0
    0.4088   -0.6579    0.0000 C   0  0  0  0  0  0  0  0  0
    1.2338   -0.6579    0.0000 C   0  0  0  0  0  0  0  0  0
    1.6463   -1.3724    0.0000 C   0  0  0  0  0  0  0  0  0
    1.2338   -2.0869    0.0000 C   0  0  0  0  0  0  0  0  0
    0.4088   -2.0869    0.0000 C   0  0  0  0  0  0  0  0  0
   -0.0037   -1.3724    0.0000 C   0  0  0  0  0  0  0  0  0
   -0.8287   -1.3724    0.0000 O   0  0  0  0  0  0  0  0  0
   -1.2412   -2.0869    0.0000 C   0  0  0  0  0  0  0  0  0
   -2.0662   -2.0869    0.0000 C   0  0  0  0  0  0  0  0  0
   -2.4787   -2.8014    0.0000 C   0  0  0  0  0  0  0  0  0
   -3.3037   -2.8014    0.0000 N   0  0  0  0  0  0  0  0  0
   -3.7886   -3.4688    0.0000 C   0  0  0  0  0  0  0  0  0
   -4.5733   -3.2139    0.0000 C   0  0  0  0  0  0  0  0  0
   -5.2407   -3.6988    0.0000 N   0  0  0  0  0  0  0  0  0
   -5.9944   -3.3632    0.0000 C   0  0  0  0  0  0  0  0  0
   -5.1545   -4.5193    0.0000 C   0  0  0  0  0  0  0  0  0
   -4.5733   -2.3889    0.0000 C   0  0  0  0  0  0  0  0  0
   -3.7886   -2.1339    0.0000 C   0  0  0  0  0  0  0  0  0
    2.4713   -1.3724    0.0000 C   0  0  0  0  0  0  0  0  0
    2.9562   -2.0399    0.0000 N   0  0  0  0  0  0  0  0  0
    3.7408   -1.7849    0.0000 C   0  0  0  0  0  0  0  0  0
    3.7408   -0.9599    0.0000 C   0  0  0  0  0  0  0  0  0
    2.9562   -0.7050    0.0000 N   0  0  0  0  0  0  0  0  0
    4.4553   -0.5474    0.0000 C   0  0  0  0  0  0  0  0  0
    5.1698   -0.9599    0.0000 C   0  0  0  0  0  0  0  0  0
    5.1698   -1.7849    0.0000 C   0  0  0  0  0  0  0  0  0
    4.4553   -2.1974    0.0000 C   0  0  0  0  0  0  0  0  0
    5.8843   -0.5474    0.0000 C   0  0  0  0  0  0  0  0  0
    6.5987   -0.1349    0.0000 C   0  0  0  0  0  0  0  0  0
    6.2968   -1.2619    0.0000 C   0  0  0  0  0  0  0  0  0
    5.4718    0.1671    0.0000 C   0  0  0  0  0  0  0  0  0
  1  2  1  0  0  0  0
  2  3  4  0  0  0  0
  2  7  4  0  0  0  0
  3  4  4  0  0  0  0
  4  5  4  0  0  0  0
  4 20  1  0  0  0  0
  5  6  4  0  0  0  0
  6  7  4  0  0  0  0
  7  8  1  0  0  0  0
  8  9  1  0  0  0  0
  9 10  1  0  0  0  0
 10 11  1  0  0  0  0
 11 12  1  0  0  0  0
 12 13  1  0  0  0  0
 12 19  1  0  0  0  0
 13 14  1  0  0  0  0
 14 15  1  0  0  0  0
 14 18  1  0  0  0  0
 15 16  1  0  0  0  0
 15 17  1  0  0  0  0
 18 19  1  0  0  0  0
 20 21  4  0  0  0  0
 20 24  4  0  0  0  0
 21 22  4  0  0  0  0
 22 23  4  0  0  0  0
 22 28  4  0  0  0  0
 23 24  4  0  0  0  0
 23 25  4  0  0  0  0
 25 26  4  0  0  0  0
 26 27  4  0  0  0  0
 26 29  1  0  0  0  0
 27 28  4  0  0  0  0
 29 30  1  0  0  0  0
 29 31  1  0  0  0  0
 29 32  1  0  0  0  0
M  STY  1   1 DAT
M  SAL   1  1  21
M  SDT   1 MRV_IMPLICIT_H                                        
M  SDD   1     0.0000    0.0000    DR    ALL  0       0  
M  SED   1 IMPL_H1
M  END
>  <Name_Molregno>
368818

>  <HISTAMINE H4>
6.6

$$$$
368826
  Marvin  02231216192D 0   1.00000     0.00000     0

 32 35  0  0  0  0  0  0  0  0999 V2000
    0.0130    0.0133    0.0000 Cl  0  0  0  0  0  0  0  0  0
    0.4255   -0.7012    0.0000 C   0  0  0  0  0  0  0  0  0
    1.2505   -0.7012    0.0000 C   0  0  0  0  0  0  0  0  0
    1.6630   -1.4157    0.0000 C   0  0  0  0  0  0  0  0  0
    1.2505   -2.1301    0.0000 C   0  0  0  0  0  0  0  0  0
    0.4255   -2.1301    0.0000 C   0  0  0  0  0  0  0  0  0
    0.0130   -1.4157    0.0000 C   0  0  0  0  0  0  0  0  0
   -0.8120   -1.4157    0.0000 O   0  0  0  0  0  0  0  0  0
   -1.2245   -2.1301    0.0000 C   0  0  0  0  0  0  0  0  0
   -2.0495   -2.1301    0.0000 C   0  0  0  0  0  0  0  0  0
   -2.4620   -2.8446    0.0000 C   0  0  0  0  0  0  0  0  0
   -3.2870   -2.8446    0.0000 N   0  0  0  0  0  0  0  0  0
   -3.6450   -3.5879    0.0000 C   0  0  0  0  0  0  0  0  0
   -4.4493   -3.7715    0.0000 C   0  0  0  0  0  0  0  0  0
   -5.0943   -3.2571    0.0000 C   0  0  0  0  0  0  0  0  0
   -5.0943   -2.4321    0.0000 N   0  0  0  0  0  0  0  0  0
   -4.4493   -1.9177    0.0000 C   0  0  0  0  0  0  0  0  0
   -3.6450   -2.1013    0.0000 C   0  0  0  0  0  0  0  0  0
   -5.8376   -2.0742    0.0000 C   0  0  0  0  0  0  0  0  0
    2.4880   -1.4157    0.0000 C   0  0  0  0  0  0  0  0  0
    2.9729   -2.0831    0.0000 N   0  0  0  0  0  0  0  0  0
    3.7575   -1.8282    0.0000 C   0  0  0  0  0  0  0  0  0
    3.7575   -1.0032    0.0000 C   0  0  0  0  0  0  0  0  0
    2.9729   -0.7482    0.0000 N   0  0  0  0  0  0  0  0  0
    4.4720   -0.5907    0.0000 C   0  0  0  0  0  0  0  0  0
    5.1865   -1.0032    0.0000 C   0  0  0  0  0  0  0  0  0
    5.1865   -1.8282    0.0000 C   0  0  0  0  0  0  0  0  0
    4.4720   -2.2407    0.0000 C   0  0  0  0  0  0  0  0  0
    5.9010   -0.5907    0.0000 C   0  0  0  0  0  0  0  0  0
    6.6154   -0.1782    0.0000 C   0  0  0  0  0  0  0  0  0
    6.3135   -1.3051    0.0000 C   0  0  0  0  0  0  0  0  0
    5.4885    0.1238    0.0000 C   0  0  0  0  0  0  0  0  0
  1  2  1  0  0  0  0
  2  3  4  0  0  0  0
  2  7  4  0  0  0  0
  3  4  4  0  0  0  0
  4  5  4  0  0  0  0
  4 20  1  0  0  0  0
  5  6  4  0  0  0  0
  6  7  4  0  0  0  0
  7  8  1  0  0  0  0
  8  9  1  0  0  0  0
  9 10  1  0  0  0  0
 10 11  1  0  0  0  0
 11 12  1  0  0  0  0
 12 13  1  0  0  0  0
 12 18  1  0  0  0  0
 13 14  1  0  0  0  0
 14 15  1  0  0  0  0
 15 16  1  0  0  0  0
 16 17  1  0  0  0  0
 16 19  1  0  0  0  0
 17 18  1  0  0  0  0
 20 21  4  0  0  0  0
 20 24  4  0  0  0  0
 21 22  4  0  0  0  0
 22 23  4  0  0  0  0
 22 28  4  0  0  0  0
 23 24  4  0  0  0  0
 23 25  4  0  0  0  0
 25 26  4  0  0  0  0
 26 27  4  0  0  0  0
 26 29  1  0  0  0  0
 27 28  4  0  0  0  0
 29 30  1  0  0  0  0
 29 31  1  0  0  0  0
 29 32  1  0  0  0  0
M  STY  1   1 DAT
M  SAL   1  1  21
M  SDT   1 MRV_IMPLICIT_H                                        
M  SDD   1     0.0000    0.0000    DR    ALL  0       0  
M  SED   1 IMPL_H1
M  END
>  <Name_Molregno>
368826

>  <HISTAMINE H4>
7.59

$$$$
368827
  Marvin  02231216192D 0   1.00000     0.00000     0

 31 34  0  0  0  0  0  0  0  0999 V2000
   -0.9296   -0.1654    0.0000 Cl  0  0  0  0  0  0  0  0  0
   -0.5171   -0.8799    0.0000 C   0  0  0  0  0  0  0  0  0
    0.3079   -0.8799    0.0000 C   0  0  0  0  0  0  0  0  0
    0.7204   -1.5943    0.0000 C   0  0  0  0  0  0  0  0  0
    0.3079   -2.3088    0.0000 C   0  0  0  0  0  0  0  0  0
   -0.5171   -2.3088    0.0000 C   0  0  0  0  0  0  0  0  0
   -0.9296   -1.5943    0.0000 C   0  0  0  0  0  0  0  0  0
   -1.7546   -1.5943    0.0000 O   0  0  0  0  0  0  0  0  0
   -2.1671   -2.3088    0.0000 C   0  0  0  0  0  0  0  0  0
   -2.9921   -2.3088    0.0000 C   0  0  0  0  0  0  0  0  0
   -3.4046   -3.0233    0.0000 C   0  0  0  0  0  0  0  0  0
   -4.2296   -3.0233    0.0000 N   0  0  0  0  0  0  0  0  0
   -4.6421   -3.7378    0.0000 C   0  0  0  0  0  0  0  0  0
   -5.4671   -3.7378    0.0000 C   0  0  0  0  0  0  0  0  0
   -5.8796   -3.0233    0.0000 N   0  0  0  0  0  0  0  0  0
   -5.4671   -2.3088    0.0000 C   0  0  0  0  0  0  0  0  0
   -4.6421   -2.3088    0.0000 C   0  0  0  0  0  0  0  0  0
   -6.7046   -3.0233    0.0000 C   0  0  0  0  0  0  0  0  0
    1.5454   -1.5943    0.0000 C   0  0  0  0  0  0  0  0  0
    2.0303   -2.2618    0.0000 N   0  0  0  0  0  0  0  0  0
    2.8150   -2.0068    0.0000 C   0  0  0  0  0  0  0  0  0
    2.8150   -1.1818    0.0000 C   0  0  0  0  0  0  0  0  0
    2.0303   -0.9269    0.0000 N   0  0  0  0  0  0  0  0  0
    3.5294   -0.7693    0.0000 C   0  0  0  0  0  0  0  0  0
    4.2439   -1.1818    0.0000 C   0  0  0  0  0  0  0  0  0
    4.2439   -2.0068    0.0000 C   0  0  0  0  0  0  0  0  0
    3.5294   -2.4193    0.0000 C   0  0  0  0  0  0  0  0  0
    4.9584   -0.7693    0.0000 C   0  0  0  0  0  0  0  0  0
    5.6729   -0.3568    0.0000 C   0  0  0  0  0  0  0  0  0
    5.3709   -1.4838    0.0000 C   0  0  0  0  0  0  0  0  0
    4.5459   -0.0549    0.0000 C   0  0  0  0  0  0  0  0  0
  1  2  1  0  0  0  0
  2  3  4  0  0  0  0
  2  7  4  0  0  0  0
  3  4  4  0  0  0  0
  4  5  4  0  0  0  0
  4 19  1  0  0  0  0
  5  6  4  0  0  0  0
  6  7  4  0  0  0  0
  7  8  1  0  0  0  0
  8  9  1  0  0  0  0
  9 10  1  0  0  0  0
 10 11  1  0  0  0  0
 11 12  1  0  0  0  0
 12 13  1  0  0  0  0
 12 17  1  0  0  0  0
 13 14  1  0  0  0  0
 14 15  1  0  0  0  0
 15 16  1  0  0  0  0
 15 18  1  0  0  0  0
 16 17  1  0  0  0  0
 19 20  4  0  0  0  0
 19 23  4  0  0  0  0
 20 21  4  0  0  0  0
 21 22  4  0  0  0  0
 21 27  4  0  0  0  0
 22 23  4  0  0  0  0
 22 24  4  0  0  0  0
 24 25  4  0  0  0  0
 25 26  4  0  0  0  0
 25 28  1  0  0  0  0
 26 27  4  0  0  0  0
 28 29  1  0  0  0  0
 28 30  1  0  0  0  0
 28 31  1  0  0  0  0
M  STY  1   1 DAT
M  SAL   1  1  20
M  SDT   1 MRV_IMPLICIT_H                                        
M  SDD   1     0.0000    0.0000    DR    ALL  0       0  
M  SED   1 IMPL_H1
M  END
>  <Name_Molregno>
368827

>  <HISTAMINE H4>
7.19

$$$$
368834
  Marvin  02231216192D 0   1.00000     0.00000     0

 31 34  0  0  0  0  0  0  0  0999 V2000
   -3.3855    0.1108    0.0000 O   0  0  0  0  0  0  0  0  0
   -3.7980   -0.6037    0.0000 C   0  0  0  0  0  0  0  0  0
   -4.6230   -0.6037    0.0000 C   0  0  0  0  0  0  0  0  0
   -5.0355   -1.3182    0.0000 C   0  0  0  0  0  0  0  0  0
   -5.8605   -1.3182    0.0000 N   0  0  0  0  0  0  0  0  0
   -6.2730   -2.0326    0.0000 C   0  0  0  0  0  0  0  0  0
   -7.0980   -2.0326    0.0000 C   0  0  0  0  0  0  0  0  0
   -7.5105   -1.3182    0.0000 N   0  0  0  0  0  0  0  0  0
   -7.0980   -0.6037    0.0000 C   0  0  0  0  0  0  0  0  0
   -6.2730   -0.6037    0.0000 C   0  0  0  0  0  0  0  0  0
   -8.3355   -1.3182    0.0000 C   0  0  0  0  0  0  0  0  0
   -2.5605    0.1108    0.0000 C   0  0  0  0  0  0  0  0  0
   -2.1480    0.8253    0.0000 C   0  0  0  0  0  0  0  0  0
   -1.3230    0.8253    0.0000 C   0  0  0  0  0  0  0  0  0
   -0.9105    0.1108    0.0000 C   0  0  0  0  0  0  0  0  0
   -1.3230   -0.6037    0.0000 C   0  0  0  0  0  0  0  0  0
   -2.1480   -0.6037    0.0000 C   0  0  0  0  0  0  0  0  0
   -2.5605   -1.3182    0.0000 C   0  0  0  0  0  0  0  0  0
   -0.0855    0.1108    0.0000 C   0  0  0  0  0  0  0  0  0
    0.3994   -0.5567    0.0000 N   0  0  0  0  0  0  0  0  0
    1.1840   -0.3017    0.0000 C   0  0  0  0  0  0  0  0  0
    1.1840    0.5233    0.0000 C   0  0  0  0  0  0  0  0  0
    0.3994    0.7782    0.0000 N   0  0  0  0  0  0  0  0  0
    1.8985    0.9358    0.0000 C   0  0  0  0  0  0  0  0  0
    2.6130    0.5233    0.0000 C   0  0  0  0  0  0  0  0  0
    2.6130   -0.3017    0.0000 C   0  0  0  0  0  0  0  0  0
    1.8985   -0.7142    0.0000 C   0  0  0  0  0  0  0  0  0
    3.3274    0.9358    0.0000 C   0  0  0  0  0  0  0  0  0
    4.0419    1.3483    0.0000 C   0  0  0  0  0  0  0  0  0
    3.7399    0.2213    0.0000 C   0  0  0  0  0  0  0  0  0
    2.9149    1.6503    0.0000 C   0  0  0  0  0  0  0  0  0
  1  2  1  0  0  0  0
  1 12  1  0  0  0  0
  2  3  1  0  0  0  0
  3  4  1  0  0  0  0
  4  5  1  0  0  0  0
  5  6  1  0  0  0  0
  5 10  1  0  0  0  0
  6  7  1  0  0  0  0
  7  8  1  0  0  0  0
  8  9  1  0  0  0  0
  8 11  1  0  0  0  0
  9 10  1  0  0  0  0
 12 13  4  0  0  0  0
 12 17  4  0  0  0  0
 13 14  4  0  0  0  0
 14 15  4  0  0  0  0
 15 16  4  0  0  0  0
 15 19  1  0  0  0  0
 16 17  4  0  0  0  0
 17 18  1  0  0  0  0
 19 20  4  0  0  0  0
 19 23  4  0  0  0  0
 20 21  4  0  0  0  0
 21 22  4  0  0  0  0
 21 27  4  0  0  0  0
 22 23  4  0  0  0  0
 22 24  4  0  0  0  0
 24 25  4  0  0  0  0
 25 26  4  0  0  0  0
 25 28  1  0  0  0  0
 26 27  4  0  0  0  0
 28 29  1  0  0  0  0
 28 30  1  0  0  0  0
 28 31  1  0  0  0  0
M  STY  1   1 DAT
M  SAL   1  1  20
M  SDT   1 MRV_IMPLICIT_H                                        
M  SDD   1     0.0000    0.0000    DR    ALL  0       0  
M  SED   1 IMPL_H1
M  END
>  <Name_Molregno>
368834

>  <HISTAMINE H4>
7.59

$$$$
368835
  Marvin  02231216192D 0   1.00000     0.00000     0

 30 33  0  0  0  0  0  0  0  0999 V2000
    3.3893   -2.9855    0.0000 Cl  0  0  0  0  0  0  0  0  0
    2.9768   -2.2710    0.0000 C   0  0  0  0  0  0  0  0  0
    2.1518   -2.2710    0.0000 C   0  0  0  0  0  0  0  0  0
    1.7393   -1.5566    0.0000 C   0  0  0  0  0  0  0  0  0
    0.9143   -1.5566    0.0000 O   0  0  0  0  0  0  0  0  0
    0.5018   -0.8421    0.0000 C   0  0  0  0  0  0  0  0  0
   -0.3232   -0.8421    0.0000 C   0  0  0  0  0  0  0  0  0
   -0.7357   -0.1276    0.0000 C   0  0  0  0  0  0  0  0  0
   -1.5607   -0.1276    0.0000 N   0  0  0  0  0  0  0  0  0
   -1.9186   -0.8709    0.0000 C   0  0  0  0  0  0  0  0  0
   -2.7229   -1.0545    0.0000 C   0  0  0  0  0  0  0  0  0
   -3.3679   -0.5401    0.0000 C   0  0  0  0  0  0  0  0  0
   -3.3679    0.2849    0.0000 N   0  0  0  0  0  0  0  0  0
   -2.7229    0.7992    0.0000 C   0  0  0  0  0  0  0  0  0
   -1.9186    0.6157    0.0000 C   0  0  0  0  0  0  0  0  0
   -4.1112    0.6428    0.0000 C   0  0  0  0  0  0  0  0  0
    2.1518   -0.8421    0.0000 C   0  0  0  0  0  0  0  0  0
    2.9768   -0.8421    0.0000 C   0  0  0  0  0  0  0  0  0
    3.3893   -1.5566    0.0000 C   0  0  0  0  0  0  0  0  0
    4.2143   -1.5566    0.0000 C   0  0  0  0  0  0  0  0  0
    4.6993   -2.2240    0.0000 N   0  0  0  0  0  0  0  0  0
    5.4839   -1.9691    0.0000 C   0  0  0  0  0  0  0  0  0
    5.4839   -1.1441    0.0000 C   0  0  0  0  0  0  0  0  0
    4.6993   -0.8891    0.0000 N   0  0  0  0  0  0  0  0  0
    6.1984   -0.7316    0.0000 C   0  0  0  0  0  0  0  0  0
    6.1984    0.0934    0.0000 C   0  0  0  0  0  0  0  0  0
    6.9128   -1.1441    0.0000 C   0  0  0  0  0  0  0  0  0
    6.9128   -1.9691    0.0000 C   0  0  0  0  0  0  0  0  0
    6.1984   -2.3816    0.0000 C   0  0  0  0  0  0  0  0  0
    7.6273   -0.7316    0.0000 C   0  0  0  0  0  0  0  0  0
  1  2  1  0  0  0  0
  2  3  4  0  0  0  0
  2 19  4  0  0  0  0
  3  4  4  0  0  0  0
  4  5  1  0  0  0  0
  4 17  4  0  0  0  0
  5  6  1  0  0  0  0
  6  7  1  0  0  0  0
  7  8  1  0  0  0  0
  8  9  1  0  0  0  0
  9 10  1  0  0  0  0
  9 15  1  0  0  0  0
 10 11  1  0  0  0  0
 11 12  1  0  0  0  0
 12 13  1  0  0  0  0
 13 14  1  0  0  0  0
 13 16  1  0  0  0  0
 14 15  1  0  0  0  0
 17 18  4  0  0  0  0
 18 19  4  0  0  0  0
 19 20  1  0  0  0  0
 20 21  4  0  0  0  0
 20 24  4  0  0  0  0
 21 22  4  0  0  0  0
 22 23  4  0  0  0  0
 22 29  4  0  0  0  0
 23 24  4  0  0  0  0
 23 25  4  0  0  0  0
 25 26  1  0  0  0  0
 25 27  4  0  0  0  0
 27 28  4  0  0  0  0
 27 30  1  0  0  0  0
 28 29  4  0  0  0  0
M  STY  1   1 DAT
M  SAL   1  1  21
M  SDT   1 MRV_IMPLICIT_H                                        
M  SDD   1     0.0000    0.0000    DR    ALL  0       0  
M  SED   1 IMPL_H1
M  END
>  <Name_Molregno>
368835

>  <HISTAMINE H4>
8.05

$$$$
368841
  Marvin  02231216192D 0   1.00000     0.00000     0

 30 33  0  0  0  0  0  0  0  0999 V2000
    3.3688   -2.8710    0.0000 Cl  0  0  0  0  0  0  0  0  0
    2.9563   -2.1565    0.0000 C   0  0  0  0  0  0  0  0  0
    2.1313   -2.1565    0.0000 C   0  0  0  0  0  0  0  0  0
    1.7188   -1.4420    0.0000 C   0  0  0  0  0  0  0  0  0
    0.8938   -1.4420    0.0000 O   0  0  0  0  0  0  0  0  0
    0.4813   -0.7276    0.0000 C   0  0  0  0  0  0  0  0  0
   -0.3437   -0.7276    0.0000 C   0  0  0  0  0  0  0  0  0
   -0.7562   -0.0131    0.0000 C   0  0  0  0  0  0  0  0  0
   -1.5812   -0.0131    0.0000 N   0  0  0  0  0  0  0  0  0
   -1.9391   -0.7564    0.0000 C   0  0  0  0  0  0  0  0  0
   -2.7434   -0.9400    0.0000 C   0  0  0  0  0  0  0  0  0
   -3.3885   -0.4256    0.0000 C   0  0  0  0  0  0  0  0  0
   -3.3885    0.3994    0.0000 N   0  0  0  0  0  0  0  0  0
   -2.7434    0.9138    0.0000 C   0  0  0  0  0  0  0  0  0
   -1.9391    0.7302    0.0000 C   0  0  0  0  0  0  0  0  0
   -4.1318    0.7574    0.0000 C   0  0  0  0  0  0  0  0  0
    2.1313   -0.7276    0.0000 C   0  0  0  0  0  0  0  0  0
    2.9563   -0.7276    0.0000 C   0  0  0  0  0  0  0  0  0
    3.3688   -1.4420    0.0000 C   0  0  0  0  0  0  0  0  0
    4.1938   -1.4420    0.0000 C   0  0  0  0  0  0  0  0  0
    4.6787   -2.1095    0.0000 N   0  0  0  0  0  0  0  0  0
    5.4634   -1.8545    0.0000 C   0  0  0  0  0  0  0  0  0
    5.4634   -1.0295    0.0000 C   0  0  0  0  0  0  0  0  0
    4.6787   -0.7746    0.0000 N   0  0  0  0  0  0  0  0  0
    6.1778   -0.6170    0.0000 C   0  0  0  0  0  0  0  0  0
    6.8923   -1.0295    0.0000 C   0  0  0  0  0  0  0  0  0
    6.8923   -1.8545    0.0000 C   0  0  0  0  0  0  0  0  0
    6.1778   -2.2670    0.0000 C   0  0  0  0  0  0  0  0  0
    7.6068   -2.2670    0.0000 C   0  0  0  0  0  0  0  0  0
    6.1778    0.2080    0.0000 C   0  0  0  0  0  0  0  0  0
  1  2  1  0  0  0  0
  2  3  4  0  0  0  0
  2 19  4  0  0  0  0
  3  4  4  0  0  0  0
  4  5  1  0  0  0  0
  4 17  4  0  0  0  0
  5  6  1  0  0  0  0
  6  7  1  0  0  0  0
  7  8  1  0  0  0  0
  8  9  1  0  0  0  0
  9 10  1  0  0  0  0
  9 15  1  0  0  0  0
 10 11  1  0  0  0  0
 11 12  1  0  0  0  0
 12 13  1  0  0  0  0
 13 14  1  0  0  0  0
 13 16  1  0  0  0  0
 14 15  1  0  0  0  0
 17 18  4  0  0  0  0
 18 19  4  0  0  0  0
 19 20  1  0  0  0  0
 20 21  4  0  0  0  0
 20 24  4  0  0  0  0
 21 22  4  0  0  0  0
 22 23  4  0  0  0  0
 22 28  4  0  0  0  0
 23 24  4  0  0  0  0
 23 25  4  0  0  0  0
 25 26  4  0  0  0  0
 25 30  1  0  0  0  0
 26 27  4  0  0  0  0
 27 28  4  0  0  0  0
 27 29  1  0  0  0  0
M  STY  1   1 DAT
M  SAL   1  1  21
M  SDT   1 MRV_IMPLICIT_H                                        
M  SDD   1     0.0000    0.0000    DR    ALL  0       0  
M  SED   1 IMPL_H1
M  END
>  <Name_Molregno>
368841

>  <HISTAMINE H4>
9

$$$$
382415
  Marvin  02231216192D 0   1.00000     0.00000     0

 18 19  0  0  0  0  0  0  0  0999 V2000
   -0.7360    1.4792    0.0000 S   0  0  0  0  0  0  0  0  0
   -0.9909    0.6946    0.0000 C   0  0  0  0  0  0  0  0  0
   -1.8159    0.6946    0.0000 C   0  0  0  0  0  0  0  0  0
   -2.0709    1.4792    0.0000 N   0  0  0  0  0  0  0  0  0
   -1.4034    1.9642    0.0000 C   0  0  0  0  0  0  0  0  0
   -1.4034    2.7892    0.0000 C   0  0  0  0  0  0  0  0  0
   -0.6890    3.2017    0.0000 F   0  0  0  0  0  0  0  0  0
   -2.3008    0.0272    0.0000 C   0  0  0  0  0  0  0  0  0
   -2.7858   -0.6403    0.0000 C   0  0  0  0  0  0  0  0  0
   -3.2707   -1.3077    0.0000 C   0  0  0  0  0  0  0  0  0
   -2.9351   -2.0614    0.0000 C   0  0  0  0  0  0  0  0  0
   -3.4201   -2.7288    0.0000 C   0  0  0  0  0  0  0  0  0
   -4.2405   -2.6426    0.0000 C   0  0  0  0  0  0  0  0  0
   -4.5761   -1.8889    0.0000 C   0  0  0  0  0  0  0  0  0
   -5.3966   -1.8027    0.0000 F   0  0  0  0  0  0  0  0  0
   -4.0912   -1.2215    0.0000 C   0  0  0  0  0  0  0  0  0
   -3.0845   -3.4825    0.0000 C   0  0  0  0  0  0  0  0  0
   -2.7489   -4.2362    0.0000 N   0  0  0  0  0  0  0  0  0
  1  2  4  0  0  0  0
  1  5  4  0  0  0  0
  2  3  4  0  0  0  0
  3  4  4  0  0  0  0
  3  8  1  0  0  0  0
  4  5  4  0  0  0  0
  5  6  1  0  0  0  0
  6  7  1  0  0  0  0
  8  9  3  0  0  0  0
  9 10  1  0  0  0  0
 10 11  4  0  0  0  0
 10 16  4  0  0  0  0
 11 12  4  0  0  0  0
 12 13  4  0  0  0  0
 12 17  1  0  0  0  0
 13 14  4  0  0  0  0
 14 15  1  0  0  0  0
 14 16  4  0  0  0  0
 17 18  3  0  0  0  0
M  END
>  <Name_Molregno>
382415

>  <5-HT1A>
5

>  <5-HT1B>
5

>  <5-HT1D>
5

>  <5-HT1E>
5

>  <5-HT2A>
5

>  <5-HT2C>
5

>  <5-HT3>
5

>  <5-HT5>
5

>  <5-HT6>
5

>  <5-HT7>
5

>  <Alpha-1A>
5

>  <Alpha-1B>
5

>  <Alpha-2A>
5

>  <Alpha-2B>
5

>  <Alpha-2C>
5

>  <Beta-1>
5

>  <Beta-2>
5

>  <DOPAMINE D1>
5

>  <DOPAMINE D2>
5

>  <DOPAMINE D3>
5

>  <DOPAMINE D4>
5

>  <DOPAMINE D5>
5

>  <Dopamine transporter>
5

>  <HISTAMINE H1>
5

>  <HISTAMINE H2>
5

>  <HISTAMINE H3>
5

>  <HISTAMINE H4>
5

>  <Muscarinic acetylcholine receptor M1>
5

>  <Muscarinic acetylcholine receptor M2>
5

>  <Muscarinic acetylcholine receptor M3>
5

>  <Muscarinic acetylcholine receptor M4>
5

>  <Muscarinic acetylcholine receptor M5>
5

>  <Norepinephrine transporter>
5

>  <Serotonin transporter>
5

$$$$
389011
  Marvin  02231216192D 0   1.00000     0.00000     0

 25 26  0  0  1  0  0  0  0  0999 V2000
   -2.9244    1.8604    0.0000 S   0  0  0  0  0  0  0  0  0
   -3.7494    1.8604    0.0000 O   0  0  0  0  0  0  0  0  0
   -2.0994    1.8604    0.0000 O   0  0  0  0  0  0  0  0  0
   -2.9244    2.6854    0.0000 C   0  0  0  0  0  0  0  0  0
   -3.6388    3.0979    0.0000 C   0  0  0  0  0  0  0  0  0
   -2.9244    1.0354    0.0000 C   0  0  0  0  0  0  0  0  0
   -2.2099    0.6229    0.0000 C   0  0  0  0  0  0  0  0  0
   -2.2099   -0.2021    0.0000 C   0  0  0  0  0  0  0  0  0
   -1.4954   -0.6146    0.0000 C   0  0  0  0  0  0  0  0  0
   -0.7810   -0.2021    0.0000 O   0  0  0  0  0  0  0  0  0
   -1.4954   -1.4396    0.0000 N   0  0  0  0  0  0  0  0  0
   -0.7810   -1.8521    0.0000 C   0  0  0  0  0  0  0  0  0
   -0.7810   -2.6771    0.0000 C   0  0  0  0  0  0  0  0  0
   -0.1135   -3.1620    0.0000 N   0  0  0  0  0  0  0  0  0
   -0.3685   -3.9466    0.0000 C   0  0  0  0  0  0  0  0  0
   -1.1935   -3.9466    0.0000 C   0  0  0  0  0  0  0  0  0
   -1.4484   -3.1620    0.0000 C   0  0  0  0  0  0  0  0  0
    0.6711   -2.9071    0.0000 C   0  0  0  0  0  0  0  0  0
    1.2842   -3.4591    0.0000 C   0  0  0  0  0  0  0  0  0
   -2.9244   -0.6146    0.0000 C   0  0  0  0  0  0  0  0  0
   -2.9244   -1.4396    0.0000 O   0  0  0  0  0  0  0  0  0
   -3.6388   -1.8521    0.0000 C   0  0  0  0  0  0  0  0  0
   -3.6388   -0.2021    0.0000 C   0  0  0  0  0  0  0  0  0
   -3.6388    0.6229    0.0000 C   0  0  0  0  0  0  0  0  0
   -4.3533    1.0354    0.0000 N   0  0  0  0  0  0  0  0  0
  1  2  2  0  0  0  0
  1  3  2  0  0  0  0
  1  4  1  0  0  0  0
  1  6  1  0  0  0  0
  4  5  1  0  0  0  0
  6  7  4  0  0  0  0
  6 24  4  0  0  0  0
  7  8  4  0  0  0  0
  8  9  1  0  0  0  0
  8 20  4  0  0  0  0
  9 10  2  0  0  0  0
  9 11  1  0  0  0  0
 11 12  1  0  0  0  0
 12 13  1  0  0  0  0
 13 14  1  0  0  0  0
 13 17  1  0  0  0  0
 14 15  1  0  0  0  0
 14 18  1  0  0  0  0
 15 16  1  0  0  0  0
 16 17  1  0  0  0  0
 18 19  1  0  0  0  0
 20 21  1  0  0  0  0
 20 23  4  0  0  0  0
 21 22  1  0  0  0  0
 23 24  4  0  0  0  0
 24 25  1  0  0  0  0
M  END
>  <Name_Molregno>
389011

>  <5-HT1A>
5

>  <5-HT1B>
5.76

>  <5-HT1D>
5.87

>  <5-HT1E>
5

>  <5-HT2A>
5.64

>  <5-HT2C>
5

>  <5-HT3>
5

>  <5-HT5>
5

>  <5-HT6>
5.38

>  <5-HT7>
7.47

>  <Alpha-1A>
5

>  <Alpha-1B>
5

>  <Alpha-2A>
5.95

>  <Alpha-2C>
5.81

>  <Beta-1>
5

>  <Beta-2>
5

>  <DOPAMINE D1>
5

>  <DOPAMINE D2>
8.71

>  <DOPAMINE D3>
8.51

>  <DOPAMINE D4>
5.63

>  <DOPAMINE D5>
5

>  <Dopamine transporter>
5

>  <HISTAMINE H1>
5

>  <HISTAMINE H2>
5

>  <HISTAMINE H4>
5

>  <Muscarinic acetylcholine receptor M1>
5

>  <Muscarinic acetylcholine receptor M2>
5

>  <Muscarinic acetylcholine receptor M3>
5

>  <Muscarinic acetylcholine receptor M4>
5

>  <Muscarinic acetylcholine receptor M5>
5

>  <Norepinephrine transporter>
5

>  <Serotonin transporter>
5

$$$$
429229
  Marvin  02231216192D 0   1.00000     0.00000     0

 20 22  0  0  0  0  0  0  0  0999 V2000
    0.0025    0.5641    0.0000 Cl  0  0  0  0  0  0  0  0  0
    0.7170    0.1516    0.0000 C   0  0  0  0  0  0  0  0  0
    1.4315    0.5641    0.0000 C   0  0  0  0  0  0  0  0  0
    2.1459    0.1516    0.0000 C   0  0  0  0  0  0  0  0  0
    2.8604    0.5641    0.0000 N   0  0  0  0  0  0  0  0  0
    3.5749    0.1516    0.0000 C   0  0  0  0  0  0  0  0  0
    4.2893    0.5641    0.0000 O   0  0  0  0  0  0  0  0  0
    5.0038    0.1516    0.0000 C   0  0  0  0  0  0  0  0  0
    3.5749   -0.6734    0.0000 C   0  0  0  0  0  0  0  0  0
    2.8604   -1.0859    0.0000 N   0  0  0  0  0  0  0  0  0
    2.1459   -0.6734    0.0000 C   0  0  0  0  0  0  0  0  0
    1.4315   -1.0859    0.0000 C   0  0  0  0  0  0  0  0  0
    0.7170   -0.6734    0.0000 C   0  0  0  0  0  0  0  0  0
    4.2893   -1.0859    0.0000 N   0  0  0  0  0  0  0  0  0
    5.0038   -0.6734    0.0000 C   0  0  0  0  0  0  0  0  0
    5.7183   -1.0859    0.0000 C   0  0  0  0  0  0  0  0  0
    5.7183   -1.9109    0.0000 N   0  0  0  0  0  0  0  0  0
    5.0038   -2.3234    0.0000 C   0  0  0  0  0  0  0  0  0
    4.2893   -1.9109    0.0000 C   0  0  0  0  0  0  0  0  0
    6.4328   -2.3234    0.0000 C   0  0  0  0  0  0  0  0  0
  1  2  1  0  0  0  0
  2  3  4  0  0  0  0
  2 13  4  0  0  0  0
  3  4  4  0  0  0  0
  4  5  4  0  0  0  0
  4 11  4  0  0  0  0
  5  6  4  0  0  0  0
  6  7  1  0  0  0  0
  6  9  4  0  0  0  0
  7  8  1  0  0  0  0
  9 10  4  0  0  0  0
  9 14  1  0  0  0  0
 10 11  4  0  0  0  0
 11 12  4  0  0  0  0
 12 13  4  0  0  0  0
 14 15  1  0  0  0  0
 14 19  1  0  0  0  0
 15 16  1  0  0  0  0
 16 17  1  0  0  0  0
 17 18  1  0  0  0  0
 17 20  1  0  0  0  0
 18 19  1  0  0  0  0
M  END
>  <Name_Molregno>
429229

>  <HISTAMINE H4>
7.58

$$$$
429231
  Marvin  02231216192D 0   1.00000     0.00000     0

 19 21  0  0  0  0  0  0  0  0999 V2000
   -0.6668    0.1326    0.0000 O   0  0  0  0  0  0  0  0  0
   -1.3813    0.5451    0.0000 C   0  0  0  0  0  0  0  0  0
    0.0476    0.5451    0.0000 C   0  0  0  0  0  0  0  0  0
    0.7621    0.1326    0.0000 N   0  0  0  0  0  0  0  0  0
    1.4766    0.5451    0.0000 C   0  0  0  0  0  0  0  0  0
    1.4766    1.3701    0.0000 C   0  0  0  0  0  0  0  0  0
    0.7621    1.7826    0.0000 N   0  0  0  0  0  0  0  0  0
    0.0476    1.3701    0.0000 C   0  0  0  0  0  0  0  0  0
   -0.6668    1.7826    0.0000 N   0  0  0  0  0  0  0  0  0
   -1.3813    1.3701    0.0000 C   0  0  0  0  0  0  0  0  0
   -2.0958    1.7826    0.0000 C   0  0  0  0  0  0  0  0  0
   -2.0958    2.6076    0.0000 N   0  0  0  0  0  0  0  0  0
   -1.3813    3.0201    0.0000 C   0  0  0  0  0  0  0  0  0
   -0.6668    2.6076    0.0000 C   0  0  0  0  0  0  0  0  0
   -2.8103    3.0201    0.0000 C   0  0  0  0  0  0  0  0  0
    2.1910    1.7826    0.0000 C   0  0  0  0  0  0  0  0  0
    2.9055    1.3701    0.0000 C   0  0  0  0  0  0  0  0  0
    2.9055    0.5451    0.0000 C   0  0  0  0  0  0  0  0  0
    2.1910    0.1326    0.0000 C   0  0  0  0  0  0  0  0  0
  1  2  1  0  0  0  0
  1  3  1  0  0  0  0
  3  4  4  0  0  0  0
  3  8  4  0  0  0  0
  4  5  4  0  0  0  0
  5  6  4  0  0  0  0
  5 19  4  0  0  0  0
  6  7  4  0  0  0  0
  6 16  4  0  0  0  0
  7  8  4  0  0  0  0
  8  9  1  0  0  0  0
  9 10  1  0  0  0  0
  9 14  1  0  0  0  0
 10 11  1  0  0  0  0
 11 12  1  0  0  0  0
 12 13  1  0  0  0  0
 12 15  1  0  0  0  0
 13 14  1  0  0  0  0
 16 17  4  0  0  0  0
 17 18  4  0  0  0  0
 18 19  4  0  0  0  0
M  END
>  <Name_Molregno>
429231

>  <HISTAMINE H4>
6.47

$$$$
429269
  Marvin  02231216192D 0   1.00000     0.00000     0

 22 24  0  0  0  0  0  0  0  0999 V2000
   -0.5015    0.1371    0.0000 O   0  0  0  0  0  0  0  0  0
   -0.5015   -0.6879    0.0000 C   0  0  0  0  0  0  0  0  0
   -1.2160   -1.1004    0.0000 C   0  0  0  0  0  0  0  0  0
   -1.2160   -1.9254    0.0000 C   0  0  0  0  0  0  0  0  0
   -1.9305   -0.6879    0.0000 C   0  0  0  0  0  0  0  0  0
    0.2129    0.5496    0.0000 C   0  0  0  0  0  0  0  0  0
    0.9274    0.1371    0.0000 N   0  0  0  0  0  0  0  0  0
    1.6419    0.5496    0.0000 C   0  0  0  0  0  0  0  0  0
    1.6419    1.3746    0.0000 C   0  0  0  0  0  0  0  0  0
    0.9274    1.7871    0.0000 N   0  0  0  0  0  0  0  0  0
    0.2129    1.3746    0.0000 C   0  0  0  0  0  0  0  0  0
   -0.5015    1.7871    0.0000 N   0  0  0  0  0  0  0  0  0
   -1.2160    1.3746    0.0000 C   0  0  0  0  0  0  0  0  0
   -1.9305    1.7871    0.0000 C   0  0  0  0  0  0  0  0  0
   -1.9305    2.6121    0.0000 N   0  0  0  0  0  0  0  0  0
   -1.2160    3.0246    0.0000 C   0  0  0  0  0  0  0  0  0
   -0.5015    2.6121    0.0000 C   0  0  0  0  0  0  0  0  0
   -2.6450    3.0246    0.0000 C   0  0  0  0  0  0  0  0  0
    2.3563    1.7871    0.0000 C   0  0  0  0  0  0  0  0  0
    3.0708    1.3746    0.0000 C   0  0  0  0  0  0  0  0  0
    3.0708    0.5496    0.0000 C   0  0  0  0  0  0  0  0  0
    2.3563    0.1371    0.0000 C   0  0  0  0  0  0  0  0  0
  1  2  1  0  0  0  0
  1  6  1  0  0  0  0
  2  3  1  0  0  0  0
  3  4  1  0  0  0  0
  3  5  1  0  0  0  0
  6  7  4  0  0  0  0
  6 11  4  0  0  0  0
  7  8  4  0  0  0  0
  8  9  4  0  0  0  0
  8 22  4  0  0  0  0
  9 10  4  0  0  0  0
  9 19  4  0  0  0  0
 10 11  4  0  0  0  0
 11 12  1  0  0  0  0
 12 13  1  0  0  0  0
 12 17  1  0  0  0  0
 13 14  1  0  0  0  0
 14 15  1  0  0  0  0
 15 16  1  0  0  0  0
 15 18  1  0  0  0  0
 16 17  1  0  0  0  0
 19 20  4  0  0  0  0
 20 21  4  0  0  0  0
 21 22  4  0  0  0  0
M  END
>  <Name_Molregno>
429269

>  <HISTAMINE H4>
5.24

$$$$
429270
  Marvin  02231216192D 0   1.00000     0.00000     0

 20 22  0  0  0  0  0  0  0  0999 V2000
   -0.6309    0.1799    0.0000 O   0  0  0  0  0  0  0  0  0
   -0.6309   -0.6451    0.0000 C   0  0  0  0  0  0  0  0  0
   -1.3454   -1.0576    0.0000 C   0  0  0  0  0  0  0  0  0
    0.0836    0.5924    0.0000 C   0  0  0  0  0  0  0  0  0
    0.7980    0.1799    0.0000 N   0  0  0  0  0  0  0  0  0
    1.5125    0.5924    0.0000 C   0  0  0  0  0  0  0  0  0
    1.5125    1.4174    0.0000 C   0  0  0  0  0  0  0  0  0
    0.7980    1.8299    0.0000 N   0  0  0  0  0  0  0  0  0
    0.0836    1.4174    0.0000 C   0  0  0  0  0  0  0  0  0
   -0.6309    1.8299    0.0000 N   0  0  0  0  0  0  0  0  0
   -1.3454    1.4174    0.0000 C   0  0  0  0  0  0  0  0  0
   -2.0598    1.8299    0.0000 C   0  0  0  0  0  0  0  0  0
   -2.0598    2.6549    0.0000 N   0  0  0  0  0  0  0  0  0
   -1.3454    3.0674    0.0000 C   0  0  0  0  0  0  0  0  0
   -0.6309    2.6549    0.0000 C   0  0  0  0  0  0  0  0  0
   -2.7743    3.0674    0.0000 C   0  0  0  0  0  0  0  0  0
    2.2270    1.8299    0.0000 C   0  0  0  0  0  0  0  0  0
    2.9415    1.4174    0.0000 C   0  0  0  0  0  0  0  0  0
    2.9415    0.5924    0.0000 C   0  0  0  0  0  0  0  0  0
    2.2270    0.1799    0.0000 C   0  0  0  0  0  0  0  0  0
  1  2  1  0  0  0  0
  1  4  1  0  0  0  0
  2  3  1  0  0  0  0
  4  5  4  0  0  0  0
  4  9  4  0  0  0  0
  5  6  4  0  0  0  0
  6  7  4  0  0  0  0
  6 20  4  0  0  0  0
  7  8  4  0  0  0  0
  7 17  4  0  0  0  0
  8  9  4  0  0  0  0
  9 10  1  0  0  0  0
 10 11  1  0  0  0  0
 10 15  1  0  0  0  0
 11 12  1  0  0  0  0
 12 13  1  0  0  0  0
 13 14  1  0  0  0  0
 13 16  1  0  0  0  0
 14 15  1  0  0  0  0
 17 18  4  0  0  0  0
 18 19  4  0  0  0  0
 19 20  4  0  0  0  0
M  END
>  <Name_Molregno>
429270

>  <HISTAMINE H4>
6.64

$$$$
429271
  Marvin  02231216192D 0   1.00000     0.00000     0

 24 26  0  0  0  0  0  0  0  0999 V2000
    1.1754   -0.1353    0.0000 O   0  0  0  0  0  0  0  0  0
    1.8899    0.2772    0.0000 C   0  0  0  0  0  0  0  0  0
    2.6044   -0.1353    0.0000 C   0  0  0  0  0  0  0  0  0
    3.3188    0.2772    0.0000 C   0  0  0  0  0  0  0  0  0
    4.0333   -0.1353    0.0000 N   0  0  0  0  0  0  0  0  0
    4.7478    0.2772    0.0000 C   0  0  0  0  0  0  0  0  0
    4.0333   -0.9603    0.0000 C   0  0  0  0  0  0  0  0  0
    0.4610    0.2772    0.0000 C   0  0  0  0  0  0  0  0  0
    0.4610    1.1022    0.0000 N   0  0  0  0  0  0  0  0  0
   -0.2535    1.5147    0.0000 C   0  0  0  0  0  0  0  0  0
   -0.9680    1.1022    0.0000 C   0  0  0  0  0  0  0  0  0
   -0.9680    0.2772    0.0000 N   0  0  0  0  0  0  0  0  0
   -0.2535   -0.1353    0.0000 C   0  0  0  0  0  0  0  0  0
   -0.2535   -0.9603    0.0000 N   0  0  0  0  0  0  0  0  0
    0.4610   -1.3728    0.0000 C   0  0  0  0  0  0  0  0  0
    0.4610   -2.1978    0.0000 C   0  0  0  0  0  0  0  0  0
   -0.2535   -2.6103    0.0000 N   0  0  0  0  0  0  0  0  0
   -0.9680   -2.1978    0.0000 C   0  0  0  0  0  0  0  0  0
   -0.9680   -1.3728    0.0000 C   0  0  0  0  0  0  0  0  0
   -0.2535   -3.4353    0.0000 C   0  0  0  0  0  0  0  0  0
   -1.6824    1.5147    0.0000 C   0  0  0  0  0  0  0  0  0
   -1.6824    2.3397    0.0000 C   0  0  0  0  0  0  0  0  0
   -0.9680    2.7522    0.0000 C   0  0  0  0  0  0  0  0  0
   -0.2535    2.3397    0.0000 C   0  0  0  0  0  0  0  0  0
  1  2  1  0  0  0  0
  1  8  1  0  0  0  0
  2  3  1  0  0  0  0
  3  4  1  0  0  0  0
  4  5  1  0  0  0  0
  5  6  1  0  0  0  0
  5  7  1  0  0  0  0
  8  9  4  0  0  0  0
  8 13  4  0  0  0  0
  9 10  4  0  0  0  0
 10 11  4  0  0  0  0
 10 24  4  0  0  0  0
 11 12  4  0  0  0  0
 11 21  4  0  0  0  0
 12 13  4  0  0  0  0
 13 14  1  0  0  0  0
 14 15  1  0  0  0  0
 14 19  1  0  0  0  0
 15 16  1  0  0  0  0
 16 17  1  0  0  0  0
 17 18  1  0  0  0  0
 17 20  1  0  0  0  0
 18 19  1  0  0  0  0
 21 22  4  0  0  0  0
 22 23  4  0  0  0  0
 23 24  4  0  0  0  0
M  END
>  <Name_Molregno>
429271

>  <HISTAMINE H4>
5.4

$$$$
429273
  Marvin  02231216192D 0   1.00000     0.00000     0

 24 27  0  0  0  0  0  0  0  0999 V2000
   -0.3684   -1.3483    0.0000 O   0  0  0  0  0  0  0  0  0
    0.3461   -0.9358    0.0000 C   0  0  0  0  0  0  0  0  0
    1.0606   -1.3483    0.0000 N   0  0  0  0  0  0  0  0  0
    1.7751   -0.9358    0.0000 C   0  0  0  0  0  0  0  0  0
    1.7751   -0.1108    0.0000 C   0  0  0  0  0  0  0  0  0
    1.0606    0.3017    0.0000 N   0  0  0  0  0  0  0  0  0
    0.3461   -0.1108    0.0000 C   0  0  0  0  0  0  0  0  0
   -0.3684    0.3017    0.0000 N   0  0  0  0  0  0  0  0  0
   -1.0828   -0.1108    0.0000 C   0  0  0  0  0  0  0  0  0
   -1.7973    0.3017    0.0000 C   0  0  0  0  0  0  0  0  0
   -1.7973    1.1267    0.0000 N   0  0  0  0  0  0  0  0  0
   -1.0828    1.5392    0.0000 C   0  0  0  0  0  0  0  0  0
   -0.3684    1.1267    0.0000 C   0  0  0  0  0  0  0  0  0
   -2.5118    1.5392    0.0000 C   0  0  0  0  0  0  0  0  0
    2.4895    0.3017    0.0000 C   0  0  0  0  0  0  0  0  0
    3.2040   -0.1108    0.0000 C   0  0  0  0  0  0  0  0  0
    3.2040   -0.9358    0.0000 C   0  0  0  0  0  0  0  0  0
    2.4895   -1.3483    0.0000 C   0  0  0  0  0  0  0  0  0
   -0.3684   -2.1733    0.0000 C   0  0  0  0  0  0  0  0  0
    0.3461   -2.5858    0.0000 C   0  0  0  0  0  0  0  0  0
    0.3461   -3.4108    0.0000 C   0  0  0  0  0  0  0  0  0
   -0.3684   -3.8233    0.0000 C   0  0  0  0  0  0  0  0  0
   -1.0828   -3.4108    0.0000 C   0  0  0  0  0  0  0  0  0
   -1.0828   -2.5858    0.0000 C   0  0  0  0  0  0  0  0  0
  1  2  1  0  0  0  0
  1 19  1  0  0  0  0
  2  3  4  0  0  0  0
  2  7  4  0  0  0  0
  3  4  4  0  0  0  0
  4  5  4  0  0  0  0
  4 18  4  0  0  0  0
  5  6  4  0  0  0  0
  5 15  4  0  0  0  0
  6  7  4  0  0  0  0
  7  8  1  0  0  0  0
  8  9  1  0  0  0  0
  8 13  1  0  0  0  0
  9 10  1  0  0  0  0
 10 11  1  0  0  0  0
 11 12  1  0  0  0  0
 11 14  1  0  0  0  0
 12 13  1  0  0  0  0
 15 16  4  0  0  0  0
 16 17  4  0  0  0  0
 17 18  4  0  0  0  0
 19 20  1  0  0  0  0
 19 24  1  0  0  0  0
 20 21  1  0  0  0  0
 21 22  1  0  0  0  0
 22 23  1  0  0  0  0
 23 24  1  0  0  0  0
M  END
>  <Name_Molregno>
429273

>  <HISTAMINE H4>
5.68

$$$$
429314
  Marvin  02231216192D 0   1.00000     0.00000     0

 27 30  0  0  0  0  0  0  0  0999 V2000
   -0.0105   -0.4237    0.0000 O   0  0  0  0  0  0  0  0  0
    0.7040   -0.0112    0.0000 C   0  0  0  0  0  0  0  0  0
    1.4185   -0.4237    0.0000 N   0  0  0  0  0  0  0  0  0
    2.1329   -0.0112    0.0000 C   0  0  0  0  0  0  0  0  0
    2.1329    0.8138    0.0000 C   0  0  0  0  0  0  0  0  0
    1.4185    1.2263    0.0000 N   0  0  0  0  0  0  0  0  0
    0.7040    0.8138    0.0000 C   0  0  0  0  0  0  0  0  0
   -0.0105    1.2263    0.0000 N   0  0  0  0  0  0  0  0  0
   -0.7249    0.8138    0.0000 C   0  0  0  0  0  0  0  0  0
   -1.4394    1.2263    0.0000 C   0  0  0  0  0  0  0  0  0
   -1.4394    2.0513    0.0000 N   0  0  0  0  0  0  0  0  0
   -0.7249    2.4638    0.0000 C   0  0  0  0  0  0  0  0  0
   -0.0105    2.0513    0.0000 C   0  0  0  0  0  0  0  0  0
   -2.1539    2.4638    0.0000 C   0  0  0  0  0  0  0  0  0
    2.8474    1.2263    0.0000 C   0  0  0  0  0  0  0  0  0
    3.5619    0.8138    0.0000 C   0  0  0  0  0  0  0  0  0
    3.5619   -0.0112    0.0000 C   0  0  0  0  0  0  0  0  0
    2.8474   -0.4237    0.0000 C   0  0  0  0  0  0  0  0  0
   -0.0105   -1.2487    0.0000 C   0  0  0  0  0  0  0  0  0
   -0.7249   -1.6612    0.0000 C   0  0  0  0  0  0  0  0  0
   -0.7249   -2.4862    0.0000 C   0  0  0  0  0  0  0  0  0
   -1.4394   -2.8987    0.0000 N   0  0  0  0  0  0  0  0  0
   -2.1539   -2.4862    0.0000 C   0  0  0  0  0  0  0  0  0
   -1.4394   -3.7237    0.0000 C   0  0  0  0  0  0  0  0  0
   -0.0105   -2.8987    0.0000 C   0  0  0  0  0  0  0  0  0
    0.7040   -2.4862    0.0000 C   0  0  0  0  0  0  0  0  0
    0.7040   -1.6612    0.0000 C   0  0  0  0  0  0  0  0  0
  1  2  1  0  0  0  0
  1 19  1  0  0  0  0
  2  3  4  0  0  0  0
  2  7  4  0  0  0  0
  3  4  4  0  0  0  0
  4  5  4  0  0  0  0
  4 18  4  0  0  0  0
  5  6  4  0  0  0  0
  5 15  4  0  0  0  0
  6  7  4  0  0  0  0
  7  8  1  0  0  0  0
  8  9  1  0  0  0  0
  8 13  1  0  0  0  0
  9 10  1  0  0  0  0
 10 11  1  0  0  0  0
 11 12  1  0  0  0  0
 11 14  1  0  0  0  0
 12 13  1  0  0  0  0
 15 16  4  0  0  0  0
 16 17  4  0  0  0  0
 17 18  4  0  0  0  0
 19 20  4  0  0  0  0
 19 27  4  0  0  0  0
 20 21  4  0  0  0  0
 21 22  1  0  0  0  0
 21 25  4  0  0  0  0
 22 23  1  0  0  0  0
 22 24  1  0  0  0  0
 25 26  4  0  0  0  0
 26 27  4  0  0  0  0
M  END
>  <Name_Molregno>
429314

>  <HISTAMINE H4>
5.81

$$$$
429315
  Marvin  02231216192D 0   1.00000     0.00000     0

 25 28  0  0  0  0  0  0  0  0999 V2000
   -0.1938   -0.8372    0.0000 N   0  0  0  0  0  0  0  0  0
    0.5207   -0.4247    0.0000 C   0  0  0  0  0  0  0  0  0
    0.5207    0.4003    0.0000 C   0  0  0  0  0  0  0  0  0
   -0.1938    0.8128    0.0000 N   0  0  0  0  0  0  0  0  0
   -0.9082    0.4003    0.0000 C   0  0  0  0  0  0  0  0  0
   -1.6227    0.8128    0.0000 N   0  0  0  0  0  0  0  0  0
   -2.3372    0.4003    0.0000 C   0  0  0  0  0  0  0  0  0
   -3.0516    0.8128    0.0000 C   0  0  0  0  0  0  0  0  0
   -3.0516    1.6378    0.0000 N   0  0  0  0  0  0  0  0  0
   -2.3372    2.0503    0.0000 C   0  0  0  0  0  0  0  0  0
   -1.6227    1.6378    0.0000 C   0  0  0  0  0  0  0  0  0
   -3.7661    2.0503    0.0000 C   0  0  0  0  0  0  0  0  0
   -3.7661    2.8753    0.0000 C   0  0  0  0  0  0  0  0  0
   -0.9082   -0.4247    0.0000 C   0  0  0  0  0  0  0  0  0
   -1.6227   -0.8372    0.0000 C   0  0  0  0  0  0  0  0  0
   -1.6227   -1.6622    0.0000 C   0  0  0  0  0  0  0  0  0
   -0.9082   -2.0747    0.0000 C   0  0  0  0  0  0  0  0  0
   -0.9082   -2.8997    0.0000 C   0  0  0  0  0  0  0  0  0
   -1.6227   -3.3122    0.0000 C   0  0  0  0  0  0  0  0  0
   -2.3372   -2.8997    0.0000 C   0  0  0  0  0  0  0  0  0
   -2.3372   -2.0747    0.0000 C   0  0  0  0  0  0  0  0  0
    1.2352    0.8128    0.0000 C   0  0  0  0  0  0  0  0  0
    1.9496    0.4003    0.0000 C   0  0  0  0  0  0  0  0  0
    1.9496   -0.4247    0.0000 C   0  0  0  0  0  0  0  0  0
    1.2352   -0.8372    0.0000 C   0  0  0  0  0  0  0  0  0
  1  2  4  0  0  0  0
  1 14  4  0  0  0  0
  2  3  4  0  0  0  0
  2 25  4  0  0  0  0
  3  4  4  0  0  0  0
  3 22  4  0  0  0  0
  4  5  4  0  0  0  0
  5  6  1  0  0  0  0
  5 14  4  0  0  0  0
  6  7  1  0  0  0  0
  6 11  1  0  0  0  0
  7  8  1  0  0  0  0
  8  9  1  0  0  0  0
  9 10  1  0  0  0  0
  9 12  1  0  0  0  0
 10 11  1  0  0  0  0
 12 13  1  0  0  0  0
 14 15  1  0  0  0  0
 15 16  1  0  0  0  0
 16 17  4  0  0  0  0
 16 21  4  0  0  0  0
 17 18  4  0  0  0  0
 18 19  4  0  0  0  0
 19 20  4  0  0  0  0
 20 21  4  0  0  0  0
 22 23  4  0  0  0  0
 23 24  4  0  0  0  0
 24 25  4  0  0  0  0
M  END
>  <Name_Molregno>
429315

>  <HISTAMINE H4>
5.57

$$$$
429316
  Marvin  02231216192D 0   1.00000     0.00000     0

 25 28  0  0  0  0  0  0  0  0999 V2000
   -1.0052   -0.9947    0.0000 O   0  0  0  0  0  0  0  0  0
   -0.2908   -0.5822    0.0000 C   0  0  0  0  0  0  0  0  0
    0.4237   -0.9947    0.0000 N   0  0  0  0  0  0  0  0  0
    1.1382   -0.5822    0.0000 C   0  0  0  0  0  0  0  0  0
    1.1382    0.2428    0.0000 C   0  0  0  0  0  0  0  0  0
    0.4237    0.6553    0.0000 N   0  0  0  0  0  0  0  0  0
   -0.2908    0.2428    0.0000 C   0  0  0  0  0  0  0  0  0
   -1.0052    0.6553    0.0000 N   0  0  0  0  0  0  0  0  0
   -1.7197    0.2428    0.0000 C   0  0  0  0  0  0  0  0  0
   -2.4342    0.6553    0.0000 C   0  0  0  0  0  0  0  0  0
   -2.4342    1.4803    0.0000 N   0  0  0  0  0  0  0  0  0
   -1.7197    1.8928    0.0000 C   0  0  0  0  0  0  0  0  0
   -1.0052    1.4803    0.0000 C   0  0  0  0  0  0  0  0  0
   -3.1487    1.8928    0.0000 C   0  0  0  0  0  0  0  0  0
    1.8526    0.6553    0.0000 C   0  0  0  0  0  0  0  0  0
    2.5671    0.2428    0.0000 C   0  0  0  0  0  0  0  0  0
    2.5671   -0.5822    0.0000 C   0  0  0  0  0  0  0  0  0
    1.8526   -0.9947    0.0000 C   0  0  0  0  0  0  0  0  0
   -1.0052   -1.8197    0.0000 C   0  0  0  0  0  0  0  0  0
   -0.2908   -2.2322    0.0000 C   0  0  0  0  0  0  0  0  0
   -0.2908   -3.0572    0.0000 C   0  0  0  0  0  0  0  0  0
   -1.0052   -3.4697    0.0000 C   0  0  0  0  0  0  0  0  0
   -1.7197   -3.0572    0.0000 C   0  0  0  0  0  0  0  0  0
   -1.7197   -2.2322    0.0000 C   0  0  0  0  0  0  0  0  0
   -1.0052   -4.2947    0.0000 C   0  0  0  0  0  0  0  0  0
  1  2  1  0  0  0  0
  1 19  1  0  0  0  0
  2  3  4  0  0  0  0
  2  7  4  0  0  0  0
  3  4  4  0  0  0  0
  4  5  4  0  0  0  0
  4 18  4  0  0  0  0
  5  6  4  0  0  0  0
  5 15  4  0  0  0  0
  6  7  4  0  0  0  0
  7  8  1  0  0  0  0
  8  9  1  0  0  0  0
  8 13  1  0  0  0  0
  9 10  1  0  0  0  0
 10 11  1  0  0  0  0
 11 12  1  0  0  0  0
 11 14  1  0  0  0  0
 12 13  1  0  0  0  0
 15 16  4  0  0  0  0
 16 17  4  0  0  0  0
 17 18  4  0  0  0  0
 19 20  4  0  0  0  0
 19 24  4  0  0  0  0
 20 21  4  0  0  0  0
 21 22  4  0  0  0  0
 22 23  4  0  0  0  0
 22 25  1  0  0  0  0
 23 24  4  0  0  0  0
M  END
>  <Name_Molregno>
429316

>  <HISTAMINE H4>
5.66

$$$$
429317
  Marvin  02231216192D 0   1.00000     0.00000     0

 26 29  0  0  0  0  0  0  0  0999 V2000
   -0.8471   -0.7912    0.0000 O   0  0  0  0  0  0  0  0  0
   -0.1327   -0.3788    0.0000 C   0  0  0  0  0  0  0  0  0
    0.5818   -0.7913    0.0000 N   0  0  0  0  0  0  0  0  0
    1.2963   -0.3788    0.0000 C   0  0  0  0  0  0  0  0  0
    1.2963    0.4462    0.0000 C   0  0  0  0  0  0  0  0  0
    0.5818    0.8587    0.0000 N   0  0  0  0  0  0  0  0  0
   -0.1327    0.4463    0.0000 C   0  0  0  0  0  0  0  0  0
   -0.8471    0.8588    0.0000 N   0  0  0  0  0  0  0  0  0
   -1.5616    0.4463    0.0000 C   0  0  0  0  0  0  0  0  0
   -2.2761    0.8588    0.0000 C   0  0  0  0  0  0  0  0  0
   -2.2761    1.6838    0.0000 N   0  0  0  0  0  0  0  0  0
   -1.5616    2.0963    0.0000 C   0  0  0  0  0  0  0  0  0
   -0.8471    1.6838    0.0000 C   0  0  0  0  0  0  0  0  0
   -2.9905    2.0963    0.0000 C   0  0  0  0  0  0  0  0  0
    2.0108    0.8588    0.0000 C   0  0  0  0  0  0  0  0  0
    2.7252    0.4462    0.0000 C   0  0  0  0  0  0  0  0  0
    2.7252   -0.3788    0.0000 C   0  0  0  0  0  0  0  0  0
    2.0108   -0.7913    0.0000 C   0  0  0  0  0  0  0  0  0
   -0.8471   -1.6162    0.0000 C   0  0  0  0  0  0  0  0  0
   -0.1327   -2.0288    0.0000 C   0  0  0  0  0  0  0  0  0
   -0.1327   -2.8538    0.0000 C   0  0  0  0  0  0  0  0  0
   -0.8471   -3.2663    0.0000 C   0  0  0  0  0  0  0  0  0
   -0.8471   -4.0913    0.0000 O   0  0  0  0  0  0  0  0  0
   -0.1327   -4.5038    0.0000 C   0  0  0  0  0  0  0  0  0
   -1.5616   -2.8538    0.0000 C   0  0  0  0  0  0  0  0  0
   -1.5616   -2.0288    0.0000 C   0  0  0  0  0  0  0  0  0
  1  2  1  0  0  0  0
  1 19  1  0  0  0  0
  2  3  4  0  0  0  0
  2  7  4  0  0  0  0
  3  4  4  0  0  0  0
  4  5  4  0  0  0  0
  4 18  4  0  0  0  0
  5  6  4  0  0  0  0
  5 15  4  0  0  0  0
  6  7  4  0  0  0  0
  7  8  1  0  0  0  0
  8  9  1  0  0  0  0
  8 13  1  0  0  0  0
  9 10  1  0  0  0  0
 10 11  1  0  0  0  0
 11 12  1  0  0  0  0
 11 14  1  0  0  0  0
 12 13  1  0  0  0  0
 15 16  4  0  0  0  0
 16 17  4  0  0  0  0
 17 18  4  0  0  0  0
 19 20  4  0  0  0  0
 19 26  4  0  0  0  0
 20 21  4  0  0  0  0
 21 22  4  0  0  0  0
 22 23  1  0  0  0  0
 22 25  4  0  0  0  0
 23 24  1  0  0  0  0
 25 26  4  0  0  0  0
M  END
>  <Name_Molregno>
429317

>  <HISTAMINE H4>
5.63

$$$$
429362
  Marvin  02231216192D 0   1.00000     0.00000     0

 19 21  0  0  0  0  0  0  0  0999 V2000
   -0.0849    0.0230    0.0000 Cl  0  0  0  0  0  0  0  0  0
    0.6296   -0.3895    0.0000 C   0  0  0  0  0  0  0  0  0
    1.3440    0.0230    0.0000 C   0  0  0  0  0  0  0  0  0
    2.0585   -0.3895    0.0000 C   0  0  0  0  0  0  0  0  0
    2.7730    0.0230    0.0000 N   0  0  0  0  0  0  0  0  0
    3.4874   -0.3895    0.0000 C   0  0  0  0  0  0  0  0  0
    4.2019    0.0230    0.0000 N   0  0  0  0  0  0  0  0  0
    4.2019    0.8480    0.0000 C   0  0  0  0  0  0  0  0  0
    4.9164    1.2605    0.0000 N   0  0  0  0  0  0  0  0  0
    5.0026    2.0809    0.0000 C   0  0  0  0  0  0  0  0  0
    5.8096    2.2525    0.0000 C   0  0  0  0  0  0  0  0  0
    6.2221    1.5380    0.0000 C   0  0  0  0  0  0  0  0  0
    5.6701    0.9249    0.0000 C   0  0  0  0  0  0  0  0  0
    3.4874   -1.2145    0.0000 C   0  0  0  0  0  0  0  0  0
    4.2019   -1.6270    0.0000 O   0  0  0  0  0  0  0  0  0
    2.7730   -1.6270    0.0000 N   0  0  0  0  0  0  0  0  0
    2.0585   -1.2145    0.0000 C   0  0  0  0  0  0  0  0  0
    1.3440   -1.6270    0.0000 C   0  0  0  0  0  0  0  0  0
    0.6296   -1.2145    0.0000 C   0  0  0  0  0  0  0  0  0
  1  2  1  0  0  0  0
  2  3  4  0  0  0  0
  2 19  4  0  0  0  0
  3  4  4  0  0  0  0
  4  5  1  0  0  0  0
  4 17  4  0  0  0  0
  5  6  2  0  0  0  0
  6  7  1  0  0  0  0
  6 14  1  0  0  0  0
  7  8  1  0  0  0  0
  8  9  1  0  0  0  0
  9 10  1  0  0  0  0
  9 13  1  0  0  0  0
 10 11  1  0  0  0  0
 11 12  1  0  0  0  0
 12 13  1  0  0  0  0
 14 15  2  0  0  0  0
 14 16  1  0  0  0  0
 16 17  1  0  0  0  0
 17 18  4  0  0  0  0
 18 19  4  0  0  0  0
M  END
>  <Name_Molregno>
429362

>  <HISTAMINE H4>
5.83

$$$$
429364
  Marvin  02231216192D 0   1.00000     0.00000     0

 21 23  0  0  0  0  0  0  0  0999 V2000
   -1.6627    0.2539    0.0000 F   0  0  0  0  0  0  0  0  0
   -0.9482    0.6664    0.0000 C   0  0  0  0  0  0  0  0  0
   -1.3607    1.3808    0.0000 F   0  0  0  0  0  0  0  0  0
   -0.5357   -0.0481    0.0000 F   0  0  0  0  0  0  0  0  0
   -0.2337    1.0789    0.0000 C   0  0  0  0  0  0  0  0  0
    0.4807    0.6664    0.0000 N   0  0  0  0  0  0  0  0  0
    1.1952    1.0789    0.0000 C   0  0  0  0  0  0  0  0  0
    1.1952    1.9039    0.0000 C   0  0  0  0  0  0  0  0  0
    0.4807    2.3164    0.0000 N   0  0  0  0  0  0  0  0  0
   -0.2337    1.9039    0.0000 C   0  0  0  0  0  0  0  0  0
   -0.9482    2.3164    0.0000 N   0  0  0  0  0  0  0  0  0
   -1.6627    1.9039    0.0000 C   0  0  0  0  0  0  0  0  0
   -2.3771    2.3164    0.0000 C   0  0  0  0  0  0  0  0  0
   -2.3771    3.1414    0.0000 N   0  0  0  0  0  0  0  0  0
   -1.6627    3.5539    0.0000 C   0  0  0  0  0  0  0  0  0
   -0.9482    3.1414    0.0000 C   0  0  0  0  0  0  0  0  0
   -3.0916    3.5539    0.0000 C   0  0  0  0  0  0  0  0  0
    1.9097    2.3164    0.0000 C   0  0  0  0  0  0  0  0  0
    2.6242    1.9039    0.0000 C   0  0  0  0  0  0  0  0  0
    2.6242    1.0789    0.0000 C   0  0  0  0  0  0  0  0  0
    1.9097    0.6664    0.0000 C   0  0  0  0  0  0  0  0  0
  1  2  1  0  0  0  0
  2  3  1  0  0  0  0
  2  4  1  0  0  0  0
  2  5  1  0  0  0  0
  5  6  4  0  0  0  0
  5 10  4  0  0  0  0
  6  7  4  0  0  0  0
  7  8  4  0  0  0  0
  7 21  4  0  0  0  0
  8  9  4  0  0  0  0
  8 18  4  0  0  0  0
  9 10  4  0  0  0  0
 10 11  1  0  0  0  0
 11 12  1  0  0  0  0
 11 16  1  0  0  0  0
 12 13  1  0  0  0  0
 13 14  1  0  0  0  0
 14 15  1  0  0  0  0
 14 17  1  0  0  0  0
 15 16  1  0  0  0  0
 18 19  4  0  0  0  0
 19 20  4  0  0  0  0
 20 21  4  0  0  0  0
M  END
>  <Name_Molregno>
429364

>  <HISTAMINE H4>
5.6

$$$$
429365
  Marvin  02231216192D 0   1.00000     0.00000     0

 18 20  0  0  0  0  0  0  0  0999 V2000
   -0.7670   -2.8141    0.0000 Cl  0  0  0  0  0  0  0  0  0
   -0.0525   -2.4016    0.0000 C   0  0  0  0  0  0  0  0  0
    0.6620   -2.8141    0.0000 N   0  0  0  0  0  0  0  0  0
    1.3764   -2.4016    0.0000 C   0  0  0  0  0  0  0  0  0
    1.3764   -1.5766    0.0000 C   0  0  0  0  0  0  0  0  0
    0.6620   -1.1641    0.0000 N   0  0  0  0  0  0  0  0  0
   -0.0525   -1.5766    0.0000 C   0  0  0  0  0  0  0  0  0
   -0.7670   -1.1641    0.0000 N   0  0  0  0  0  0  0  0  0
   -1.4814   -1.5766    0.0000 C   0  0  0  0  0  0  0  0  0
   -2.1959   -1.1641    0.0000 C   0  0  0  0  0  0  0  0  0
   -2.1959   -0.3391    0.0000 N   0  0  0  0  0  0  0  0  0
   -1.4814    0.0734    0.0000 C   0  0  0  0  0  0  0  0  0
   -0.7670   -0.3391    0.0000 C   0  0  0  0  0  0  0  0  0
   -2.9104    0.0734    0.0000 C   0  0  0  0  0  0  0  0  0
    2.0909   -1.1641    0.0000 C   0  0  0  0  0  0  0  0  0
    2.8054   -1.5766    0.0000 C   0  0  0  0  0  0  0  0  0
    2.8054   -2.4016    0.0000 C   0  0  0  0  0  0  0  0  0
    2.0909   -2.8141    0.0000 C   0  0  0  0  0  0  0  0  0
  1  2  1  0  0  0  0
  2  3  4  0  0  0  0
  2  7  4  0  0  0  0
  3  4  4  0  0  0  0
  4  5  4  0  0  0  0
  4 18  4  0  0  0  0
  5  6  4  0  0  0  0
  5 15  4  0  0  0  0
  6  7  4  0  0  0  0
  7  8  1  0  0  0  0
  8  9  1  0  0  0  0
  8 13  1  0  0  0  0
  9 10  1  0  0  0  0
 10 11  1  0  0  0  0
 11 12  1  0  0  0  0
 11 14  1  0  0  0  0
 12 13  1  0  0  0  0
 15 16  4  0  0  0  0
 16 17  4  0  0  0  0
 17 18  4  0  0  0  0
M  END
>  <Name_Molregno>
429365

>  <HISTAMINE H4>
6.64

$$$$
429366
  Marvin  02231216192D 0   1.00000     0.00000     0

 20 22  0  0  0  0  0  0  0  0999 V2000
   -0.1249    0.0974    0.0000 Cl  0  0  0  0  0  0  0  0  0
    0.5896   -0.3151    0.0000 C   0  0  0  0  0  0  0  0  0
    1.3040    0.0974    0.0000 C   0  0  0  0  0  0  0  0  0
    2.0185   -0.3151    0.0000 C   0  0  0  0  0  0  0  0  0
    2.7330    0.0974    0.0000 N   0  0  0  0  0  0  0  0  0
    3.4474   -0.3151    0.0000 C   0  0  0  0  0  0  0  0  0
    4.1619    0.0974    0.0000 N   0  0  0  0  0  0  0  0  0
    4.1003    0.9201    0.0000 C   0  0  0  0  0  0  0  0  0
    4.7050    1.4812    0.0000 C   0  0  0  0  0  0  0  0  0
    5.5208    1.3583    0.0000 C   0  0  0  0  0  0  0  0  0
    5.9333    0.6438    0.0000 N   0  0  0  0  0  0  0  0  0
    5.6319   -0.1242    0.0000 C   0  0  0  0  0  0  0  0  0
    4.8436   -0.3674    0.0000 C   0  0  0  0  0  0  0  0  0
    6.7560    0.7054    0.0000 C   0  0  0  0  0  0  0  0  0
    3.4474   -1.1401    0.0000 C   0  0  0  0  0  0  0  0  0
    4.1619   -1.5526    0.0000 O   0  0  0  0  0  0  0  0  0
    2.7330   -1.5526    0.0000 N   0  0  0  0  0  0  0  0  0
    2.0185   -1.1401    0.0000 C   0  0  0  0  0  0  0  0  0
    1.3040   -1.5526    0.0000 C   0  0  0  0  0  0  0  0  0
    0.5896   -1.1401    0.0000 C   0  0  0  0  0  0  0  0  0
  1  2  1  0  0  0  0
  2  3  4  0  0  0  0
  2 20  4  0  0  0  0
  3  4  4  0  0  0  0
  4  5  1  0  0  0  0
  4 18  4  0  0  0  0
  5  6  2  0  0  0  0
  6  7  1  0  0  0  0
  6 15  1  0  0  0  0
  7  8  1  0  0  0  0
  7 13  1  0  0  0  0
  8  9  1  0  0  0  0
  9 10  1  0  0  0  0
 10 11  1  0  0  0  0
 11 12  1  0  0  0  0
 11 14  1  0  0  0  0
 12 13  1  0  0  0  0
 15 16  2  0  0  0  0
 15 17  1  0  0  0  0
 17 18  1  0  0  0  0
 18 19  4  0  0  0  0
 19 20  4  0  0  0  0
M  END
>  <Name_Molregno>
429366

>  <HISTAMINE H4>
6.01

$$$$
429367
  Marvin  02231216192D 0   1.00000     0.00000     0

 25 28  0  0  0  0  0  0  0  0999 V2000
    3.0192   -3.1484    0.0000 F   0  0  0  0  0  0  0  0  0
    3.0192   -2.3234    0.0000 C   0  0  0  0  0  0  0  0  0
    2.3047   -1.9109    0.0000 C   0  0  0  0  0  0  0  0  0
    2.3047   -1.0859    0.0000 C   0  0  0  0  0  0  0  0  0
    3.0192   -0.6734    0.0000 C   0  0  0  0  0  0  0  0  0
    3.0192    0.1516    0.0000 O   0  0  0  0  0  0  0  0  0
    3.7337    0.5641    0.0000 C   0  0  0  0  0  0  0  0  0
    4.4481    0.1516    0.0000 N   0  0  0  0  0  0  0  0  0
    5.1626    0.5641    0.0000 C   0  0  0  0  0  0  0  0  0
    5.1626    1.3891    0.0000 C   0  0  0  0  0  0  0  0  0
    4.4481    1.8016    0.0000 N   0  0  0  0  0  0  0  0  0
    3.7337    1.3891    0.0000 C   0  0  0  0  0  0  0  0  0
    3.0192    1.8016    0.0000 N   0  0  0  0  0  0  0  0  0
    2.3047    1.3891    0.0000 C   0  0  0  0  0  0  0  0  0
    1.5903    1.8016    0.0000 C   0  0  0  0  0  0  0  0  0
    1.5903    2.6266    0.0000 N   0  0  0  0  0  0  0  0  0
    2.3047    3.0391    0.0000 C   0  0  0  0  0  0  0  0  0
    3.0192    2.6266    0.0000 C   0  0  0  0  0  0  0  0  0
    0.8758    3.0391    0.0000 C   0  0  0  0  0  0  0  0  0
    5.8771    1.8016    0.0000 C   0  0  0  0  0  0  0  0  0
    6.5915    1.3891    0.0000 C   0  0  0  0  0  0  0  0  0
    6.5915    0.5641    0.0000 C   0  0  0  0  0  0  0  0  0
    5.8771    0.1516    0.0000 C   0  0  0  0  0  0  0  0  0
    3.7337   -1.0859    0.0000 C   0  0  0  0  0  0  0  0  0
    3.7337   -1.9109    0.0000 C   0  0  0  0  0  0  0  0  0
  1  2  1  0  0  0  0
  2  3  4  0  0  0  0
  2 25  4  0  0  0  0
  3  4  4  0  0  0  0
  4  5  4  0  0  0  0
  5  6  1  0  0  0  0
  5 24  4  0  0  0  0
  6  7  1  0  0  0  0
  7  8  4  0  0  0  0
  7 12  4  0  0  0  0
  8  9  4  0  0  0  0
  9 10  4  0  0  0  0
  9 23  4  0  0  0  0
 10 11  4  0  0  0  0
 10 20  4  0  0  0  0
 11 12  4  0  0  0  0
 12 13  1  0  0  0  0
 13 14  1  0  0  0  0
 13 18  1  0  0  0  0
 14 15  1  0  0  0  0
 15 16  1  0  0  0  0
 16 17  1  0  0  0  0
 16 19  1  0  0  0  0
 17 18  1  0  0  0  0
 20 21  4  0  0  0  0
 21 22  4  0  0  0  0
 22 23  4  0  0  0  0
 24 25  4  0  0  0  0
M  END
>  <Name_Molregno>
429367

>  <HISTAMINE H4>
5.8

$$$$
429368
  Marvin  02231216192D 0   1.00000     0.00000     0

 25 28  0  0  0  0  0  0  0  0999 V2000
   -1.1848   -0.6826    0.0000 O   0  0  0  0  0  0  0  0  0
   -0.4703   -0.2701    0.0000 C   0  0  0  0  0  0  0  0  0
    0.2441   -0.6826    0.0000 N   0  0  0  0  0  0  0  0  0
    0.9586   -0.2701    0.0000 C   0  0  0  0  0  0  0  0  0
    0.9586    0.5549    0.0000 C   0  0  0  0  0  0  0  0  0
    0.2441    0.9674    0.0000 N   0  0  0  0  0  0  0  0  0
   -0.4703    0.5549    0.0000 C   0  0  0  0  0  0  0  0  0
   -1.1848    0.9674    0.0000 N   0  0  0  0  0  0  0  0  0
   -1.8993    0.5549    0.0000 C   0  0  0  0  0  0  0  0  0
   -2.6137    0.9674    0.0000 C   0  0  0  0  0  0  0  0  0
   -2.6137    1.7924    0.0000 N   0  0  0  0  0  0  0  0  0
   -1.8993    2.2049    0.0000 C   0  0  0  0  0  0  0  0  0
   -1.1848    1.7924    0.0000 C   0  0  0  0  0  0  0  0  0
   -3.3282    2.2049    0.0000 C   0  0  0  0  0  0  0  0  0
    1.6731    0.9674    0.0000 C   0  0  0  0  0  0  0  0  0
    2.3875    0.5549    0.0000 C   0  0  0  0  0  0  0  0  0
    2.3875   -0.2701    0.0000 C   0  0  0  0  0  0  0  0  0
    1.6731   -0.6826    0.0000 C   0  0  0  0  0  0  0  0  0
   -1.1848   -1.5076    0.0000 C   0  0  0  0  0  0  0  0  0
   -1.8993   -1.9201    0.0000 C   0  0  0  0  0  0  0  0  0
   -1.8993   -2.7451    0.0000 C   0  0  0  0  0  0  0  0  0
   -1.1848   -3.1576    0.0000 C   0  0  0  0  0  0  0  0  0
   -0.4703   -2.7451    0.0000 C   0  0  0  0  0  0  0  0  0
   -0.4703   -1.9201    0.0000 C   0  0  0  0  0  0  0  0  0
   -2.6137   -3.1576    0.0000 C   0  0  0  0  0  0  0  0  0
  1  2  1  0  0  0  0
  1 19  1  0  0  0  0
  2  3  4  0  0  0  0
  2  7  4  0  0  0  0
  3  4  4  0  0  0  0
  4  5  4  0  0  0  0
  4 18  4  0  0  0  0
  5  6  4  0  0  0  0
  5 15  4  0  0  0  0
  6  7  4  0  0  0  0
  7  8  1  0  0  0  0
  8  9  1  0  0  0  0
  8 13  1  0  0  0  0
  9 10  1  0  0  0  0
 10 11  1  0  0  0  0
 11 12  1  0  0  0  0
 11 14  1  0  0  0  0
 12 13  1  0  0  0  0
 15 16  4  0  0  0  0
 16 17  4  0  0  0  0
 17 18  4  0  0  0  0
 19 20  4  0  0  0  0
 19 24  4  0  0  0  0
 20 21  4  0  0  0  0
 21 22  4  0  0  0  0
 21 25  1  0  0  0  0
 22 23  4  0  0  0  0
 23 24  4  0  0  0  0
M  END
>  <Name_Molregno>
429368

>  <HISTAMINE H4>
6.24

$$$$
429369
  Marvin  02231216192D 0   1.00000     0.00000     0

 21 23  0  0  0  0  0  0  0  0999 V2000
   -0.7491   -1.4825    0.0000 Cl  0  0  0  0  0  0  0  0  0
   -0.0346   -1.8950    0.0000 C   0  0  0  0  0  0  0  0  0
    0.6799   -1.4825    0.0000 C   0  0  0  0  0  0  0  0  0
    1.3943   -1.8950    0.0000 C   0  0  0  0  0  0  0  0  0
    2.1088   -1.4825    0.0000 N   0  0  0  0  0  0  0  0  0
    2.8233   -1.8950    0.0000 C   0  0  0  0  0  0  0  0  0
    3.5377   -1.4825    0.0000 N   0  0  0  0  0  0  0  0  0
    3.5377   -0.6575    0.0000 C   0  0  0  0  0  0  0  0  0
    4.2522   -0.2450    0.0000 C   0  0  0  0  0  0  0  0  0
    4.9667   -0.6575    0.0000 N   0  0  0  0  0  0  0  0  0
    4.9667   -1.4825    0.0000 C   0  0  0  0  0  0  0  0  0
    4.2522   -1.8950    0.0000 C   0  0  0  0  0  0  0  0  0
    5.6812   -0.2450    0.0000 C   0  0  0  0  0  0  0  0  0
    2.8233   -2.7200    0.0000 C   0  0  0  0  0  0  0  0  0
    3.5377   -3.1325    0.0000 O   0  0  0  0  0  0  0  0  0
    3.5377   -3.9575    0.0000 C   0  0  0  0  0  0  0  0  0
    2.1088   -3.1325    0.0000 N   0  0  0  0  0  0  0  0  0
    1.3943   -2.7200    0.0000 C   0  0  0  0  0  0  0  0  0
    0.6799   -3.1325    0.0000 C   0  0  0  0  0  0  0  0  0
   -0.0346   -2.7200    0.0000 C   0  0  0  0  0  0  0  0  0
   -0.7491   -3.1325    0.0000 Cl  0  0  0  0  0  0  0  0  0
  1  2  1  0  0  0  0
  2  3  4  0  0  0  0
  2 20  4  0  0  0  0
  3  4  4  0  0  0  0
  4  5  4  0  0  0  0
  4 18  4  0  0  0  0
  5  6  4  0  0  0  0
  6  7  1  0  0  0  0
  6 14  4  0  0  0  0
  7  8  1  0  0  0  0
  7 12  1  0  0  0  0
  8  9  1  0  0  0  0
  9 10  1  0  0  0  0
 10 11  1  0  0  0  0
 10 13  1  0  0  0  0
 11 12  1  0  0  0  0
 14 15  1  0  0  0  0
 14 17  4  0  0  0  0
 15 16  1  0  0  0  0
 17 18  4  0  0  0  0
 18 19  4  0  0  0  0
 19 20  4  0  0  0  0
 20 21  1  0  0  0  0
M  END
>  <Name_Molregno>
429369

>  <HISTAMINE H4>
7.24

$$$$
429371
  Marvin  02231216192D 0   1.00000     0.00000     0

 25 28  0  0  0  0  0  0  0  0999 V2000
    3.0192   -3.1484    0.0000 Cl  0  0  0  0  0  0  0  0  0
    3.0192   -2.3234    0.0000 C   0  0  0  0  0  0  0  0  0
    2.3047   -1.9109    0.0000 C   0  0  0  0  0  0  0  0  0
    2.3047   -1.0859    0.0000 C   0  0  0  0  0  0  0  0  0
    3.0192   -0.6734    0.0000 C   0  0  0  0  0  0  0  0  0
    3.0192    0.1516    0.0000 O   0  0  0  0  0  0  0  0  0
    3.7337    0.5641    0.0000 C   0  0  0  0  0  0  0  0  0
    4.4481    0.1516    0.0000 N   0  0  0  0  0  0  0  0  0
    5.1626    0.5641    0.0000 C   0  0  0  0  0  0  0  0  0
    5.1626    1.3891    0.0000 C   0  0  0  0  0  0  0  0  0
    4.4481    1.8016    0.0000 N   0  0  0  0  0  0  0  0  0
    3.7337    1.3891    0.0000 C   0  0  0  0  0  0  0  0  0
    3.0192    1.8016    0.0000 N   0  0  0  0  0  0  0  0  0
    2.3047    1.3891    0.0000 C   0  0  0  0  0  0  0  0  0
    1.5903    1.8016    0.0000 C   0  0  0  0  0  0  0  0  0
    1.5903    2.6266    0.0000 N   0  0  0  0  0  0  0  0  0
    2.3047    3.0391    0.0000 C   0  0  0  0  0  0  0  0  0
    3.0192    2.6266    0.0000 C   0  0  0  0  0  0  0  0  0
    0.8758    3.0391    0.0000 C   0  0  0  0  0  0  0  0  0
    5.8771    1.8016    0.0000 C   0  0  0  0  0  0  0  0  0
    6.5915    1.3891    0.0000 C   0  0  0  0  0  0  0  0  0
    6.5915    0.5641    0.0000 C   0  0  0  0  0  0  0  0  0
    5.8771    0.1516    0.0000 C   0  0  0  0  0  0  0  0  0
    3.7337   -1.0859    0.0000 C   0  0  0  0  0  0  0  0  0
    3.7337   -1.9109    0.0000 C   0  0  0  0  0  0  0  0  0
  1  2  1  0  0  0  0
  2  3  4  0  0  0  0
  2 25  4  0  0  0  0
  3  4  4  0  0  0  0
  4  5  4  0  0  0  0
  5  6  1  0  0  0  0
  5 24  4  0  0  0  0
  6  7  1  0  0  0  0
  7  8  4  0  0  0  0
  7 12  4  0  0  0  0
  8  9  4  0  0  0  0
  9 10  4  0  0  0  0
  9 23  4  0  0  0  0
 10 11  4  0  0  0  0
 10 20  4  0  0  0  0
 11 12  4  0  0  0  0
 12 13  1  0  0  0  0
 13 14  1  0  0  0  0
 13 18  1  0  0  0  0
 14 15  1  0  0  0  0
 15 16  1  0  0  0  0
 16 17  1  0  0  0  0
 16 19  1  0  0  0  0
 17 18  1  0  0  0  0
 20 21  4  0  0  0  0
 21 22  4  0  0  0  0
 22 23  4  0  0  0  0
 24 25  4  0  0  0  0
M  END
>  <Name_Molregno>
429371

>  <HISTAMINE H4>
5.63

$$$$
429372
  Marvin  02231216192D 0   1.00000     0.00000     0

 26 29  0  0  0  0  0  0  0  0999 V2000
    0.7557   -4.6732    0.0000 Cl  0  0  0  0  0  0  0  0  0
    1.4702   -4.2607    0.0000 C   0  0  0  0  0  0  0  0  0
    1.4702   -3.4357    0.0000 C   0  0  0  0  0  0  0  0  0
    2.1846   -3.0232    0.0000 C   0  0  0  0  0  0  0  0  0
    2.1846   -2.1982    0.0000 O   0  0  0  0  0  0  0  0  0
    2.8991   -1.7857    0.0000 C   0  0  0  0  0  0  0  0  0
    3.6136   -2.1982    0.0000 N   0  0  0  0  0  0  0  0  0
    4.3281   -1.7857    0.0000 C   0  0  0  0  0  0  0  0  0
    4.3281   -0.9607    0.0000 C   0  0  0  0  0  0  0  0  0
    3.6136   -0.5482    0.0000 N   0  0  0  0  0  0  0  0  0
    2.8991   -0.9607    0.0000 C   0  0  0  0  0  0  0  0  0
    2.1846   -0.5482    0.0000 N   0  0  0  0  0  0  0  0  0
    1.4702   -0.9607    0.0000 C   0  0  0  0  0  0  0  0  0
    0.7557   -0.5482    0.0000 C   0  0  0  0  0  0  0  0  0
    0.7557    0.2768    0.0000 N   0  0  0  0  0  0  0  0  0
    1.4702    0.6893    0.0000 C   0  0  0  0  0  0  0  0  0
    2.1846    0.2768    0.0000 C   0  0  0  0  0  0  0  0  0
    0.0412    0.6893    0.0000 C   0  0  0  0  0  0  0  0  0
    5.0425   -0.5482    0.0000 C   0  0  0  0  0  0  0  0  0
    5.7570   -0.9607    0.0000 C   0  0  0  0  0  0  0  0  0
    5.7570   -1.7857    0.0000 C   0  0  0  0  0  0  0  0  0
    5.0425   -2.1982    0.0000 C   0  0  0  0  0  0  0  0  0
    2.8991   -3.4357    0.0000 C   0  0  0  0  0  0  0  0  0
    2.8991   -4.2607    0.0000 C   0  0  0  0  0  0  0  0  0
    2.1846   -4.6732    0.0000 C   0  0  0  0  0  0  0  0  0
    2.1846   -5.4982    0.0000 Cl  0  0  0  0  0  0  0  0  0
  1  2  1  0  0  0  0
  2  3  4  0  0  0  0
  2 25  4  0  0  0  0
  3  4  4  0  0  0  0
  4  5  1  0  0  0  0
  4 23  4  0  0  0  0
  5  6  1  0  0  0  0
  6  7  4  0  0  0  0
  6 11  4  0  0  0  0
  7  8  4  0  0  0  0
  8  9  4  0  0  0  0
  8 22  4  0  0  0  0
  9 10  4  0  0  0  0
  9 19  4  0  0  0  0
 10 11  4  0  0  0  0
 11 12  1  0  0  0  0
 12 13  1  0  0  0  0
 12 17  1  0  0  0  0
 13 14  1  0  0  0  0
 14 15  1  0  0  0  0
 15 16  1  0  0  0  0
 15 18  1  0  0  0  0
 16 17  1  0  0  0  0
 19 20  4  0  0  0  0
 20 21  4  0  0  0  0
 21 22  4  0  0  0  0
 23 24  4  0  0  0  0
 24 25  4  0  0  0  0
 25 26  1  0  0  0  0
M  END
>  <Name_Molregno>
429372

>  <HISTAMINE H4>
5.77

$$$$
429416
  Marvin  02231216192D 0   1.00000     0.00000     0

 26 29  0  0  0  0  0  0  0  0999 V2000
   -1.0563    3.6149    0.0000 Cl  0  0  0  0  0  0  0  0  0
   -0.3419    3.2024    0.0000 C   0  0  0  0  0  0  0  0  0
    0.3726    3.6149    0.0000 C   0  0  0  0  0  0  0  0  0
    1.0871    3.2024    0.0000 C   0  0  0  0  0  0  0  0  0
    1.8015    3.6149    0.0000 N   0  0  0  0  0  0  0  0  0
    2.5160    3.2024    0.0000 C   0  0  0  0  0  0  0  0  0
    3.2305    3.6149    0.0000 N   0  0  0  0  0  0  0  0  0
    3.2305    4.4399    0.0000 C   0  0  0  0  0  0  0  0  0
    3.9450    4.8524    0.0000 C   0  0  0  0  0  0  0  0  0
    4.6594    4.4399    0.0000 N   0  0  0  0  0  0  0  0  0
    4.6594    3.6149    0.0000 C   0  0  0  0  0  0  0  0  0
    3.9450    3.2024    0.0000 C   0  0  0  0  0  0  0  0  0
    5.3739    4.8524    0.0000 C   0  0  0  0  0  0  0  0  0
    2.5160    2.3774    0.0000 C   0  0  0  0  0  0  0  0  0
    3.2305    1.9649    0.0000 O   0  0  0  0  0  0  0  0  0
    3.2305    1.1399    0.0000 C   0  0  0  0  0  0  0  0  0
    3.9450    0.7274    0.0000 C   0  0  0  0  0  0  0  0  0
    3.9450   -0.0976    0.0000 C   0  0  0  0  0  0  0  0  0
    3.2305   -0.5101    0.0000 C   0  0  0  0  0  0  0  0  0
    2.5160   -0.0976    0.0000 C   0  0  0  0  0  0  0  0  0
    2.5160    0.7274    0.0000 C   0  0  0  0  0  0  0  0  0
    1.8015    1.9649    0.0000 N   0  0  0  0  0  0  0  0  0
    1.0871    2.3774    0.0000 C   0  0  0  0  0  0  0  0  0
    0.3726    1.9649    0.0000 C   0  0  0  0  0  0  0  0  0
   -0.3419    2.3774    0.0000 C   0  0  0  0  0  0  0  0  0
   -1.0563    1.9649    0.0000 Cl  0  0  0  0  0  0  0  0  0
  1  2  1  0  0  0  0
  2  3  4  0  0  0  0
  2 25  4  0  0  0  0
  3  4  4  0  0  0  0
  4  5  4  0  0  0  0
  4 23  4  0  0  0  0
  5  6  4  0  0  0  0
  6  7  1  0  0  0  0
  6 14  4  0  0  0  0
  7  8  1  0  0  0  0
  7 12  1  0  0  0  0
  8  9  1  0  0  0  0
  9 10  1  0  0  0  0
 10 11  1  0  0  0  0
 10 13  1  0  0  0  0
 11 12  1  0  0  0  0
 14 15  1  0  0  0  0
 14 22  4  0  0  0  0
 15 16  1  0  0  0  0
 16 17  4  0  0  0  0
 16 21  4  0  0  0  0
 17 18  4  0  0  0  0
 18 19  4  0  0  0  0
 19 20  4  0  0  0  0
 20 21  4  0  0  0  0
 22 23  4  0  0  0  0
 23 24  4  0  0  0  0
 24 25  4  0  0  0  0
 25 26  1  0  0  0  0
M  END
>  <Name_Molregno>
429416

>  <HISTAMINE H4>
5.93

$$$$
429418
  Marvin  02231216192D 0   1.00000     0.00000     0

 27 30  0  0  0  0  0  0  0  0999 V2000
   -1.0179   -1.3979    0.0000 Cl  0  0  0  0  0  0  0  0  0
   -0.3034   -1.8104    0.0000 C   0  0  0  0  0  0  0  0  0
    0.4110   -1.3979    0.0000 C   0  0  0  0  0  0  0  0  0
    1.1255   -1.8104    0.0000 C   0  0  0  0  0  0  0  0  0
    1.8400   -1.3979    0.0000 N   0  0  0  0  0  0  0  0  0
    2.5544   -1.8104    0.0000 C   0  0  0  0  0  0  0  0  0
    3.2689   -1.3979    0.0000 C   0  0  0  0  0  0  0  0  0
    3.9834   -1.8104    0.0000 C   0  0  0  0  0  0  0  0  0
    4.6979   -1.3979    0.0000 C   0  0  0  0  0  0  0  0  0
    4.6979   -0.5729    0.0000 C   0  0  0  0  0  0  0  0  0
    5.4123   -0.1604    0.0000 C   0  0  0  0  0  0  0  0  0
    6.1268   -0.5729    0.0000 C   0  0  0  0  0  0  0  0  0
    6.1268   -1.3979    0.0000 C   0  0  0  0  0  0  0  0  0
    5.4123   -1.8104    0.0000 C   0  0  0  0  0  0  0  0  0
    2.5544   -2.6354    0.0000 C   0  0  0  0  0  0  0  0  0
    1.8400   -3.0479    0.0000 N   0  0  0  0  0  0  0  0  0
    1.1255   -2.6354    0.0000 C   0  0  0  0  0  0  0  0  0
    0.4110   -3.0479    0.0000 C   0  0  0  0  0  0  0  0  0
   -0.3034   -2.6354    0.0000 C   0  0  0  0  0  0  0  0  0
   -1.0179   -3.0479    0.0000 Cl  0  0  0  0  0  0  0  0  0
    3.2689   -3.0479    0.0000 N   0  0  0  0  0  0  0  0  0
    3.9834   -2.6354    0.0000 C   0  0  0  0  0  0  0  0  0
    4.6979   -3.0479    0.0000 C   0  0  0  0  0  0  0  0  0
    4.6979   -3.8729    0.0000 N   0  0  0  0  0  0  0  0  0
    3.9834   -4.2854    0.0000 C   0  0  0  0  0  0  0  0  0
    3.2689   -3.8729    0.0000 C   0  0  0  0  0  0  0  0  0
    5.4123   -4.2854    0.0000 C   0  0  0  0  0  0  0  0  0
  1  2  1  0  0  0  0
  2  3  4  0  0  0  0
  2 19  4  0  0  0  0
  3  4  4  0  0  0  0
  4  5  4  0  0  0  0
  4 17  4  0  0  0  0
  5  6  4  0  0  0  0
  6  7  1  0  0  0  0
  6 15  4  0  0  0  0
  7  8  1  0  0  0  0
  8  9  1  0  0  0  0
  9 10  4  0  0  0  0
  9 14  4  0  0  0  0
 10 11  4  0  0  0  0
 11 12  4  0  0  0  0
 12 13  4  0  0  0  0
 13 14  4  0  0  0  0
 15 16  4  0  0  0  0
 15 21  1  0  0  0  0
 16 17  4  0  0  0  0
 17 18  4  0  0  0  0
 18 19  4  0  0  0  0
 19 20  1  0  0  0  0
 21 22  1  0  0  0  0
 21 26  1  0  0  0  0
 22 23  1  0  0  0  0
 23 24  1  0  0  0  0
 24 25  1  0  0  0  0
 24 27  1  0  0  0  0
 25 26  1  0  0  0  0
M  END
>  <Name_Molregno>
429418

>  <HISTAMINE H4>
5.4

$$$$
429419
  Marvin  02231216192D 0   1.00000     0.00000     0

 20 22  0  0  0  0  0  0  0  0999 V2000
    0.1230    0.7822    0.0000 Cl  0  0  0  0  0  0  0  0  0
    0.8375    0.3697    0.0000 C   0  0  0  0  0  0  0  0  0
    1.5519    0.7822    0.0000 C   0  0  0  0  0  0  0  0  0
    2.2664    0.3697    0.0000 C   0  0  0  0  0  0  0  0  0
    2.9809    0.7822    0.0000 N   0  0  0  0  0  0  0  0  0
    3.6954    0.3697    0.0000 C   0  0  0  0  0  0  0  0  0
    4.4098    0.7822    0.0000 C   0  0  0  0  0  0  0  0  0
    3.6954   -0.4553    0.0000 C   0  0  0  0  0  0  0  0  0
    2.9809   -0.8678    0.0000 N   0  0  0  0  0  0  0  0  0
    2.2664   -0.4553    0.0000 C   0  0  0  0  0  0  0  0  0
    1.5519   -0.8678    0.0000 C   0  0  0  0  0  0  0  0  0
    0.8375   -0.4553    0.0000 C   0  0  0  0  0  0  0  0  0
    0.1230   -0.8678    0.0000 Cl  0  0  0  0  0  0  0  0  0
    4.4098   -0.8678    0.0000 N   0  0  0  0  0  0  0  0  0
    5.1243   -0.4553    0.0000 C   0  0  0  0  0  0  0  0  0
    5.8388   -0.8678    0.0000 C   0  0  0  0  0  0  0  0  0
    5.8388   -1.6928    0.0000 N   0  0  0  0  0  0  0  0  0
    5.1243   -2.1053    0.0000 C   0  0  0  0  0  0  0  0  0
    4.4098   -1.6928    0.0000 C   0  0  0  0  0  0  0  0  0
    6.5532   -2.1053    0.0000 C   0  0  0  0  0  0  0  0  0
  1  2  1  0  0  0  0
  2  3  4  0  0  0  0
  2 12  4  0  0  0  0
  3  4  4  0  0  0  0
  4  5  4  0  0  0  0
  4 10  4  0  0  0  0
  5  6  4  0  0  0  0
  6  7  1  0  0  0  0
  6  8  4  0  0  0  0
  8  9  4  0  0  0  0
  8 14  1  0  0  0  0
  9 10  4  0  0  0  0
 10 11  4  0  0  0  0
 11 12  4  0  0  0  0
 12 13  1  0  0  0  0
 14 15  1  0  0  0  0
 14 19  1  0  0  0  0
 15 16  1  0  0  0  0
 16 17  1  0  0  0  0
 17 18  1  0  0  0  0
 17 20  1  0  0  0  0
 18 19  1  0  0  0  0
M  END
>  <Name_Molregno>
429419

>  <HISTAMINE H4>
7.2

$$$$
429420
  Marvin  02231216192D 0   1.00000     0.00000     0

 24 27  0  0  0  0  0  0  0  0999 V2000
   -0.3684   -1.3483    0.0000 O   0  0  0  0  0  0  0  0  0
    0.3461   -0.9358    0.0000 C   0  0  0  0  0  0  0  0  0
    1.0606   -1.3483    0.0000 N   0  0  0  0  0  0  0  0  0
    1.7751   -0.9358    0.0000 C   0  0  0  0  0  0  0  0  0
    1.7751   -0.1108    0.0000 C   0  0  0  0  0  0  0  0  0
    1.0606    0.3017    0.0000 N   0  0  0  0  0  0  0  0  0
    0.3461   -0.1108    0.0000 C   0  0  0  0  0  0  0  0  0
   -0.3684    0.3017    0.0000 N   0  0  0  0  0  0  0  0  0
   -1.0828   -0.1108    0.0000 C   0  0  0  0  0  0  0  0  0
   -1.7973    0.3017    0.0000 C   0  0  0  0  0  0  0  0  0
   -1.7973    1.1267    0.0000 N   0  0  0  0  0  0  0  0  0
   -1.0828    1.5392    0.0000 C   0  0  0  0  0  0  0  0  0
   -0.3684    1.1267    0.0000 C   0  0  0  0  0  0  0  0  0
   -2.5118    1.5392    0.0000 C   0  0  0  0  0  0  0  0  0
    2.4895    0.3017    0.0000 C   0  0  0  0  0  0  0  0  0
    3.2040   -0.1108    0.0000 C   0  0  0  0  0  0  0  0  0
    3.2040   -0.9358    0.0000 C   0  0  0  0  0  0  0  0  0
    2.4895   -1.3483    0.0000 C   0  0  0  0  0  0  0  0  0
   -0.3684   -2.1733    0.0000 C   0  0  0  0  0  0  0  0  0
   -1.0828   -2.5858    0.0000 C   0  0  0  0  0  0  0  0  0
   -1.0828   -3.4108    0.0000 C   0  0  0  0  0  0  0  0  0
   -0.3684   -3.8233    0.0000 C   0  0  0  0  0  0  0  0  0
    0.3461   -3.4108    0.0000 N   0  0  0  0  0  0  0  0  0
    0.3461   -2.5858    0.0000 C   0  0  0  0  0  0  0  0  0
  1  2  1  0  0  0  0
  1 19  1  0  0  0  0
  2  3  4  0  0  0  0
  2  7  4  0  0  0  0
  3  4  4  0  0  0  0
  4  5  4  0  0  0  0
  4 18  4  0  0  0  0
  5  6  4  0  0  0  0
  5 15  4  0  0  0  0
  6  7  4  0  0  0  0
  7  8  1  0  0  0  0
  8  9  1  0  0  0  0
  8 13  1  0  0  0  0
  9 10  1  0  0  0  0
 10 11  1  0  0  0  0
 11 12  1  0  0  0  0
 11 14  1  0  0  0  0
 12 13  1  0  0  0  0
 15 16  4  0  0  0  0
 16 17  4  0  0  0  0
 17 18  4  0  0  0  0
 19 20  4  0  0  0  0
 19 24  4  0  0  0  0
 20 21  4  0  0  0  0
 21 22  4  0  0  0  0
 22 23  4  0  0  0  0
 23 24  4  0  0  0  0
M  END
>  <Name_Molregno>
429420

>  <HISTAMINE H4>
5.89

$$$$
429421
  Marvin  02231216192D 0   1.00000     0.00000     0

 26 29  0  0  0  0  0  0  0  0999 V2000
    0.9274   -1.8979    0.0000 Cl  0  0  0  0  0  0  0  0  0
    1.6419   -1.4854    0.0000 C   0  0  0  0  0  0  0  0  0
    1.6419   -0.6604    0.0000 C   0  0  0  0  0  0  0  0  0
    2.3563   -0.2479    0.0000 C   0  0  0  0  0  0  0  0  0
    3.0708   -0.6604    0.0000 C   0  0  0  0  0  0  0  0  0
    3.0708   -1.4854    0.0000 C   0  0  0  0  0  0  0  0  0
    2.3563   -1.8979    0.0000 C   0  0  0  0  0  0  0  0  0
    3.7853   -0.2479    0.0000 C   0  0  0  0  0  0  0  0  0
    3.7853    0.5771    0.0000 O   0  0  0  0  0  0  0  0  0
    4.4997    0.9896    0.0000 C   0  0  0  0  0  0  0  0  0
    5.2142    0.5771    0.0000 N   0  0  0  0  0  0  0  0  0
    5.9287    0.9896    0.0000 C   0  0  0  0  0  0  0  0  0
    5.9287    1.8146    0.0000 C   0  0  0  0  0  0  0  0  0
    5.2142    2.2271    0.0000 N   0  0  0  0  0  0  0  0  0
    4.4997    1.8146    0.0000 C   0  0  0  0  0  0  0  0  0
    3.7853    2.2271    0.0000 N   0  0  0  0  0  0  0  0  0
    3.0708    1.8146    0.0000 C   0  0  0  0  0  0  0  0  0
    2.3563    2.2271    0.0000 C   0  0  0  0  0  0  0  0  0
    2.3563    3.0521    0.0000 N   0  0  0  0  0  0  0  0  0
    3.0708    3.4646    0.0000 C   0  0  0  0  0  0  0  0  0
    3.7853    3.0521    0.0000 C   0  0  0  0  0  0  0  0  0
    1.6419    3.4646    0.0000 C   0  0  0  0  0  0  0  0  0
    6.6432    2.2271    0.0000 C   0  0  0  0  0  0  0  0  0
    7.3576    1.8146    0.0000 C   0  0  0  0  0  0  0  0  0
    7.3576    0.9896    0.0000 C   0  0  0  0  0  0  0  0  0
    6.6432    0.5771    0.0000 C   0  0  0  0  0  0  0  0  0
  1  2  1  0  0  0  0
  2  3  4  0  0  0  0
  2  7  4  0  0  0  0
  3  4  4  0  0  0  0
  4  5  4  0  0  0  0
  5  6  4  0  0  0  0
  5  8  1  0  0  0  0
  6  7  4  0  0  0  0
  8  9  1  0  0  0  0
  9 10  1  0  0  0  0
 10 11  4  0  0  0  0
 10 15  4  0  0  0  0
 11 12  4  0  0  0  0
 12 13  4  0  0  0  0
 12 26  4  0  0  0  0
 13 14  4  0  0  0  0
 13 23  4  0  0  0  0
 14 15  4  0  0  0  0
 15 16  1  0  0  0  0
 16 17  1  0  0  0  0
 16 21  1  0  0  0  0
 17 18  1  0  0  0  0
 18 19  1  0  0  0  0
 19 20  1  0  0  0  0
 19 22  1  0  0  0  0
 20 21  1  0  0  0  0
 23 24  4  0  0  0  0
 24 25  4  0  0  0  0
 25 26  4  0  0  0  0
M  END
>  <Name_Molregno>
429421

>  <HISTAMINE H4>
5.64

$$$$
429422
  Marvin  02231216192D 0   1.00000     0.00000     0

 26 29  0  0  0  0  0  0  0  0999 V2000
   -6.8767   -1.6984    0.0000 Cl  0  0  0  0  0  0  0  0  0
   -6.1623   -2.1109    0.0000 C   0  0  0  0  0  0  0  0  0
   -5.4478   -1.6984    0.0000 C   0  0  0  0  0  0  0  0  0
   -4.7333   -2.1109    0.0000 C   0  0  0  0  0  0  0  0  0
   -4.7333   -2.9359    0.0000 C   0  0  0  0  0  0  0  0  0
   -5.4478   -3.3484    0.0000 C   0  0  0  0  0  0  0  0  0
   -6.1623   -2.9359    0.0000 C   0  0  0  0  0  0  0  0  0
   -4.0189   -1.6984    0.0000 C   0  0  0  0  0  0  0  0  0
   -4.0189   -0.8734    0.0000 O   0  0  0  0  0  0  0  0  0
   -3.3044   -0.4609    0.0000 C   0  0  0  0  0  0  0  0  0
   -2.5899   -0.8734    0.0000 N   0  0  0  0  0  0  0  0  0
   -1.8754   -0.4609    0.0000 C   0  0  0  0  0  0  0  0  0
   -1.8754    0.3641    0.0000 C   0  0  0  0  0  0  0  0  0
   -2.5899    0.7766    0.0000 N   0  0  0  0  0  0  0  0  0
   -3.3044    0.3641    0.0000 C   0  0  0  0  0  0  0  0  0
   -4.0189    0.7766    0.0000 N   0  0  0  0  0  0  0  0  0
   -4.7333    0.3641    0.0000 C   0  0  0  0  0  0  0  0  0
   -5.4478    0.7766    0.0000 C   0  0  0  0  0  0  0  0  0
   -5.4478    1.6016    0.0000 N   0  0  0  0  0  0  0  0  0
   -4.7333    2.0141    0.0000 C   0  0  0  0  0  0  0  0  0
   -4.0189    1.6016    0.0000 C   0  0  0  0  0  0  0  0  0
   -6.1623    2.0141    0.0000 C   0  0  0  0  0  0  0  0  0
   -1.1610    0.7766    0.0000 C   0  0  0  0  0  0  0  0  0
   -0.4465    0.3641    0.0000 C   0  0  0  0  0  0  0  0  0
   -0.4465   -0.4609    0.0000 C   0  0  0  0  0  0  0  0  0
   -1.1610   -0.8734    0.0000 C   0  0  0  0  0  0  0  0  0
  1  2  1  0  0  0  0
  2  3  4  0  0  0  0
  2  7  4  0  0  0  0
  3  4  4  0  0  0  0
  4  5  4  0  0  0  0
  4  8  1  0  0  0  0
  5  6  4  0  0  0  0
  6  7  4  0  0  0  0
  8  9  1  0  0  0  0
  9 10  1  0  0  0  0
 10 11  4  0  0  0  0
 10 15  4  0  0  0  0
 11 12  4  0  0  0  0
 12 13  4  0  0  0  0
 12 26  4  0  0  0  0
 13 14  4  0  0  0  0
 13 23  4  0  0  0  0
 14 15  4  0  0  0  0
 15 16  1  0  0  0  0
 16 17  1  0  0  0  0
 16 21  1  0  0  0  0
 17 18  1  0  0  0  0
 18 19  1  0  0  0  0
 19 20  1  0  0  0  0
 19 22  1  0  0  0  0
 20 21  1  0  0  0  0
 23 24  4  0  0  0  0
 24 25  4  0  0  0  0
 25 26  4  0  0  0  0
M  END
>  <Name_Molregno>
429422

>  <HISTAMINE H4>
6.57

$$$$
429425
  Marvin  02231216192D 0   1.00000     0.00000     0

 26 29  0  0  0  0  0  0  0  0999 V2000
    0.1710   -0.1282    0.0000 O   0  0  0  0  0  0  0  0  0
    0.1710   -0.9532    0.0000 C   0  0  0  0  0  0  0  0  0
   -0.5435   -1.3657    0.0000 C   0  0  0  0  0  0  0  0  0
   -0.5435   -2.1907    0.0000 C   0  0  0  0  0  0  0  0  0
   -1.2580   -2.6032    0.0000 C   0  0  0  0  0  0  0  0  0
   -1.9724   -2.1907    0.0000 C   0  0  0  0  0  0  0  0  0
   -1.9724   -1.3657    0.0000 C   0  0  0  0  0  0  0  0  0
   -1.2580   -0.9532    0.0000 C   0  0  0  0  0  0  0  0  0
   -2.6869   -2.6032    0.0000 C   0  0  0  0  0  0  0  0  0
    0.8854    0.2843    0.0000 C   0  0  0  0  0  0  0  0  0
    1.5999   -0.1282    0.0000 N   0  0  0  0  0  0  0  0  0
    2.3144    0.2843    0.0000 C   0  0  0  0  0  0  0  0  0
    2.3144    1.1093    0.0000 C   0  0  0  0  0  0  0  0  0
    1.5999    1.5218    0.0000 N   0  0  0  0  0  0  0  0  0
    0.8854    1.1093    0.0000 C   0  0  0  0  0  0  0  0  0
    0.1710    1.5218    0.0000 N   0  0  0  0  0  0  0  0  0
   -0.5435    1.1093    0.0000 C   0  0  0  0  0  0  0  0  0
   -1.2580    1.5218    0.0000 C   0  0  0  0  0  0  0  0  0
   -1.2580    2.3468    0.0000 N   0  0  0  0  0  0  0  0  0
   -0.5435    2.7593    0.0000 C   0  0  0  0  0  0  0  0  0
    0.1710    2.3468    0.0000 C   0  0  0  0  0  0  0  0  0
   -1.9724    2.7593    0.0000 C   0  0  0  0  0  0  0  0  0
    3.0289    1.5218    0.0000 C   0  0  0  0  0  0  0  0  0
    3.7433    1.1093    0.0000 C   0  0  0  0  0  0  0  0  0
    3.7433    0.2843    0.0000 C   0  0  0  0  0  0  0  0  0
    3.0289   -0.1282    0.0000 C   0  0  0  0  0  0  0  0  0
  1  2  1  0  0  0  0
  1 10  1  0  0  0  0
  2  3  1  0  0  0  0
  3  4  4  0  0  0  0
  3  8  4  0  0  0  0
  4  5  4  0  0  0  0
  5  6  4  0  0  0  0
  6  7  4  0  0  0  0
  6  9  1  0  0  0  0
  7  8  4  0  0  0  0
 10 11  4  0  0  0  0
 10 15  4  0  0  0  0
 11 12  4  0  0  0  0
 12 13  4  0  0  0  0
 12 26  4  0  0  0  0
 13 14  4  0  0  0  0
 13 23  4  0  0  0  0
 14 15  4  0  0  0  0
 15 16  1  0  0  0  0
 16 17  1  0  0  0  0
 16 21  1  0  0  0  0
 17 18  1  0  0  0  0
 18 19  1  0  0  0  0
 19 20  1  0  0  0  0
 19 22  1  0  0  0  0
 20 21  1  0  0  0  0
 23 24  4  0  0  0  0
 24 25  4  0  0  0  0
 25 26  4  0  0  0  0
M  END
>  <Name_Molregno>
429425

>  <HISTAMINE H4>
5.86

$$$$
429470
  Marvin  02231216192D 0   1.00000     0.00000     0

 27 30  0  0  0  0  0  0  0  0999 V2000
    0.1499   -0.1002    0.0000 O   0  0  0  0  0  0  0  0  0
    0.1499   -0.9252    0.0000 C   0  0  0  0  0  0  0  0  0
   -0.5646   -1.3377    0.0000 C   0  0  0  0  0  0  0  0  0
   -0.5646   -2.1627    0.0000 C   0  0  0  0  0  0  0  0  0
   -1.2790   -2.5752    0.0000 C   0  0  0  0  0  0  0  0  0
   -1.9935   -2.1627    0.0000 C   0  0  0  0  0  0  0  0  0
   -2.7080   -2.5752    0.0000 O   0  0  0  0  0  0  0  0  0
   -3.4224   -2.1627    0.0000 C   0  0  0  0  0  0  0  0  0
   -1.9935   -1.3377    0.0000 C   0  0  0  0  0  0  0  0  0
   -1.2790   -0.9252    0.0000 C   0  0  0  0  0  0  0  0  0
    0.8644    0.3123    0.0000 C   0  0  0  0  0  0  0  0  0
    1.5789   -0.1002    0.0000 N   0  0  0  0  0  0  0  0  0
    2.2933    0.3123    0.0000 C   0  0  0  0  0  0  0  0  0
    2.2933    1.1373    0.0000 C   0  0  0  0  0  0  0  0  0
    1.5789    1.5498    0.0000 N   0  0  0  0  0  0  0  0  0
    0.8644    1.1373    0.0000 C   0  0  0  0  0  0  0  0  0
    0.1499    1.5498    0.0000 N   0  0  0  0  0  0  0  0  0
   -0.5646    1.1373    0.0000 C   0  0  0  0  0  0  0  0  0
   -1.2790    1.5498    0.0000 C   0  0  0  0  0  0  0  0  0
   -1.2790    2.3748    0.0000 N   0  0  0  0  0  0  0  0  0
   -0.5646    2.7873    0.0000 C   0  0  0  0  0  0  0  0  0
    0.1499    2.3748    0.0000 C   0  0  0  0  0  0  0  0  0
   -1.9935    2.7873    0.0000 C   0  0  0  0  0  0  0  0  0
    3.0078    1.5498    0.0000 C   0  0  0  0  0  0  0  0  0
    3.7223    1.1373    0.0000 C   0  0  0  0  0  0  0  0  0
    3.7223    0.3123    0.0000 C   0  0  0  0  0  0  0  0  0
    3.0078   -0.1002    0.0000 C   0  0  0  0  0  0  0  0  0
  1  2  1  0  0  0  0
  1 11  1  0  0  0  0
  2  3  1  0  0  0  0
  3  4  4  0  0  0  0
  3 10  4  0  0  0  0
  4  5  4  0  0  0  0
  5  6  4  0  0  0  0
  6  7  1  0  0  0  0
  6  9  4  0  0  0  0
  7  8  1  0  0  0  0
  9 10  4  0  0  0  0
 11 12  4  0  0  0  0
 11 16  4  0  0  0  0
 12 13  4  0  0  0  0
 13 14  4  0  0  0  0
 13 27  4  0  0  0  0
 14 15  4  0  0  0  0
 14 24  4  0  0  0  0
 15 16  4  0  0  0  0
 16 17  1  0  0  0  0
 17 18  1  0  0  0  0
 17 22  1  0  0  0  0
 18 19  1  0  0  0  0
 19 20  1  0  0  0  0
 20 21  1  0  0  0  0
 20 23  1  0  0  0  0
 21 22  1  0  0  0  0
 24 25  4  0  0  0  0
 25 26  4  0  0  0  0
 26 27  4  0  0  0  0
M  END
>  <Name_Molregno>
429470

>  <HISTAMINE H4>
6.15

$$$$
429471
  Marvin  02231216192D 0   1.00000     0.00000     0

 25 28  0  0  0  0  0  0  0  0999 V2000
    0.2093   -0.2059    0.0000 O   0  0  0  0  0  0  0  0  0
    0.2093   -1.0309    0.0000 C   0  0  0  0  0  0  0  0  0
   -0.5052   -1.4434    0.0000 C   0  0  0  0  0  0  0  0  0
   -0.5052   -2.2684    0.0000 C   0  0  0  0  0  0  0  0  0
   -1.2197   -2.6809    0.0000 C   0  0  0  0  0  0  0  0  0
   -1.9341   -2.2684    0.0000 C   0  0  0  0  0  0  0  0  0
   -1.9341   -1.4434    0.0000 N   0  0  0  0  0  0  0  0  0
   -1.2197   -1.0309    0.0000 C   0  0  0  0  0  0  0  0  0
    0.9237    0.2066    0.0000 C   0  0  0  0  0  0  0  0  0
    1.6382   -0.2059    0.0000 N   0  0  0  0  0  0  0  0  0
    2.3527    0.2066    0.0000 C   0  0  0  0  0  0  0  0  0
    2.3527    1.0316    0.0000 C   0  0  0  0  0  0  0  0  0
    1.6382    1.4441    0.0000 N   0  0  0  0  0  0  0  0  0
    0.9237    1.0316    0.0000 C   0  0  0  0  0  0  0  0  0
    0.2093    1.4441    0.0000 N   0  0  0  0  0  0  0  0  0
   -0.5052    1.0316    0.0000 C   0  0  0  0  0  0  0  0  0
   -1.2197    1.4441    0.0000 C   0  0  0  0  0  0  0  0  0
   -1.2197    2.2691    0.0000 N   0  0  0  0  0  0  0  0  0
   -0.5052    2.6816    0.0000 C   0  0  0  0  0  0  0  0  0
    0.2093    2.2691    0.0000 C   0  0  0  0  0  0  0  0  0
   -1.9341    2.6816    0.0000 C   0  0  0  0  0  0  0  0  0
    3.0672    1.4441    0.0000 C   0  0  0  0  0  0  0  0  0
    3.7816    1.0316    0.0000 C   0  0  0  0  0  0  0  0  0
    3.7816    0.2066    0.0000 C   0  0  0  0  0  0  0  0  0
    3.0672   -0.2059    0.0000 C   0  0  0  0  0  0  0  0  0
  1  2  1  0  0  0  0
  1  9  1  0  0  0  0
  2  3  1  0  0  0  0
  3  4  4  0  0  0  0
  3  8  4  0  0  0  0
  4  5  4  0  0  0  0
  5  6  4  0  0  0  0
  6  7  4  0  0  0  0
  7  8  4  0  0  0  0
  9 10  4  0  0  0  0
  9 14  4  0  0  0  0
 10 11  4  0  0  0  0
 11 12  4  0  0  0  0
 11 25  4  0  0  0  0
 12 13  4  0  0  0  0
 12 22  4  0  0  0  0
 13 14  4  0  0  0  0
 14 15  1  0  0  0  0
 15 16  1  0  0  0  0
 15 20  1  0  0  0  0
 16 17  1  0  0  0  0
 17 18  1  0  0  0  0
 18 19  1  0  0  0  0
 18 21  1  0  0  0  0
 19 20  1  0  0  0  0
 22 23  4  0  0  0  0
 23 24  4  0  0  0  0
 24 25  4  0  0  0  0
M  END
>  <Name_Molregno>
429471

>  <HISTAMINE H4>
5.53

$$$$
429472
  Marvin  02231216192D 0   1.00000     0.00000     0

 25 28  0  0  0  0  0  0  0  0999 V2000
    0.2093   -0.2059    0.0000 O   0  0  0  0  0  0  0  0  0
    0.2093   -1.0309    0.0000 C   0  0  0  0  0  0  0  0  0
   -0.5052   -1.4434    0.0000 C   0  0  0  0  0  0  0  0  0
   -0.5052   -2.2684    0.0000 C   0  0  0  0  0  0  0  0  0
   -1.2197   -2.6809    0.0000 C   0  0  0  0  0  0  0  0  0
   -1.9341   -2.2684    0.0000 N   0  0  0  0  0  0  0  0  0
   -1.9341   -1.4434    0.0000 C   0  0  0  0  0  0  0  0  0
   -1.2197   -1.0309    0.0000 C   0  0  0  0  0  0  0  0  0
    0.9237    0.2066    0.0000 C   0  0  0  0  0  0  0  0  0
    1.6382   -0.2059    0.0000 N   0  0  0  0  0  0  0  0  0
    2.3527    0.2066    0.0000 C   0  0  0  0  0  0  0  0  0
    2.3527    1.0316    0.0000 C   0  0  0  0  0  0  0  0  0
    1.6382    1.4441    0.0000 N   0  0  0  0  0  0  0  0  0
    0.9237    1.0316    0.0000 C   0  0  0  0  0  0  0  0  0
    0.2093    1.4441    0.0000 N   0  0  0  0  0  0  0  0  0
   -0.5052    1.0316    0.0000 C   0  0  0  0  0  0  0  0  0
   -1.2197    1.4441    0.0000 C   0  0  0  0  0  0  0  0  0
   -1.2197    2.2691    0.0000 N   0  0  0  0  0  0  0  0  0
   -0.5052    2.6816    0.0000 C   0  0  0  0  0  0  0  0  0
    0.2093    2.2691    0.0000 C   0  0  0  0  0  0  0  0  0
   -1.9341    2.6816    0.0000 C   0  0  0  0  0  0  0  0  0
    3.0672    1.4441    0.0000 C   0  0  0  0  0  0  0  0  0
    3.7816    1.0316    0.0000 C   0  0  0  0  0  0  0  0  0
    3.7816    0.2066    0.0000 C   0  0  0  0  0  0  0  0  0
    3.0672   -0.2059    0.0000 C   0  0  0  0  0  0  0  0  0
  1  2  1  0  0  0  0
  1  9  1  0  0  0  0
  2  3  1  0  0  0  0
  3  4  4  0  0  0  0
  3  8  4  0  0  0  0
  4  5  4  0  0  0  0
  5  6  4  0  0  0  0
  6  7  4  0  0  0  0
  7  8  4  0  0  0  0
  9 10  4  0  0  0  0
  9 14  4  0  0  0  0
 10 11  4  0  0  0  0
 11 12  4  0  0  0  0
 11 25  4  0  0  0  0
 12 13  4  0  0  0  0
 12 22  4  0  0  0  0
 13 14  4  0  0  0  0
 14 15  1  0  0  0  0
 15 16  1  0  0  0  0
 15 20  1  0  0  0  0
 16 17  1  0  0  0  0
 17 18  1  0  0  0  0
 18 19  1  0  0  0  0
 18 21  1  0  0  0  0
 19 20  1  0  0  0  0
 22 23  4  0  0  0  0
 23 24  4  0  0  0  0
 24 25  4  0  0  0  0
M  END
>  <Name_Molregno>
429472

>  <HISTAMINE H4>
5.36

$$$$
429474
  Marvin  02231216192D 0   1.00000     0.00000     0

 25 28  0  0  0  0  0  0  0  0999 V2000
    0.2093   -0.2059    0.0000 O   0  0  0  0  0  0  0  0  0
    0.2093   -1.0309    0.0000 C   0  0  0  0  0  0  0  0  0
   -0.5052   -1.4434    0.0000 C   0  0  0  0  0  0  0  0  0
   -0.5052   -2.2684    0.0000 N   0  0  0  0  0  0  0  0  0
   -1.2197   -2.6809    0.0000 C   0  0  0  0  0  0  0  0  0
   -1.9341   -2.2684    0.0000 C   0  0  0  0  0  0  0  0  0
   -1.9341   -1.4434    0.0000 C   0  0  0  0  0  0  0  0  0
   -1.2197   -1.0309    0.0000 C   0  0  0  0  0  0  0  0  0
    0.9237    0.2066    0.0000 C   0  0  0  0  0  0  0  0  0
    1.6382   -0.2059    0.0000 N   0  0  0  0  0  0  0  0  0
    2.3527    0.2066    0.0000 C   0  0  0  0  0  0  0  0  0
    2.3527    1.0316    0.0000 C   0  0  0  0  0  0  0  0  0
    1.6382    1.4441    0.0000 N   0  0  0  0  0  0  0  0  0
    0.9237    1.0316    0.0000 C   0  0  0  0  0  0  0  0  0
    0.2093    1.4441    0.0000 N   0  0  0  0  0  0  0  0  0
   -0.5052    1.0316    0.0000 C   0  0  0  0  0  0  0  0  0
   -1.2197    1.4441    0.0000 C   0  0  0  0  0  0  0  0  0
   -1.2197    2.2691    0.0000 N   0  0  0  0  0  0  0  0  0
   -0.5052    2.6816    0.0000 C   0  0  0  0  0  0  0  0  0
    0.2093    2.2691    0.0000 C   0  0  0  0  0  0  0  0  0
   -1.9341    2.6816    0.0000 C   0  0  0  0  0  0  0  0  0
    3.0672    1.4441    0.0000 C   0  0  0  0  0  0  0  0  0
    3.7816    1.0316    0.0000 C   0  0  0  0  0  0  0  0  0
    3.7816    0.2066    0.0000 C   0  0  0  0  0  0  0  0  0
    3.0672   -0.2059    0.0000 C   0  0  0  0  0  0  0  0  0
  1  2  1  0  0  0  0
  1  9  1  0  0  0  0
  2  3  1  0  0  0  0
  3  4  4  0  0  0  0
  3  8  4  0  0  0  0
  4  5  4  0  0  0  0
  5  6  4  0  0  0  0
  6  7  4  0  0  0  0
  7  8  4  0  0  0  0
  9 10  4  0  0  0  0
  9 14  4  0  0  0  0
 10 11  4  0  0  0  0
 11 12  4  0  0  0  0
 11 25  4  0  0  0  0
 12 13  4  0  0  0  0
 12 22  4  0  0  0  0
 13 14  4  0  0  0  0
 14 15  1  0  0  0  0
 15 16  1  0  0  0  0
 15 20  1  0  0  0  0
 16 17  1  0  0  0  0
 17 18  1  0  0  0  0
 18 19  1  0  0  0  0
 18 21  1  0  0  0  0
 19 20  1  0  0  0  0
 22 23  4  0  0  0  0
 23 24  4  0  0  0  0
 24 25  4  0  0  0  0
M  END
>  <Name_Molregno>
429474

>  <HISTAMINE H4>
6.33

$$$$
429517
  Marvin  02231216192D 0   1.00000     0.00000     0

 28 31  0  0  0  0  0  0  0  0999 V2000
   -0.0067   -0.4958    0.0000 O   0  0  0  0  0  0  0  0  0
    0.7078   -0.0833    0.0000 C   0  0  0  0  0  0  0  0  0
    1.4223   -0.4958    0.0000 C   0  0  0  0  0  0  0  0  0
    2.1368   -0.0833    0.0000 C   0  0  0  0  0  0  0  0  0
    2.8512   -0.4958    0.0000 C   0  0  0  0  0  0  0  0  0
    3.5657   -0.0833    0.0000 C   0  0  0  0  0  0  0  0  0
    3.5657    0.7417    0.0000 C   0  0  0  0  0  0  0  0  0
    4.2802    1.1542    0.0000 C   0  0  0  0  0  0  0  0  0
    4.9946    0.7417    0.0000 C   0  0  0  0  0  0  0  0  0
    4.9946   -0.0833    0.0000 C   0  0  0  0  0  0  0  0  0
    4.2802   -0.4958    0.0000 C   0  0  0  0  0  0  0  0  0
   -0.7211   -0.0833    0.0000 C   0  0  0  0  0  0  0  0  0
   -0.7211    0.7417    0.0000 N   0  0  0  0  0  0  0  0  0
   -1.4356    1.1542    0.0000 C   0  0  0  0  0  0  0  0  0
   -2.1501    0.7417    0.0000 C   0  0  0  0  0  0  0  0  0
   -2.1501   -0.0833    0.0000 N   0  0  0  0  0  0  0  0  0
   -1.4356   -0.4958    0.0000 C   0  0  0  0  0  0  0  0  0
   -1.4356   -1.3208    0.0000 N   0  0  0  0  0  0  0  0  0
   -0.7211   -1.7333    0.0000 C   0  0  0  0  0  0  0  0  0
   -0.7211   -2.5583    0.0000 C   0  0  0  0  0  0  0  0  0
   -1.4356   -2.9708    0.0000 N   0  0  0  0  0  0  0  0  0
   -2.1501   -2.5583    0.0000 C   0  0  0  0  0  0  0  0  0
   -2.1501   -1.7333    0.0000 C   0  0  0  0  0  0  0  0  0
   -1.4356   -3.7958    0.0000 C   0  0  0  0  0  0  0  0  0
   -2.8645    1.1542    0.0000 C   0  0  0  0  0  0  0  0  0
   -2.8645    1.9792    0.0000 C   0  0  0  0  0  0  0  0  0
   -2.1501    2.3917    0.0000 C   0  0  0  0  0  0  0  0  0
   -1.4356    1.9792    0.0000 C   0  0  0  0  0  0  0  0  0
  1  2  1  0  0  0  0
  1 12  1  0  0  0  0
  2  3  1  0  0  0  0
  3  4  1  0  0  0  0
  4  5  1  0  0  0  0
  5  6  1  0  0  0  0
  6  7  4  0  0  0  0
  6 11  4  0  0  0  0
  7  8  4  0  0  0  0
  8  9  4  0  0  0  0
  9 10  4  0  0  0  0
 10 11  4  0  0  0  0
 12 13  4  0  0  0  0
 12 17  4  0  0  0  0
 13 14  4  0  0  0  0
 14 15  4  0  0  0  0
 14 28  4  0  0  0  0
 15 16  4  0  0  0  0
 15 25  4  0  0  0  0
 16 17  4  0  0  0  0
 17 18  1  0  0  0  0
 18 19  1  0  0  0  0
 18 23  1  0  0  0  0
 19 20  1  0  0  0  0
 20 21  1  0  0  0  0
 21 22  1  0  0  0  0
 21 24  1  0  0  0  0
 22 23  1  0  0  0  0
 25 26  4  0  0  0  0
 26 27  4  0  0  0  0
 27 28  4  0  0  0  0
M  END
>  <Name_Molregno>
429517

>  <HISTAMINE H4>
5.53

$$$$
429518
  Marvin  02231216192D 0   1.00000     0.00000     0

 25 28  0  0  0  0  0  0  0  0999 V2000
    0.2093   -0.2059    0.0000 O   0  0  0  0  0  0  0  0  0
    0.2093   -1.0309    0.0000 C   0  0  0  0  0  0  0  0  0
   -0.5052   -1.4434    0.0000 C   0  0  0  0  0  0  0  0  0
   -0.5052   -2.2684    0.0000 C   0  0  0  0  0  0  0  0  0
   -1.2197   -2.6809    0.0000 C   0  0  0  0  0  0  0  0  0
   -1.9341   -2.2684    0.0000 C   0  0  0  0  0  0  0  0  0
   -1.9341   -1.4434    0.0000 C   0  0  0  0  0  0  0  0  0
   -1.2197   -1.0309    0.0000 C   0  0  0  0  0  0  0  0  0
    0.9237    0.2066    0.0000 C   0  0  0  0  0  0  0  0  0
    1.6382   -0.2059    0.0000 N   0  0  0  0  0  0  0  0  0
    2.3527    0.2066    0.0000 C   0  0  0  0  0  0  0  0  0
    2.3527    1.0316    0.0000 C   0  0  0  0  0  0  0  0  0
    1.6382    1.4441    0.0000 N   0  0  0  0  0  0  0  0  0
    0.9237    1.0316    0.0000 C   0  0  0  0  0  0  0  0  0
    0.2093    1.4441    0.0000 N   0  0  0  0  0  0  0  0  0
   -0.5052    1.0316    0.0000 C   0  0  0  0  0  0  0  0  0
   -1.2197    1.4441    0.0000 C   0  0  0  0  0  0  0  0  0
   -1.2197    2.2691    0.0000 N   0  0  0  0  0  0  0  0  0
   -0.5052    2.6816    0.0000 C   0  0  0  0  0  0  0  0  0
    0.2093    2.2691    0.0000 C   0  0  0  0  0  0  0  0  0
   -1.9341    2.6816    0.0000 C   0  0  0  0  0  0  0  0  0
    3.0672    1.4441    0.0000 C   0  0  0  0  0  0  0  0  0
    3.7816    1.0316    0.0000 C   0  0  0  0  0  0  0  0  0
    3.7816    0.2066    0.0000 C   0  0  0  0  0  0  0  0  0
    3.0672   -0.2059    0.0000 C   0  0  0  0  0  0  0  0  0
  1  2  1  0  0  0  0
  1  9  1  0  0  0  0
  2  3  1  0  0  0  0
  3  4  4  0  0  0  0
  3  8  4  0  0  0  0
  4  5  4  0  0  0  0
  5  6  4  0  0  0  0
  6  7  4  0  0  0  0
  7  8  4  0  0  0  0
  9 10  4  0  0  0  0
  9 14  4  0  0  0  0
 10 11  4  0  0  0  0
 11 12  4  0  0  0  0
 11 25  4  0  0  0  0
 12 13  4  0  0  0  0
 12 22  4  0  0  0  0
 13 14  4  0  0  0  0
 14 15  1  0  0  0  0
 15 16  1  0  0  0  0
 15 20  1  0  0  0  0
 16 17  1  0  0  0  0
 17 18  1  0  0  0  0
 18 19  1  0  0  0  0
 18 21  1  0  0  0  0
 19 20  1  0  0  0  0
 22 23  4  0  0  0  0
 23 24  4  0  0  0  0
 24 25  4  0  0  0  0
M  END
>  <Name_Molregno>
429518

>  <HISTAMINE H4>
6.53

$$$$
429519
  Marvin  02231216192D 0   1.00000     0.00000     0

 26 29  0  0  0  0  0  0  0  0999 V2000
   -0.5374   -0.5342    0.0000 O   0  0  0  0  0  0  0  0  0
   -0.5374   -1.3592    0.0000 C   0  0  0  0  0  0  0  0  0
   -1.2519   -1.7717    0.0000 C   0  0  0  0  0  0  0  0  0
   -1.2519   -2.5967    0.0000 C   0  0  0  0  0  0  0  0  0
   -0.5374   -3.0092    0.0000 C   0  0  0  0  0  0  0  0  0
   -0.5374   -3.8342    0.0000 C   0  0  0  0  0  0  0  0  0
   -1.2519   -4.2467    0.0000 C   0  0  0  0  0  0  0  0  0
   -1.9663   -3.8342    0.0000 C   0  0  0  0  0  0  0  0  0
   -1.9663   -3.0092    0.0000 C   0  0  0  0  0  0  0  0  0
    0.1771   -0.1217    0.0000 C   0  0  0  0  0  0  0  0  0
    0.8915   -0.5342    0.0000 N   0  0  0  0  0  0  0  0  0
    1.6060   -0.1217    0.0000 C   0  0  0  0  0  0  0  0  0
    1.6060    0.7033    0.0000 C   0  0  0  0  0  0  0  0  0
    0.8915    1.1158    0.0000 N   0  0  0  0  0  0  0  0  0
    0.1771    0.7033    0.0000 C   0  0  0  0  0  0  0  0  0
   -0.5374    1.1158    0.0000 N   0  0  0  0  0  0  0  0  0
   -1.2519    0.7033    0.0000 C   0  0  0  0  0  0  0  0  0
   -1.9663    1.1158    0.0000 C   0  0  0  0  0  0  0  0  0
   -1.9663    1.9408    0.0000 N   0  0  0  0  0  0  0  0  0
   -1.2519    2.3533    0.0000 C   0  0  0  0  0  0  0  0  0
   -0.5374    1.9408    0.0000 C   0  0  0  0  0  0  0  0  0
   -2.6808    2.3533    0.0000 C   0  0  0  0  0  0  0  0  0
    2.3205    1.1158    0.0000 C   0  0  0  0  0  0  0  0  0
    3.0350    0.7033    0.0000 C   0  0  0  0  0  0  0  0  0
    3.0350   -0.1217    0.0000 C   0  0  0  0  0  0  0  0  0
    2.3205   -0.5342    0.0000 C   0  0  0  0  0  0  0  0  0
  1  2  1  0  0  0  0
  1 10  1  0  0  0  0
  2  3  1  0  0  0  0
  3  4  1  0  0  0  0
  4  5  4  0  0  0  0
  4  9  4  0  0  0  0
  5  6  4  0  0  0  0
  6  7  4  0  0  0  0
  7  8  4  0  0  0  0
  8  9  4  0  0  0  0
 10 11  4  0  0  0  0
 10 15  4  0  0  0  0
 11 12  4  0  0  0  0
 12 13  4  0  0  0  0
 12 26  4  0  0  0  0
 13 14  4  0  0  0  0
 13 23  4  0  0  0  0
 14 15  4  0  0  0  0
 15 16  1  0  0  0  0
 16 17  1  0  0  0  0
 16 21  1  0  0  0  0
 17 18  1  0  0  0  0
 18 19  1  0  0  0  0
 19 20  1  0  0  0  0
 19 22  1  0  0  0  0
 20 21  1  0  0  0  0
 23 24  4  0  0  0  0
 24 25  4  0  0  0  0
 25 26  4  0  0  0  0
M  END
>  <Name_Molregno>
429519

>  <HISTAMINE H4>
6.32

$$$$
429570
  Marvin  02231216192D 0   1.00000     0.00000     0

 25 28  0  0  0  0  0  0  0  0999 V2000
    2.3145   -0.0311    0.0000 N   0  0  0  0  0  0  0  0  0
    3.0289    0.3814    0.0000 C   0  0  0  0  0  0  0  0  0
    3.0289    1.2064    0.0000 C   0  0  0  0  0  0  0  0  0
    2.3145    1.6189    0.0000 N   0  0  0  0  0  0  0  0  0
    1.6000    1.2064    0.0000 C   0  0  0  0  0  0  0  0  0
    0.8855    1.6189    0.0000 N   0  0  0  0  0  0  0  0  0
    0.8855    2.4439    0.0000 C   0  0  0  0  0  0  0  0  0
    0.1711    2.8564    0.0000 C   0  0  0  0  0  0  0  0  0
   -0.5434    2.4439    0.0000 C   0  0  0  0  0  0  0  0  0
   -1.2579    2.8564    0.0000 C   0  0  0  0  0  0  0  0  0
   -1.2579    3.6814    0.0000 C   0  0  0  0  0  0  0  0  0
   -0.5434    4.0939    0.0000 C   0  0  0  0  0  0  0  0  0
    0.1711    3.6814    0.0000 C   0  0  0  0  0  0  0  0  0
    1.6000    0.3814    0.0000 C   0  0  0  0  0  0  0  0  0
    0.8855   -0.0311    0.0000 N   0  0  0  0  0  0  0  0  0
    0.8855   -0.8561    0.0000 C   0  0  0  0  0  0  0  0  0
    0.1711   -1.2686    0.0000 C   0  0  0  0  0  0  0  0  0
   -0.5434   -0.8561    0.0000 N   0  0  0  0  0  0  0  0  0
   -0.5434   -0.0311    0.0000 C   0  0  0  0  0  0  0  0  0
    0.1711    0.3814    0.0000 C   0  0  0  0  0  0  0  0  0
   -1.2579   -1.2686    0.0000 C   0  0  0  0  0  0  0  0  0
    3.7434    1.6189    0.0000 C   0  0  0  0  0  0  0  0  0
    4.4579    1.2064    0.0000 C   0  0  0  0  0  0  0  0  0
    4.4579    0.3814    0.0000 C   0  0  0  0  0  0  0  0  0
    3.7434   -0.0311    0.0000 C   0  0  0  0  0  0  0  0  0
  1  2  4  0  0  0  0
  1 14  4  0  0  0  0
  2  3  4  0  0  0  0
  2 25  4  0  0  0  0
  3  4  4  0  0  0  0
  3 22  4  0  0  0  0
  4  5  4  0  0  0  0
  5  6  1  0  0  0  0
  5 14  4  0  0  0  0
  6  7  1  0  0  0  0
  7  8  1  0  0  0  0
  8  9  4  0  0  0  0
  8 13  4  0  0  0  0
  9 10  4  0  0  0  0
 10 11  4  0  0  0  0
 11 12  4  0  0  0  0
 12 13  4  0  0  0  0
 14 15  1  0  0  0  0
 15 16  1  0  0  0  0
 15 20  1  0  0  0  0
 16 17  1  0  0  0  0
 17 18  1  0  0  0  0
 18 19  1  0  0  0  0
 18 21  1  0  0  0  0
 19 20  1  0  0  0  0
 22 23  4  0  0  0  0
 23 24  4  0  0  0  0
 24 25  4  0  0  0  0
M  END
>  <Name_Molregno>
429570

>  <HISTAMINE H4>
5.13

$$$$
429574
  Marvin  02231216192D 0   1.00000     0.00000     0

 24 27  0  0  0  0  0  0  0  0999 V2000
   -0.3684   -1.3483    0.0000 S   0  0  0  0  0  0  0  0  0
    0.3461   -0.9358    0.0000 C   0  0  0  0  0  0  0  0  0
    1.0606   -1.3483    0.0000 N   0  0  0  0  0  0  0  0  0
    1.7751   -0.9358    0.0000 C   0  0  0  0  0  0  0  0  0
    1.7751   -0.1108    0.0000 C   0  0  0  0  0  0  0  0  0
    1.0606    0.3017    0.0000 N   0  0  0  0  0  0  0  0  0
    0.3461   -0.1108    0.0000 C   0  0  0  0  0  0  0  0  0
   -0.3684    0.3017    0.0000 N   0  0  0  0  0  0  0  0  0
   -1.0828   -0.1108    0.0000 C   0  0  0  0  0  0  0  0  0
   -1.7973    0.3017    0.0000 C   0  0  0  0  0  0  0  0  0
   -1.7973    1.1267    0.0000 N   0  0  0  0  0  0  0  0  0
   -1.0828    1.5392    0.0000 C   0  0  0  0  0  0  0  0  0
   -0.3684    1.1267    0.0000 C   0  0  0  0  0  0  0  0  0
   -2.5118    1.5392    0.0000 C   0  0  0  0  0  0  0  0  0
    2.4895    0.3017    0.0000 C   0  0  0  0  0  0  0  0  0
    3.2040   -0.1108    0.0000 C   0  0  0  0  0  0  0  0  0
    3.2040   -0.9358    0.0000 C   0  0  0  0  0  0  0  0  0
    2.4895   -1.3483    0.0000 C   0  0  0  0  0  0  0  0  0
   -0.3684   -2.1733    0.0000 C   0  0  0  0  0  0  0  0  0
    0.3461   -2.5858    0.0000 C   0  0  0  0  0  0  0  0  0
    0.3461   -3.4108    0.0000 C   0  0  0  0  0  0  0  0  0
   -0.3684   -3.8233    0.0000 C   0  0  0  0  0  0  0  0  0
   -1.0828   -3.4108    0.0000 C   0  0  0  0  0  0  0  0  0
   -1.0828   -2.5858    0.0000 C   0  0  0  0  0  0  0  0  0
  1  2  1  0  0  0  0
  1 19  1  0  0  0  0
  2  3  4  0  0  0  0
  2  7  4  0  0  0  0
  3  4  4  0  0  0  0
  4  5  4  0  0  0  0
  4 18  4  0  0  0  0
  5  6  4  0  0  0  0
  5 15  4  0  0  0  0
  6  7  4  0  0  0  0
  7  8  1  0  0  0  0
  8  9  1  0  0  0  0
  8 13  1  0  0  0  0
  9 10  1  0  0  0  0
 10 11  1  0  0  0  0
 11 12  1  0  0  0  0
 11 14  1  0  0  0  0
 12 13  1  0  0  0  0
 15 16  4  0  0  0  0
 16 17  4  0  0  0  0
 17 18  4  0  0  0  0
 19 20  4  0  0  0  0
 19 24  4  0  0  0  0
 20 21  4  0  0  0  0
 21 22  4  0  0  0  0
 22 23  4  0  0  0  0
 23 24  4  0  0  0  0
M  END
>  <Name_Molregno>
429574

>  <HISTAMINE H4>
6.44

$$$$
429617
  Marvin  02231216192D 0   1.00000     0.00000     0

 24 27  0  0  0  0  0  0  0  0999 V2000
   -0.1498   -0.4732    0.0000 N   0  0  0  0  0  0  0  0  0
    0.5647   -0.0607    0.0000 C   0  0  0  0  0  0  0  0  0
    0.5647    0.7643    0.0000 C   0  0  0  0  0  0  0  0  0
   -0.1498    1.1768    0.0000 N   0  0  0  0  0  0  0  0  0
   -0.8643    0.7643    0.0000 C   0  0  0  0  0  0  0  0  0
   -1.5787    1.1768    0.0000 N   0  0  0  0  0  0  0  0  0
   -2.2932    0.7643    0.0000 C   0  0  0  0  0  0  0  0  0
   -3.0077    1.1768    0.0000 C   0  0  0  0  0  0  0  0  0
   -3.0077    2.0018    0.0000 N   0  0  0  0  0  0  0  0  0
   -2.2932    2.4143    0.0000 C   0  0  0  0  0  0  0  0  0
   -1.5787    2.0018    0.0000 C   0  0  0  0  0  0  0  0  0
   -3.7221    2.4143    0.0000 C   0  0  0  0  0  0  0  0  0
   -0.8643   -0.0607    0.0000 C   0  0  0  0  0  0  0  0  0
   -1.5787   -0.4732    0.0000 C   0  0  0  0  0  0  0  0  0
   -1.5787   -1.2982    0.0000 C   0  0  0  0  0  0  0  0  0
   -0.8643   -1.7107    0.0000 C   0  0  0  0  0  0  0  0  0
   -0.8643   -2.5357    0.0000 C   0  0  0  0  0  0  0  0  0
   -1.5787   -2.9482    0.0000 C   0  0  0  0  0  0  0  0  0
   -2.2932   -2.5357    0.0000 C   0  0  0  0  0  0  0  0  0
   -2.2932   -1.7107    0.0000 C   0  0  0  0  0  0  0  0  0
    1.2792    1.1768    0.0000 C   0  0  0  0  0  0  0  0  0
    1.9936    0.7643    0.0000 C   0  0  0  0  0  0  0  0  0
    1.9936   -0.0607    0.0000 C   0  0  0  0  0  0  0  0  0
    1.2792   -0.4732    0.0000 C   0  0  0  0  0  0  0  0  0
  1  2  4  0  0  0  0
  1 13  4  0  0  0  0
  2  3  4  0  0  0  0
  2 24  4  0  0  0  0
  3  4  4  0  0  0  0
  3 21  4  0  0  0  0
  4  5  4  0  0  0  0
  5  6  1  0  0  0  0
  5 13  4  0  0  0  0
  6  7  1  0  0  0  0
  6 11  1  0  0  0  0
  7  8  1  0  0  0  0
  8  9  1  0  0  0  0
  9 10  1  0  0  0  0
  9 12  1  0  0  0  0
 10 11  1  0  0  0  0
 13 14  1  0  0  0  0
 14 15  1  0  0  0  0
 15 16  4  0  0  0  0
 15 20  4  0  0  0  0
 16 17  4  0  0  0  0
 17 18  4  0  0  0  0
 18 19  4  0  0  0  0
 19 20  4  0  0  0  0
 21 22  4  0  0  0  0
 22 23  4  0  0  0  0
 23 24  4  0  0  0  0
M  END
>  <Name_Molregno>
429617

>  <HISTAMINE H1>
6.13

>  <HISTAMINE H4>
7.4

$$$$
429658
  Marvin  02231216192D 0   1.00000     0.00000     0

 18 20  0  0  0  0  0  0  0  0999 V2000
   -0.5432   -0.4946    0.0000 N   0  0  0  0  0  0  0  0  0
    0.1713   -0.0821    0.0000 C   0  0  0  0  0  0  0  0  0
    0.1713    0.7429    0.0000 C   0  0  0  0  0  0  0  0  0
   -0.5432    1.1554    0.0000 N   0  0  0  0  0  0  0  0  0
   -1.2577    0.7429    0.0000 C   0  0  0  0  0  0  0  0  0
   -1.9722    1.1554    0.0000 N   0  0  0  0  0  0  0  0  0
   -2.6866    0.7429    0.0000 C   0  0  0  0  0  0  0  0  0
   -3.4011    1.1554    0.0000 C   0  0  0  0  0  0  0  0  0
   -3.4011    1.9804    0.0000 N   0  0  0  0  0  0  0  0  0
   -2.6866    2.3929    0.0000 C   0  0  0  0  0  0  0  0  0
   -1.9722    1.9804    0.0000 C   0  0  0  0  0  0  0  0  0
   -4.1156    2.3929    0.0000 C   0  0  0  0  0  0  0  0  0
   -1.2577   -0.0821    0.0000 C   0  0  0  0  0  0  0  0  0
   -1.9722   -0.4946    0.0000 C   0  0  0  0  0  0  0  0  0
    0.8857    1.1554    0.0000 C   0  0  0  0  0  0  0  0  0
    1.6002    0.7429    0.0000 C   0  0  0  0  0  0  0  0  0
    1.6002   -0.0821    0.0000 C   0  0  0  0  0  0  0  0  0
    0.8857   -0.4946    0.0000 C   0  0  0  0  0  0  0  0  0
  1  2  4  0  0  0  0
  1 13  4  0  0  0  0
  2  3  4  0  0  0  0
  2 18  4  0  0  0  0
  3  4  4  0  0  0  0
  3 15  4  0  0  0  0
  4  5  4  0  0  0  0
  5  6  1  0  0  0  0
  5 13  4  0  0  0  0
  6  7  1  0  0  0  0
  6 11  1  0  0  0  0
  7  8  1  0  0  0  0
  8  9  1  0  0  0  0
  9 10  1  0  0  0  0
  9 12  1  0  0  0  0
 10 11  1  0  0  0  0
 13 14  1  0  0  0  0
 15 16  4  0  0  0  0
 16 17  4  0  0  0  0
 17 18  4  0  0  0  0
M  END
>  <Name_Molregno>
429658

>  <HISTAMINE H4>
6.7

$$$$
429659
  Marvin  02231216192D 0   1.00000     0.00000     0

 23 26  0  0  0  0  0  0  0  0999 V2000
    2.2228   -0.6207    0.0000 N   0  0  0  0  0  0  0  0  0
    2.9373   -0.2082    0.0000 C   0  0  0  0  0  0  0  0  0
    2.9373    0.6168    0.0000 C   0  0  0  0  0  0  0  0  0
    2.2228    1.0293    0.0000 N   0  0  0  0  0  0  0  0  0
    1.5084    0.6168    0.0000 C   0  0  0  0  0  0  0  0  0
    0.7939    1.0293    0.0000 N   0  0  0  0  0  0  0  0  0
    0.0794    0.6168    0.0000 C   0  0  0  0  0  0  0  0  0
   -0.6350    1.0293    0.0000 C   0  0  0  0  0  0  0  0  0
   -0.6350    1.8543    0.0000 N   0  0  0  0  0  0  0  0  0
    0.0794    2.2668    0.0000 C   0  0  0  0  0  0  0  0  0
    0.7939    1.8543    0.0000 C   0  0  0  0  0  0  0  0  0
   -1.3495    2.2668    0.0000 C   0  0  0  0  0  0  0  0  0
    1.5084   -0.2082    0.0000 C   0  0  0  0  0  0  0  0  0
    0.7939   -0.6207    0.0000 C   0  0  0  0  0  0  0  0  0
    0.7939   -1.4457    0.0000 C   0  0  0  0  0  0  0  0  0
    0.0794   -1.8582    0.0000 C   0  0  0  0  0  0  0  0  0
   -0.6350   -1.4457    0.0000 C   0  0  0  0  0  0  0  0  0
   -0.6350   -0.6207    0.0000 C   0  0  0  0  0  0  0  0  0
    0.0794   -0.2082    0.0000 C   0  0  0  0  0  0  0  0  0
    3.6518    1.0293    0.0000 C   0  0  0  0  0  0  0  0  0
    4.3663    0.6168    0.0000 C   0  0  0  0  0  0  0  0  0
    4.3663   -0.2082    0.0000 C   0  0  0  0  0  0  0  0  0
    3.6518   -0.6207    0.0000 C   0  0  0  0  0  0  0  0  0
  1  2  4  0  0  0  0
  1 13  4  0  0  0  0
  2  3  4  0  0  0  0
  2 23  4  0  0  0  0
  3  4  4  0  0  0  0
  3 20  4  0  0  0  0
  4  5  4  0  0  0  0
  5  6  1  0  0  0  0
  5 13  4  0  0  0  0
  6  7  1  0  0  0  0
  6 11  1  0  0  0  0
  7  8  1  0  0  0  0
  8  9  1  0  0  0  0
  9 10  1  0  0  0  0
  9 12  1  0  0  0  0
 10 11  1  0  0  0  0
 13 14  1  0  0  0  0
 14 15  4  0  0  0  0
 14 19  4  0  0  0  0
 15 16  4  0  0  0  0
 16 17  4  0  0  0  0
 17 18  4  0  0  0  0
 18 19  4  0  0  0  0
 20 21  4  0  0  0  0
 21 22  4  0  0  0  0
 22 23  4  0  0  0  0
M  END
>  <Name_Molregno>
429659

>  <HISTAMINE H4>
4.99

$$$$
429662
  Marvin  02231216192D 0   1.00000     0.00000     0

 20 22  0  0  0  0  0  0  0  0999 V2000
    2.1499    0.3508    0.0000 S   0  0  0  0  0  0  0  0  0
    1.4354   -0.0617    0.0000 C   0  0  0  0  0  0  0  0  0
    0.7210    0.3508    0.0000 N   0  0  0  0  0  0  0  0  0
    0.7210    1.1758    0.0000 C   0  0  0  0  0  0  0  0  0
    0.0065    1.5883    0.0000 C   0  0  0  0  0  0  0  0  0
    0.0065    2.4133    0.0000 C   0  0  0  0  0  0  0  0  0
    0.7210    2.8258    0.0000 C   0  0  0  0  0  0  0  0  0
    1.4354    2.4133    0.0000 C   0  0  0  0  0  0  0  0  0
    1.4354    1.5883    0.0000 C   0  0  0  0  0  0  0  0  0
    1.4354   -0.8867    0.0000 N   0  0  0  0  0  0  0  0  0
    2.1499   -1.2992    0.0000 C   0  0  0  0  0  0  0  0  0
    2.1499   -2.1242    0.0000 C   0  0  0  0  0  0  0  0  0
    1.4354   -2.5367    0.0000 C   0  0  0  0  0  0  0  0  0
    0.7210   -2.1242    0.0000 C   0  0  0  0  0  0  0  0  0
    0.7210   -1.2992    0.0000 C   0  0  0  0  0  0  0  0  0
    1.4354   -3.3617    0.0000 C   0  0  0  0  0  0  0  0  0
    2.1029   -3.8467    0.0000 N   0  0  0  0  0  0  0  0  0
    1.8479   -4.6313    0.0000 C   0  0  0  0  0  0  0  0  0
    1.0229   -4.6313    0.0000 N   0  0  0  0  0  0  0  0  0
    0.7680   -3.8467    0.0000 C   0  0  0  0  0  0  0  0  0
  1  2  2  0  0  0  0
  2  3  1  0  0  0  0
  2 10  1  0  0  0  0
  3  4  1  0  0  0  0
  4  5  1  0  0  0  0
  4  9  1  0  0  0  0
  5  6  1  0  0  0  0
  6  7  1  0  0  0  0
  7  8  1  0  0  0  0
  8  9  1  0  0  0  0
 10 11  1  0  0  0  0
 10 15  1  0  0  0  0
 11 12  1  0  0  0  0
 12 13  1  0  0  0  0
 13 14  1  0  0  0  0
 13 16  1  0  0  0  0
 14 15  1  0  0  0  0
 16 17  4  0  0  0  0
 16 20  4  0  0  0  0
 17 18  4  0  0  0  0
 18 19  4  0  0  0  0
 19 20  4  0  0  0  0
M  STY  1   1 DAT
M  SAL   1  1  17
M  SDT   1 MRV_IMPLICIT_H                                        
M  SDD   1     0.0000    0.0000    DR    ALL  0       0  
M  SED   1 IMPL_H1
M  END
>  <Name_Molregno>
429662

>  <Alpha-2A>
6.9

>  <Alpha-2C>
6.46

>  <HISTAMINE H1>
5

>  <HISTAMINE H2>
5

>  <HISTAMINE H3>
7.2

>  <HISTAMINE H4>
7.22

>  <Muscarinic acetylcholine receptor M3>
5

$$$$
429701
  Marvin  02231216192D 0   1.00000     0.00000     0

 17 19  0  0  0  0  0  0  0  0999 V2000
   -1.8241   -1.8064    0.0000 N   0  0  0  0  0  0  0  0  0
   -1.8241   -2.6314    0.0000 C   0  0  0  0  0  0  0  0  0
   -1.1097   -3.0439    0.0000 C   0  0  0  0  0  0  0  0  0
   -0.3952   -2.6314    0.0000 C   0  0  0  0  0  0  0  0  0
   -0.3952   -1.8064    0.0000 C   0  0  0  0  0  0  0  0  0
    0.3193   -1.3939    0.0000 C   0  0  0  0  0  0  0  0  0
    1.0337   -1.8064    0.0000 C   0  0  0  0  0  0  0  0  0
    1.0337   -2.6314    0.0000 C   0  0  0  0  0  0  0  0  0
    0.3193   -3.0439    0.0000 C   0  0  0  0  0  0  0  0  0
   -1.1097   -1.3939    0.0000 C   0  0  0  0  0  0  0  0  0
   -1.1097   -0.5689    0.0000 N   0  0  0  0  0  0  0  0  0
   -1.8241   -0.1564    0.0000 C   0  0  0  0  0  0  0  0  0
   -1.8241    0.6686    0.0000 C   0  0  0  0  0  0  0  0  0
   -1.1097    1.0811    0.0000 N   0  0  0  0  0  0  0  0  0
   -0.3952    0.6686    0.0000 C   0  0  0  0  0  0  0  0  0
   -0.3952   -0.1564    0.0000 C   0  0  0  0  0  0  0  0  0
   -1.1097    1.9061    0.0000 C   0  0  0  0  0  0  0  0  0
  1  2  4  0  0  0  0
  1 10  4  0  0  0  0
  2  3  4  0  0  0  0
  3  4  4  0  0  0  0
  4  5  4  0  0  0  0
  4  9  4  0  0  0  0
  5  6  4  0  0  0  0
  5 10  4  0  0  0  0
  6  7  4  0  0  0  0
  7  8  4  0  0  0  0
  8  9  4  0  0  0  0
 10 11  1  0  0  0  0
 11 12  1  0  0  0  0
 11 16  1  0  0  0  0
 12 13  1  0  0  0  0
 13 14  1  0  0  0  0
 14 15  1  0  0  0  0
 14 17  1  0  0  0  0
 15 16  1  0  0  0  0
M  END
>  <Name_Molregno>
429701

>  <HISTAMINE H4>
4.69

$$$$
429702
  Marvin  02231216192D 0   1.00000     0.00000     0

 17 19  0  0  0  0  0  0  0  0999 V2000
    0.8810    0.2218    0.0000 N   0  0  0  0  0  0  0  0  0
    1.5955    0.6343    0.0000 C   0  0  0  0  0  0  0  0  0
    1.5955    1.4593    0.0000 C   0  0  0  0  0  0  0  0  0
    2.3100    1.8718    0.0000 C   0  0  0  0  0  0  0  0  0
    3.0244    1.4593    0.0000 C   0  0  0  0  0  0  0  0  0
    3.0244    0.6343    0.0000 C   0  0  0  0  0  0  0  0  0
    2.3100    0.2218    0.0000 C   0  0  0  0  0  0  0  0  0
    0.8810    1.8718    0.0000 C   0  0  0  0  0  0  0  0  0
    0.1666    1.4593    0.0000 N   0  0  0  0  0  0  0  0  0
    0.1666    0.6343    0.0000 C   0  0  0  0  0  0  0  0  0
   -0.5479    0.2218    0.0000 N   0  0  0  0  0  0  0  0  0
   -0.5479   -0.6032    0.0000 C   0  0  0  0  0  0  0  0  0
   -1.2624   -1.0157    0.0000 C   0  0  0  0  0  0  0  0  0
   -1.9769   -0.6032    0.0000 N   0  0  0  0  0  0  0  0  0
   -1.9769    0.2218    0.0000 C   0  0  0  0  0  0  0  0  0
   -1.2624    0.6343    0.0000 C   0  0  0  0  0  0  0  0  0
   -2.6913   -1.0157    0.0000 C   0  0  0  0  0  0  0  0  0
  1  2  4  0  0  0  0
  1 10  4  0  0  0  0
  2  3  4  0  0  0  0
  2  7  4  0  0  0  0
  3  4  4  0  0  0  0
  3  8  4  0  0  0  0
  4  5  4  0  0  0  0
  5  6  4  0  0  0  0
  6  7  4  0  0  0  0
  8  9  4  0  0  0  0
  9 10  4  0  0  0  0
 10 11  1  0  0  0  0
 11 12  1  0  0  0  0
 11 16  1  0  0  0  0
 12 13  1  0  0  0  0
 13 14  1  0  0  0  0
 14 15  1  0  0  0  0
 14 17  1  0  0  0  0
 15 16  1  0  0  0  0
M  END
>  <Name_Molregno>
429702

>  <HISTAMINE H4>
5.12

$$$$
429748
  Marvin  02231216192D 0   1.00000     0.00000     0

 18 20  0  0  0  0  0  0  0  0999 V2000
    0.1358   -1.7504    0.0000 Cl  0  0  0  0  0  0  0  0  0
    0.8502   -1.3379    0.0000 C   0  0  0  0  0  0  0  0  0
    1.5647   -1.7504    0.0000 C   0  0  0  0  0  0  0  0  0
    2.2792   -1.3379    0.0000 C   0  0  0  0  0  0  0  0  0
    2.2792   -0.5129    0.0000 C   0  0  0  0  0  0  0  0  0
    2.9937   -0.1004    0.0000 N   0  0  0  0  0  0  0  0  0
    3.7081   -0.5129    0.0000 C   0  0  0  0  0  0  0  0  0
    4.4226   -0.1004    0.0000 N   0  0  0  0  0  0  0  0  0
    4.4226    0.7246    0.0000 C   0  0  0  0  0  0  0  0  0
    5.1371    1.1371    0.0000 C   0  0  0  0  0  0  0  0  0
    5.8515    0.7246    0.0000 N   0  0  0  0  0  0  0  0  0
    5.8515   -0.1004    0.0000 C   0  0  0  0  0  0  0  0  0
    5.1371   -0.5129    0.0000 C   0  0  0  0  0  0  0  0  0
    6.5660    1.1371    0.0000 C   0  0  0  0  0  0  0  0  0
    3.7081   -1.3379    0.0000 C   0  0  0  0  0  0  0  0  0
    2.9937   -1.7504    0.0000 C   0  0  0  0  0  0  0  0  0
    1.5647   -0.1004    0.0000 C   0  0  0  0  0  0  0  0  0
    0.8502   -0.5129    0.0000 C   0  0  0  0  0  0  0  0  0
  1  2  1  0  0  0  0
  2  3  4  0  0  0  0
  2 18  4  0  0  0  0
  3  4  4  0  0  0  0
  4  5  4  0  0  0  0
  4 16  4  0  0  0  0
  5  6  4  0  0  0  0
  5 17  4  0  0  0  0
  6  7  4  0  0  0  0
  7  8  1  0  0  0  0
  7 15  4  0  0  0  0
  8  9  1  0  0  0  0
  8 13  1  0  0  0  0
  9 10  1  0  0  0  0
 10 11  1  0  0  0  0
 11 12  1  0  0  0  0
 11 14  1  0  0  0  0
 12 13  1  0  0  0  0
 15 16  4  0  0  0  0
 17 18  4  0  0  0  0
M  END
>  <Name_Molregno>
429748

>  <HISTAMINE H4>
6.23

$$$$
429836
  Marvin  02231216192D 0   1.00000     0.00000     0

 20 22  0  0  0  0  0  0  0  0999 V2000
    0.1230    0.7822    0.0000 Cl  0  0  0  0  0  0  0  0  0
    0.8375    0.3697    0.0000 C   0  0  0  0  0  0  0  0  0
    1.5519    0.7822    0.0000 C   0  0  0  0  0  0  0  0  0
    2.2664    0.3697    0.0000 C   0  0  0  0  0  0  0  0  0
    2.9809    0.7822    0.0000 N   0  0  0  0  0  0  0  0  0
    3.6954    0.3697    0.0000 C   0  0  0  0  0  0  0  0  0
    4.4098    0.7822    0.0000 O   0  0  0  0  0  0  0  0  0
    3.6954   -0.4553    0.0000 C   0  0  0  0  0  0  0  0  0
    2.9809   -0.8678    0.0000 N   0  0  0  0  0  0  0  0  0
    2.2664   -0.4553    0.0000 C   0  0  0  0  0  0  0  0  0
    1.5519   -0.8678    0.0000 C   0  0  0  0  0  0  0  0  0
    0.8375   -0.4553    0.0000 C   0  0  0  0  0  0  0  0  0
    0.1230   -0.8678    0.0000 Cl  0  0  0  0  0  0  0  0  0
    4.4098   -0.8678    0.0000 N   0  0  0  0  0  0  0  0  0
    5.1243   -0.4553    0.0000 C   0  0  0  0  0  0  0  0  0
    5.8388   -0.8678    0.0000 C   0  0  0  0  0  0  0  0  0
    5.8388   -1.6928    0.0000 N   0  0  0  0  0  0  0  0  0
    5.1243   -2.1053    0.0000 C   0  0  0  0  0  0  0  0  0
    4.4098   -1.6928    0.0000 C   0  0  0  0  0  0  0  0  0
    6.5532   -2.1053    0.0000 C   0  0  0  0  0  0  0  0  0
  1  2  1  0  0  0  0
  2  3  4  0  0  0  0
  2 12  4  0  0  0  0
  3  4  4  0  0  0  0
  4  5  1  0  0  0  0
  4 10  4  0  0  0  0
  5  6  1  0  0  0  0
  6  7  2  0  0  0  0
  6  8  1  0  0  0  0
  8  9  2  0  0  0  0
  8 14  1  0  0  0  0
  9 10  1  0  0  0  0
 10 11  4  0  0  0  0
 11 12  4  0  0  0  0
 12 13  1  0  0  0  0
 14 15  1  0  0  0  0
 14 19  1  0  0  0  0
 15 16  1  0  0  0  0
 16 17  1  0  0  0  0
 17 18  1  0  0  0  0
 17 20  1  0  0  0  0
 18 19  1  0  0  0  0
M  END
>  <Name_Molregno>
429836

>  <HISTAMINE H4>
8.25

$$$$
429919
  Marvin  02231216192D 0   1.00000     0.00000     0

 19 21  0  0  0  0  0  0  0  0999 V2000
   -0.0877   -0.0185    0.0000 Cl  0  0  0  0  0  0  0  0  0
    0.6268   -0.4310    0.0000 C   0  0  0  0  0  0  0  0  0
    1.3413   -0.0185    0.0000 C   0  0  0  0  0  0  0  0  0
    2.0558   -0.4310    0.0000 C   0  0  0  0  0  0  0  0  0
    2.7702   -0.0185    0.0000 N   0  0  0  0  0  0  0  0  0
    3.4847   -0.4310    0.0000 C   0  0  0  0  0  0  0  0  0
    4.1992   -0.0185    0.0000 N   0  0  0  0  0  0  0  0  0
    4.1992    0.8065    0.0000 C   0  0  0  0  0  0  0  0  0
    4.9136    1.2190    0.0000 C   0  0  0  0  0  0  0  0  0
    5.6281    0.8065    0.0000 N   0  0  0  0  0  0  0  0  0
    5.6281   -0.0185    0.0000 C   0  0  0  0  0  0  0  0  0
    4.9136   -0.4310    0.0000 C   0  0  0  0  0  0  0  0  0
    6.3426    1.2190    0.0000 C   0  0  0  0  0  0  0  0  0
    3.4847   -1.2560    0.0000 C   0  0  0  0  0  0  0  0  0
    4.1992   -1.6685    0.0000 O   0  0  0  0  0  0  0  0  0
    2.7702   -1.6685    0.0000 N   0  0  0  0  0  0  0  0  0
    2.0558   -1.2560    0.0000 C   0  0  0  0  0  0  0  0  0
    1.3413   -1.6685    0.0000 C   0  0  0  0  0  0  0  0  0
    0.6268   -1.2560    0.0000 C   0  0  0  0  0  0  0  0  0
  1  2  1  0  0  0  0
  2  3  4  0  0  0  0
  2 19  4  0  0  0  0
  3  4  4  0  0  0  0
  4  5  1  0  0  0  0
  4 17  4  0  0  0  0
  5  6  2  0  0  0  0
  6  7  1  0  0  0  0
  6 14  1  0  0  0  0
  7  8  1  0  0  0  0
  7 12  1  0  0  0  0
  8  9  1  0  0  0  0
  9 10  1  0  0  0  0
 10 11  1  0  0  0  0
 10 13  1  0  0  0  0
 11 12  1  0  0  0  0
 14 15  2  0  0  0  0
 14 16  1  0  0  0  0
 16 17  1  0  0  0  0
 17 18  4  0  0  0  0
 18 19  4  0  0  0  0
M  END
>  <Name_Molregno>
429919

>  <HISTAMINE H4>
7.93

$$$$
451337
  Marvin  02231216192D 0   1.00000     0.00000     0

 33 37  0  0  1  0  0  0  0  0999 V2000
    4.7376   -1.4397    0.0000 O   0  0  0  0  0  0  0  0  0
    5.2341   -0.7809    0.0000 C   0  0  0  0  0  0  0  0  0
    4.9119   -0.0215    0.0000 N   0  0  0  0  0  0  0  0  0
    5.4084    0.6374    0.0000 C   0  0  0  0  0  0  0  0  0
    4.0930    0.0792    0.0000 C   0  0  0  0  0  0  0  0  0
    3.7707    0.8386    0.0000 C   0  0  0  0  0  0  0  0  0
    2.9519    0.9392    0.0000 C   0  0  0  0  0  0  0  0  0
    2.6296    1.6987    0.0000 C   0  0  0  0  0  0  0  0  0
    1.8108    1.7993    0.0000 C   0  0  0  0  0  0  0  0  0
    1.3142    1.1405    0.0000 C   0  0  0  0  0  0  0  0  0
    1.6365    0.3810    0.0000 C   0  0  0  0  0  0  0  0  0
    1.1399   -0.2778    0.0000 C   0  0  0  0  0  0  0  0  0
    0.3211   -0.1772    0.0000 C   0  0  0  0  0  0  0  0  0
   -0.0012    0.5823    0.0000 C   0  0  0  0  0  0  0  0  0
   -0.7812    0.8509    0.0000 C   0  0  0  0  0  0  0  0  0
   -0.7667    1.6758    0.0000 C   0  0  0  0  0  0  0  0  0
    0.0222    1.9169    0.0000 C   0  0  0  0  0  0  0  0  0
    0.4954    1.2411    0.0000 C   0  0  0  0  0  0  0  0  0
   -1.2778    0.1921    0.0000 C   0  0  0  0  0  0  0  0  0
   -0.8046   -0.4837    0.0000 N   0  0  0  0  0  0  0  0  0
   -0.0157   -0.2426    0.0000 C   0  0  0  0  0  0  0  0  0
   -1.0733   -1.2638    0.0000 C   0  0  0  0  0  0  0  0  0
   -2.1026    0.2066    0.0000 C   0  0  0  0  0  0  0  0  0
    2.4553    0.2804    0.0000 C   0  0  0  0  0  0  0  0  0
    2.7776   -0.4790    0.0000 C   0  0  0  0  0  0  0  0  0
    3.5965   -0.5797    0.0000 C   0  0  0  0  0  0  0  0  0
    1.9588   -0.3784    0.0000 C   0  0  0  0  0  0  0  0  0
    6.0530   -0.8815    0.0000 C   0  0  0  0  0  0  0  0  0
    6.3753   -1.6410    0.0000 N   0  0  0  0  0  0  0  0  0
    7.1941   -1.7416    0.0000 C   0  0  0  0  0  0  0  0  0
    6.5495   -0.2227    0.0000 C   0  0  0  0  0  0  0  0  0
    6.2273    0.5368    0.0000 C   0  0  0  0  0  0  0  0  0
    7.3684   -0.3233    0.0000 C   0  0  0  0  0  0  0  0  0
  1  2  2  0  0  0  0
  2  3  1  0  0  0  0
  2 28  1  0  0  0  0
  3  4  1  0  0  0  0
  3  5  1  0  0  0  0
  5  6  1  0  0  0  0
  5 26  1  0  0  0  0
  6  7  1  0  0  0  0
  7  8  2  0  0  0  0
  7 24  1  0  0  0  0
  8  9  1  0  0  0  0
  9 10  1  0  0  0  0
 10 11  1  0  0  0  0
 10 18  1  0  0  0  0
 11 12  1  0  0  0  0
 11 24  1  0  0  0  0
 12 13  1  0  0  0  0
 13 14  1  0  0  0  0
 14 15  1  0  0  0  0
 14 18  1  0  0  0  0
 14 21  1  0  0  0  0
 15 16  1  0  0  0  0
 15 19  1  0  0  0  0
 16 17  1  0  0  0  0
 17 18  1  0  0  0  0
 19 20  1  0  0  0  0
 19 23  1  0  0  0  0
 20 21  1  0  0  0  0
 20 22  1  0  0  0  0
 24 25  1  0  0  0  0
 24 27  1  0  0  0  0
 25 26  1  0  0  0  0
 28 29  1  0  0  0  0
 28 31  1  0  0  0  0
 29 30  1  0  0  0  0
 31 32  1  0  0  0  0
 31 33  1  0  0  0  0
M  END
>  <Name_Molregno>
451337

>  <Alpha-2C>
7.11

>  <HISTAMINE H1>
5

>  <HISTAMINE H2>
5

>  <HISTAMINE H3>
9.68

>  <HISTAMINE H4>
5

$$$$
453765
  Marvin  02231216192D 0   1.00000     0.00000     0

 18 20  0  0  0  0  0  0  0  0999 V2000
    0.0487   -0.0365    0.0000 N   0  0  0  0  0  0  0  0  0
    0.7632   -0.4490    0.0000 C   0  0  0  0  0  0  0  0  0
    0.7632   -1.2740    0.0000 N   0  0  0  0  0  0  0  0  0
    1.4777   -0.0365    0.0000 C   0  0  0  0  0  0  0  0  0
    1.4777    0.7885    0.0000 C   0  0  0  0  0  0  0  0  0
    0.7632    1.2010    0.0000 N   0  0  0  0  0  0  0  0  0
    0.0487    0.7885    0.0000 C   0  0  0  0  0  0  0  0  0
   -0.6657    1.2010    0.0000 N   0  0  0  0  0  0  0  0  0
   -1.3802    0.7885    0.0000 C   0  0  0  0  0  0  0  0  0
   -2.0947    1.2010    0.0000 C   0  0  0  0  0  0  0  0  0
   -2.0947    2.0260    0.0000 N   0  0  0  0  0  0  0  0  0
   -1.3802    2.4385    0.0000 C   0  0  0  0  0  0  0  0  0
   -0.6657    2.0260    0.0000 C   0  0  0  0  0  0  0  0  0
   -2.8091    2.4385    0.0000 C   0  0  0  0  0  0  0  0  0
    2.1922    1.2010    0.0000 C   0  0  0  0  0  0  0  0  0
    2.9066    0.7885    0.0000 C   0  0  0  0  0  0  0  0  0
    2.9066   -0.0365    0.0000 C   0  0  0  0  0  0  0  0  0
    2.1922   -0.4490    0.0000 C   0  0  0  0  0  0  0  0  0
  1  2  4  0  0  0  0
  1  7  4  0  0  0  0
  2  3  1  0  0  0  0
  2  4  4  0  0  0  0
  4  5  4  0  0  0  0
  4 18  4  0  0  0  0
  5  6  4  0  0  0  0
  5 15  4  0  0  0  0
  6  7  4  0  0  0  0
  7  8  1  0  0  0  0
  8  9  1  0  0  0  0
  8 13  1  0  0  0  0
  9 10  1  0  0  0  0
 10 11  1  0  0  0  0
 11 12  1  0  0  0  0
 11 14  1  0  0  0  0
 12 13  1  0  0  0  0
 15 16  4  0  0  0  0
 16 17  4  0  0  0  0
 17 18  4  0  0  0  0
M  END
>  <Name_Molregno>
453765

>  <HISTAMINE H4>
5.72

$$$$
453766
  Marvin  02231216192D 0   1.00000     0.00000     0

 19 21  0  0  0  0  0  0  0  0999 V2000
    0.0773   -1.7676    0.0000 Cl  0  0  0  0  0  0  0  0  0
    0.7918   -1.3551    0.0000 C   0  0  0  0  0  0  0  0  0
    1.5062   -1.7676    0.0000 C   0  0  0  0  0  0  0  0  0
    2.2207   -1.3551    0.0000 C   0  0  0  0  0  0  0  0  0
    2.2207   -0.5301    0.0000 C   0  0  0  0  0  0  0  0  0
    2.9352   -0.1176    0.0000 N   0  0  0  0  0  0  0  0  0
    3.6496   -0.5301    0.0000 C   0  0  0  0  0  0  0  0  0
    3.6496   -1.3551    0.0000 N   0  0  0  0  0  0  0  0  0
    2.9352   -1.7676    0.0000 C   0  0  0  0  0  0  0  0  0
    2.9352   -2.5926    0.0000 N   0  0  0  0  0  0  0  0  0
    4.3641   -0.1176    0.0000 N   0  0  0  0  0  0  0  0  0
    4.3641    0.7074    0.0000 C   0  0  0  0  0  0  0  0  0
    5.0786    1.1199    0.0000 C   0  0  0  0  0  0  0  0  0
    5.7931    0.7074    0.0000 N   0  0  0  0  0  0  0  0  0
    5.7931   -0.1176    0.0000 C   0  0  0  0  0  0  0  0  0
    5.0786   -0.5301    0.0000 C   0  0  0  0  0  0  0  0  0
    6.5075    1.1199    0.0000 C   0  0  0  0  0  0  0  0  0
    1.5062   -0.1176    0.0000 C   0  0  0  0  0  0  0  0  0
    0.7918   -0.5301    0.0000 C   0  0  0  0  0  0  0  0  0
  1  2  1  0  0  0  0
  2  3  4  0  0  0  0
  2 19  4  0  0  0  0
  3  4  4  0  0  0  0
  4  5  4  0  0  0  0
  4  9  4  0  0  0  0
  5  6  4  0  0  0  0
  5 18  4  0  0  0  0
  6  7  4  0  0  0  0
  7  8  4  0  0  0  0
  7 11  1  0  0  0  0
  8  9  4  0  0  0  0
  9 10  1  0  0  0  0
 11 12  1  0  0  0  0
 11 16  1  0  0  0  0
 12 13  1  0  0  0  0
 13 14  1  0  0  0  0
 14 15  1  0  0  0  0
 14 17  1  0  0  0  0
 15 16  1  0  0  0  0
 18 19  4  0  0  0  0
M  END
>  <Name_Molregno>
453766

>  <HISTAMINE H4>
6.89

$$$$
453767
  Marvin  02231216192D 0   1.00000     0.00000     0

 19 21  0  0  0  0  0  0  0  0999 V2000
    0.0773   -1.7676    0.0000 Cl  0  0  0  0  0  0  0  0  0
    0.7918   -1.3551    0.0000 C   0  0  0  0  0  0  0  0  0
    1.5062   -1.7676    0.0000 C   0  0  0  0  0  0  0  0  0
    2.2207   -1.3551    0.0000 C   0  0  0  0  0  0  0  0  0
    2.2207   -0.5301    0.0000 C   0  0  0  0  0  0  0  0  0
    2.9352   -0.1176    0.0000 N   0  0  0  0  0  0  0  0  0
    3.6496   -0.5301    0.0000 C   0  0  0  0  0  0  0  0  0
    3.6496   -1.3551    0.0000 N   0  0  0  0  0  0  0  0  0
    2.9352   -1.7676    0.0000 C   0  0  0  0  0  0  0  0  0
    2.9352   -2.5926    0.0000 O   0  0  0  0  0  0  0  0  0
    4.3641   -0.1176    0.0000 N   0  0  0  0  0  0  0  0  0
    4.3641    0.7074    0.0000 C   0  0  0  0  0  0  0  0  0
    5.0786    1.1199    0.0000 C   0  0  0  0  0  0  0  0  0
    5.7931    0.7074    0.0000 N   0  0  0  0  0  0  0  0  0
    5.7931   -0.1176    0.0000 C   0  0  0  0  0  0  0  0  0
    5.0786   -0.5301    0.0000 C   0  0  0  0  0  0  0  0  0
    6.5075    1.1199    0.0000 C   0  0  0  0  0  0  0  0  0
    1.5062   -0.1176    0.0000 C   0  0  0  0  0  0  0  0  0
    0.7918   -0.5301    0.0000 C   0  0  0  0  0  0  0  0  0
  1  2  1  0  0  0  0
  2  3  4  0  0  0  0
  2 19  4  0  0  0  0
  3  4  4  0  0  0  0
  4  5  4  0  0  0  0
  4  9  4  0  0  0  0
  5  6  4  0  0  0  0
  5 18  4  0  0  0  0
  6  7  4  0  0  0  0
  7  8  4  0  0  0  0
  7 11  1  0  0  0  0
  8  9  4  0  0  0  0
  9 10  1  0  0  0  0
 11 12  1  0  0  0  0
 11 16  1  0  0  0  0
 12 13  1  0  0  0  0
 13 14  1  0  0  0  0
 14 15  1  0  0  0  0
 14 17  1  0  0  0  0
 15 16  1  0  0  0  0
 18 19  4  0  0  0  0
M  END
>  <Name_Molregno>
453767

>  <HISTAMINE H4>
4.82

$$$$
453768
  Marvin  02231216192D 0   1.00000     0.00000     0

 24 27  0  0  0  0  0  0  0  0999 V2000
    1.5375    1.3905    0.0000 O   0  0  0  0  0  0  0  0  0
    2.2520    1.8030    0.0000 C   0  0  0  0  0  0  0  0  0
    2.2520    2.6280    0.0000 C   0  0  0  0  0  0  0  0  0
    2.9665    3.0405    0.0000 C   0  0  0  0  0  0  0  0  0
    3.6810    2.6280    0.0000 C   0  0  0  0  0  0  0  0  0
    3.6810    1.8030    0.0000 C   0  0  0  0  0  0  0  0  0
    2.9665    1.3905    0.0000 C   0  0  0  0  0  0  0  0  0
    1.5375    0.5655    0.0000 C   0  0  0  0  0  0  0  0  0
    0.8231    0.1530    0.0000 N   0  0  0  0  0  0  0  0  0
    0.8231   -0.6720    0.0000 C   0  0  0  0  0  0  0  0  0
    1.5375   -1.0845    0.0000 N   0  0  0  0  0  0  0  0  0
    2.2520   -0.6720    0.0000 C   0  0  0  0  0  0  0  0  0
    2.2520    0.1530    0.0000 C   0  0  0  0  0  0  0  0  0
    2.9665    0.5655    0.0000 C   0  0  0  0  0  0  0  0  0
    3.6810    0.1530    0.0000 C   0  0  0  0  0  0  0  0  0
    3.6810   -0.6720    0.0000 C   0  0  0  0  0  0  0  0  0
    2.9665   -1.0845    0.0000 C   0  0  0  0  0  0  0  0  0
    0.1086   -1.0845    0.0000 N   0  0  0  0  0  0  0  0  0
    0.1086   -1.9095    0.0000 C   0  0  0  0  0  0  0  0  0
   -0.6059   -2.3220    0.0000 C   0  0  0  0  0  0  0  0  0
   -1.3203   -1.9095    0.0000 N   0  0  0  0  0  0  0  0  0
   -1.3203   -1.0845    0.0000 C   0  0  0  0  0  0  0  0  0
   -0.6059   -0.6720    0.0000 C   0  0  0  0  0  0  0  0  0
   -2.0348   -2.3220    0.0000 C   0  0  0  0  0  0  0  0  0
  1  2  1  0  0  0  0
  1  8  1  0  0  0  0
  2  3  4  0  0  0  0
  2  7  4  0  0  0  0
  3  4  4  0  0  0  0
  4  5  4  0  0  0  0
  5  6  4  0  0  0  0
  6  7  4  0  0  0  0
  8  9  4  0  0  0  0
  8 13  4  0  0  0  0
  9 10  4  0  0  0  0
 10 11  4  0  0  0  0
 10 18  1  0  0  0  0
 11 12  4  0  0  0  0
 12 13  4  0  0  0  0
 12 17  4  0  0  0  0
 13 14  4  0  0  0  0
 14 15  4  0  0  0  0
 15 16  4  0  0  0  0
 16 17  4  0  0  0  0
 18 19  1  0  0  0  0
 18 23  1  0  0  0  0
 19 20  1  0  0  0  0
 20 21  1  0  0  0  0
 21 22  1  0  0  0  0
 21 24  1  0  0  0  0
 22 23  1  0  0  0  0
M  END
>  <Name_Molregno>
453768

>  <HISTAMINE H4>
5.55

$$$$
453769
  Marvin  02231216192D 0   1.00000     0.00000     0

 25 28  0  0  0  0  0  0  0  0999 V2000
    1.2849    0.9930    0.0000 O   0  0  0  0  0  0  0  0  0
    1.9994    1.4055    0.0000 C   0  0  0  0  0  0  0  0  0
    1.9994    2.2305    0.0000 C   0  0  0  0  0  0  0  0  0
    1.2849    2.6430    0.0000 C   0  0  0  0  0  0  0  0  0
    1.2849    3.4680    0.0000 C   0  0  0  0  0  0  0  0  0
    1.9994    3.8805    0.0000 C   0  0  0  0  0  0  0  0  0
    2.7138    3.4680    0.0000 C   0  0  0  0  0  0  0  0  0
    2.7138    2.6430    0.0000 C   0  0  0  0  0  0  0  0  0
    1.2849    0.1680    0.0000 C   0  0  0  0  0  0  0  0  0
    0.5704   -0.2445    0.0000 N   0  0  0  0  0  0  0  0  0
    0.5704   -1.0695    0.0000 C   0  0  0  0  0  0  0  0  0
    1.2849   -1.4820    0.0000 N   0  0  0  0  0  0  0  0  0
    1.9994   -1.0695    0.0000 C   0  0  0  0  0  0  0  0  0
    1.9994   -0.2445    0.0000 C   0  0  0  0  0  0  0  0  0
    2.7138    0.1680    0.0000 C   0  0  0  0  0  0  0  0  0
    3.4283   -0.2445    0.0000 C   0  0  0  0  0  0  0  0  0
    3.4283   -1.0695    0.0000 C   0  0  0  0  0  0  0  0  0
    2.7138   -1.4820    0.0000 C   0  0  0  0  0  0  0  0  0
   -0.1440   -1.4820    0.0000 N   0  0  0  0  0  0  0  0  0
   -0.1440   -2.3070    0.0000 C   0  0  0  0  0  0  0  0  0
   -0.8585   -2.7195    0.0000 C   0  0  0  0  0  0  0  0  0
   -1.5730   -2.3070    0.0000 N   0  0  0  0  0  0  0  0  0
   -1.5730   -1.4820    0.0000 C   0  0  0  0  0  0  0  0  0
   -0.8585   -1.0695    0.0000 C   0  0  0  0  0  0  0  0  0
   -2.2875   -2.7195    0.0000 C   0  0  0  0  0  0  0  0  0
  1  2  1  0  0  0  0
  1  9  1  0  0  0  0
  2  3  1  0  0  0  0
  3  4  4  0  0  0  0
  3  8  4  0  0  0  0
  4  5  4  0  0  0  0
  5  6  4  0  0  0  0
  6  7  4  0  0  0  0
  7  8  4  0  0  0  0
  9 10  4  0  0  0  0
  9 14  4  0  0  0  0
 10 11  4  0  0  0  0
 11 12  4  0  0  0  0
 11 19  1  0  0  0  0
 12 13  4  0  0  0  0
 13 14  4  0  0  0  0
 13 18  4  0  0  0  0
 14 15  4  0  0  0  0
 15 16  4  0  0  0  0
 16 17  4  0  0  0  0
 17 18  4  0  0  0  0
 19 20  1  0  0  0  0
 19 24  1  0  0  0  0
 20 21  1  0  0  0  0
 21 22  1  0  0  0  0
 22 23  1  0  0  0  0
 22 25  1  0  0  0  0
 23 24  1  0  0  0  0
M  END
>  <Name_Molregno>
453769

>  <HISTAMINE H4>
5.39

$$$$
453770
  Marvin  02231216192D 0   1.00000     0.00000     0

 24 27  0  0  0  0  0  0  0  0999 V2000
   -0.8006   -0.0869    0.0000 N   0  0  0  0  0  0  0  0  0
   -0.0862   -0.4994    0.0000 C   0  0  0  0  0  0  0  0  0
   -0.0862   -1.3244    0.0000 N   0  0  0  0  0  0  0  0  0
    0.6283   -1.7369    0.0000 C   0  0  0  0  0  0  0  0  0
    1.3428   -1.3244    0.0000 C   0  0  0  0  0  0  0  0  0
    2.0572   -1.7369    0.0000 C   0  0  0  0  0  0  0  0  0
    2.0572   -2.5619    0.0000 C   0  0  0  0  0  0  0  0  0
    1.3428   -2.9744    0.0000 C   0  0  0  0  0  0  0  0  0
    0.6283   -2.5619    0.0000 C   0  0  0  0  0  0  0  0  0
    0.6283   -0.0869    0.0000 C   0  0  0  0  0  0  0  0  0
    0.6283    0.7381    0.0000 C   0  0  0  0  0  0  0  0  0
   -0.0862    1.1506    0.0000 N   0  0  0  0  0  0  0  0  0
   -0.8006    0.7381    0.0000 C   0  0  0  0  0  0  0  0  0
   -1.5151    1.1506    0.0000 N   0  0  0  0  0  0  0  0  0
   -2.2296    0.7381    0.0000 C   0  0  0  0  0  0  0  0  0
   -2.9441    1.1506    0.0000 C   0  0  0  0  0  0  0  0  0
   -2.9441    1.9756    0.0000 N   0  0  0  0  0  0  0  0  0
   -2.2296    2.3881    0.0000 C   0  0  0  0  0  0  0  0  0
   -1.5151    1.9756    0.0000 C   0  0  0  0  0  0  0  0  0
   -3.6585    2.3881    0.0000 C   0  0  0  0  0  0  0  0  0
    1.3428    1.1506    0.0000 C   0  0  0  0  0  0  0  0  0
    2.0572    0.7381    0.0000 C   0  0  0  0  0  0  0  0  0
    2.0572   -0.0869    0.0000 C   0  0  0  0  0  0  0  0  0
    1.3428   -0.4994    0.0000 C   0  0  0  0  0  0  0  0  0
  1  2  4  0  0  0  0
  1 13  4  0  0  0  0
  2  3  1  0  0  0  0
  2 10  4  0  0  0  0
  3  4  1  0  0  0  0
  4  5  4  0  0  0  0
  4  9  4  0  0  0  0
  5  6  4  0  0  0  0
  6  7  4  0  0  0  0
  7  8  4  0  0  0  0
  8  9  4  0  0  0  0
 10 11  4  0  0  0  0
 10 24  4  0  0  0  0
 11 12  4  0  0  0  0
 11 21  4  0  0  0  0
 12 13  4  0  0  0  0
 13 14  1  0  0  0  0
 14 15  1  0  0  0  0
 14 19  1  0  0  0  0
 15 16  1  0  0  0  0
 16 17  1  0  0  0  0
 17 18  1  0  0  0  0
 17 20  1  0  0  0  0
 18 19  1  0  0  0  0
 21 22  4  0  0  0  0
 22 23  4  0  0  0  0
 23 24  4  0  0  0  0
M  END
>  <Name_Molregno>
453770

>  <HISTAMINE H4>
5.07

$$$$
453841
  Marvin  02231216192D 0   1.00000     0.00000     0

 26 29  0  0  0  0  0  0  0  0999 V2000
   -0.5810    0.1481    0.0000 N   0  0  0  0  0  0  0  0  0
    0.1335   -0.2644    0.0000 C   0  0  0  0  0  0  0  0  0
    0.1335   -1.0894    0.0000 N   0  0  0  0  0  0  0  0  0
    0.8480   -1.5019    0.0000 C   0  0  0  0  0  0  0  0  0
    0.8480   -2.3269    0.0000 C   0  0  0  0  0  0  0  0  0
    1.5624   -2.7394    0.0000 C   0  0  0  0  0  0  0  0  0
    2.2769   -2.3269    0.0000 C   0  0  0  0  0  0  0  0  0
    2.9914   -2.7394    0.0000 C   0  0  0  0  0  0  0  0  0
    2.9914   -3.5644    0.0000 C   0  0  0  0  0  0  0  0  0
    2.2769   -3.9769    0.0000 C   0  0  0  0  0  0  0  0  0
    1.5624   -3.5644    0.0000 C   0  0  0  0  0  0  0  0  0
    0.8480    0.1481    0.0000 C   0  0  0  0  0  0  0  0  0
    0.8480    0.9731    0.0000 C   0  0  0  0  0  0  0  0  0
    0.1335    1.3856    0.0000 N   0  0  0  0  0  0  0  0  0
   -0.5810    0.9731    0.0000 C   0  0  0  0  0  0  0  0  0
   -1.2955    1.3856    0.0000 N   0  0  0  0  0  0  0  0  0
   -2.0099    0.9731    0.0000 C   0  0  0  0  0  0  0  0  0
   -2.7244    1.3856    0.0000 C   0  0  0  0  0  0  0  0  0
   -2.7244    2.2106    0.0000 N   0  0  0  0  0  0  0  0  0
   -2.0099    2.6231    0.0000 C   0  0  0  0  0  0  0  0  0
   -1.2955    2.2106    0.0000 C   0  0  0  0  0  0  0  0  0
   -3.4389    2.6231    0.0000 C   0  0  0  0  0  0  0  0  0
    1.5624    1.3856    0.0000 C   0  0  0  0  0  0  0  0  0
    2.2769    0.9731    0.0000 C   0  0  0  0  0  0  0  0  0
    2.2769    0.1481    0.0000 C   0  0  0  0  0  0  0  0  0
    1.5624   -0.2644    0.0000 C   0  0  0  0  0  0  0  0  0
  1  2  4  0  0  0  0
  1 15  4  0  0  0  0
  2  3  1  0  0  0  0
  2 12  4  0  0  0  0
  3  4  1  0  0  0  0
  4  5  1  0  0  0  0
  5  6  1  0  0  0  0
  6  7  4  0  0  0  0
  6 11  4  0  0  0  0
  7  8  4  0  0  0  0
  8  9  4  0  0  0  0
  9 10  4  0  0  0  0
 10 11  4  0  0  0  0
 12 13  4  0  0  0  0
 12 26  4  0  0  0  0
 13 14  4  0  0  0  0
 13 23  4  0  0  0  0
 14 15  4  0  0  0  0
 15 16  1  0  0  0  0
 16 17  1  0  0  0  0
 16 21  1  0  0  0  0
 17 18  1  0  0  0  0
 18 19  1  0  0  0  0
 19 20  1  0  0  0  0
 19 22  1  0  0  0  0
 20 21  1  0  0  0  0
 23 24  4  0  0  0  0
 24 25  4  0  0  0  0
 25 26  4  0  0  0  0
M  END
>  <Name_Molregno>
453841

>  <HISTAMINE H4>
5.83

$$$$
453842
  Marvin  02231216192D 0   1.00000     0.00000     0

 26 29  0  0  0  0  0  0  0  0999 V2000
   -2.7770   -3.3713    0.0000 Cl  0  0  0  0  0  0  0  0  0
   -2.0625   -2.9588    0.0000 C   0  0  0  0  0  0  0  0  0
   -1.3480   -3.3713    0.0000 C   0  0  0  0  0  0  0  0  0
   -0.6336   -2.9588    0.0000 C   0  0  0  0  0  0  0  0  0
   -0.6336   -2.1338    0.0000 C   0  0  0  0  0  0  0  0  0
    0.0809   -1.7213    0.0000 N   0  0  0  0  0  0  0  0  0
    0.7954   -2.1338    0.0000 C   0  0  0  0  0  0  0  0  0
    0.7954   -2.9588    0.0000 N   0  0  0  0  0  0  0  0  0
    0.0809   -3.3713    0.0000 C   0  0  0  0  0  0  0  0  0
    0.0809   -4.1963    0.0000 N   0  0  0  0  0  0  0  0  0
   -0.6336   -4.6088    0.0000 C   0  0  0  0  0  0  0  0  0
   -0.6336   -5.4338    0.0000 C   0  0  0  0  0  0  0  0  0
    0.0809   -5.8463    0.0000 C   0  0  0  0  0  0  0  0  0
    0.0809   -6.6713    0.0000 C   0  0  0  0  0  0  0  0  0
   -0.6336   -7.0838    0.0000 C   0  0  0  0  0  0  0  0  0
   -1.3480   -6.6713    0.0000 C   0  0  0  0  0  0  0  0  0
   -1.3480   -5.8463    0.0000 C   0  0  0  0  0  0  0  0  0
    1.5098   -1.7213    0.0000 N   0  0  0  0  0  0  0  0  0
    1.5098   -0.8963    0.0000 C   0  0  0  0  0  0  0  0  0
    2.2243   -0.4838    0.0000 C   0  0  0  0  0  0  0  0  0
    2.9388   -0.8963    0.0000 N   0  0  0  0  0  0  0  0  0
    2.9388   -1.7213    0.0000 C   0  0  0  0  0  0  0  0  0
    2.2243   -2.1338    0.0000 C   0  0  0  0  0  0  0  0  0
    3.6533   -0.4838    0.0000 C   0  0  0  0  0  0  0  0  0
   -1.3480   -1.7213    0.0000 C   0  0  0  0  0  0  0  0  0
   -2.0625   -2.1338    0.0000 C   0  0  0  0  0  0  0  0  0
  1  2  1  0  0  0  0
  2  3  4  0  0  0  0
  2 26  4  0  0  0  0
  3  4  4  0  0  0  0
  4  5  4  0  0  0  0
  4  9  4  0  0  0  0
  5  6  4  0  0  0  0
  5 25  4  0  0  0  0
  6  7  4  0  0  0  0
  7  8  4  0  0  0  0
  7 18  1  0  0  0  0
  8  9  4  0  0  0  0
  9 10  1  0  0  0  0
 10 11  1  0  0  0  0
 11 12  1  0  0  0  0
 12 13  1  0  0  0  0
 12 17  1  0  0  0  0
 13 14  1  0  0  0  0
 14 15  1  0  0  0  0
 15 16  1  0  0  0  0
 16 17  1  0  0  0  0
 18 19  1  0  0  0  0
 18 23  1  0  0  0  0
 19 20  1  0  0  0  0
 20 21  1  0  0  0  0
 21 22  1  0  0  0  0
 21 24  1  0  0  0  0
 22 23  1  0  0  0  0
 25 26  4  0  0  0  0
M  END
>  <Name_Molregno>
453842

>  <HISTAMINE H4>
6.41

$$$$
453843
  Marvin  02231216192D 0   1.00000     0.00000     0

 27 30  0  0  0  0  0  0  0  0999 V2000
   -2.6450   -3.6074    0.0000 Cl  0  0  0  0  0  0  0  0  0
   -1.9305   -3.1949    0.0000 C   0  0  0  0  0  0  0  0  0
   -1.2161   -3.6074    0.0000 C   0  0  0  0  0  0  0  0  0
   -0.5016   -3.1949    0.0000 C   0  0  0  0  0  0  0  0  0
   -0.5016   -2.3699    0.0000 C   0  0  0  0  0  0  0  0  0
    0.2129   -1.9574    0.0000 N   0  0  0  0  0  0  0  0  0
    0.9274   -2.3699    0.0000 C   0  0  0  0  0  0  0  0  0
    0.9274   -3.1949    0.0000 N   0  0  0  0  0  0  0  0  0
    0.2129   -3.6074    0.0000 C   0  0  0  0  0  0  0  0  0
    0.2129   -4.4324    0.0000 N   0  0  0  0  0  0  0  0  0
   -0.5016   -4.8449    0.0000 C   0  0  0  0  0  0  0  0  0
   -0.5016   -5.6699    0.0000 C   0  0  0  0  0  0  0  0  0
   -1.2161   -6.0824    0.0000 C   0  0  0  0  0  0  0  0  0
   -1.2161   -6.9074    0.0000 C   0  0  0  0  0  0  0  0  0
   -1.9305   -7.3199    0.0000 C   0  0  0  0  0  0  0  0  0
   -2.6450   -6.9074    0.0000 C   0  0  0  0  0  0  0  0  0
   -2.6450   -6.0824    0.0000 C   0  0  0  0  0  0  0  0  0
   -1.9305   -5.6699    0.0000 C   0  0  0  0  0  0  0  0  0
    1.6418   -1.9574    0.0000 N   0  0  0  0  0  0  0  0  0
    1.6418   -1.1324    0.0000 C   0  0  0  0  0  0  0  0  0
    2.3563   -0.7199    0.0000 C   0  0  0  0  0  0  0  0  0
    3.0708   -1.1324    0.0000 N   0  0  0  0  0  0  0  0  0
    3.0708   -1.9574    0.0000 C   0  0  0  0  0  0  0  0  0
    2.3563   -2.3699    0.0000 C   0  0  0  0  0  0  0  0  0
    3.7852   -0.7199    0.0000 C   0  0  0  0  0  0  0  0  0
   -1.2161   -1.9574    0.0000 C   0  0  0  0  0  0  0  0  0
   -1.9305   -2.3699    0.0000 C   0  0  0  0  0  0  0  0  0
  1  2  1  0  0  0  0
  2  3  4  0  0  0  0
  2 27  4  0  0  0  0
  3  4  4  0  0  0  0
  4  5  4  0  0  0  0
  4  9  4  0  0  0  0
  5  6  4  0  0  0  0
  5 26  4  0  0  0  0
  6  7  4  0  0  0  0
  7  8  4  0  0  0  0
  7 19  1  0  0  0  0
  8  9  4  0  0  0  0
  9 10  1  0  0  0  0
 10 11  1  0  0  0  0
 11 12  1  0  0  0  0
 12 13  1  0  0  0  0
 13 14  4  0  0  0  0
 13 18  4  0  0  0  0
 14 15  4  0  0  0  0
 15 16  4  0  0  0  0
 16 17  4  0  0  0  0
 17 18  4  0  0  0  0
 19 20  1  0  0  0  0
 19 24  1  0  0  0  0
 20 21  1  0  0  0  0
 21 22  1  0  0  0  0
 22 23  1  0  0  0  0
 22 25  1  0  0  0  0
 23 24  1  0  0  0  0
 26 27  4  0  0  0  0
M  END
>  <Name_Molregno>
453843

>  <HISTAMINE H4>
6.62

$$$$
453844
  Marvin  02231216192D 0   1.00000     0.00000     0

 22 24  0  0  0  0  0  0  0  0999 V2000
   -0.0973   -1.7114    0.0000 Cl  0  0  0  0  0  0  0  0  0
    0.6172   -1.2989    0.0000 C   0  0  0  0  0  0  0  0  0
    1.3316   -1.7114    0.0000 C   0  0  0  0  0  0  0  0  0
    2.0461   -1.2989    0.0000 C   0  0  0  0  0  0  0  0  0
    2.0461   -0.4739    0.0000 C   0  0  0  0  0  0  0  0  0
    2.7606   -0.0614    0.0000 N   0  0  0  0  0  0  0  0  0
    3.4750   -0.4739    0.0000 C   0  0  0  0  0  0  0  0  0
    3.4750   -1.2989    0.0000 N   0  0  0  0  0  0  0  0  0
    2.7606   -1.7114    0.0000 C   0  0  0  0  0  0  0  0  0
    2.7606   -2.5364    0.0000 N   0  0  0  0  0  0  0  0  0
    3.4750   -2.9489    0.0000 C   0  0  0  0  0  0  0  0  0
    4.1895   -2.5364    0.0000 C   0  0  0  0  0  0  0  0  0
    3.4750   -3.7739    0.0000 C   0  0  0  0  0  0  0  0  0
    4.1895   -0.0614    0.0000 N   0  0  0  0  0  0  0  0  0
    4.1895    0.7636    0.0000 C   0  0  0  0  0  0  0  0  0
    4.9040    1.1761    0.0000 C   0  0  0  0  0  0  0  0  0
    5.6184    0.7636    0.0000 N   0  0  0  0  0  0  0  0  0
    5.6184   -0.0614    0.0000 C   0  0  0  0  0  0  0  0  0
    4.9040   -0.4739    0.0000 C   0  0  0  0  0  0  0  0  0
    6.3329    1.1761    0.0000 C   0  0  0  0  0  0  0  0  0
    1.3316   -0.0614    0.0000 C   0  0  0  0  0  0  0  0  0
    0.6172   -0.4739    0.0000 C   0  0  0  0  0  0  0  0  0
  1  2  1  0  0  0  0
  2  3  4  0  0  0  0
  2 22  4  0  0  0  0
  3  4  4  0  0  0  0
  4  5  4  0  0  0  0
  4  9  4  0  0  0  0
  5  6  4  0  0  0  0
  5 21  4  0  0  0  0
  6  7  4  0  0  0  0
  7  8  4  0  0  0  0
  7 14  1  0  0  0  0
  8  9  4  0  0  0  0
  9 10  1  0  0  0  0
 10 11  1  0  0  0  0
 11 12  1  0  0  0  0
 11 13  1  0  0  0  0
 14 15  1  0  0  0  0
 14 19  1  0  0  0  0
 15 16  1  0  0  0  0
 16 17  1  0  0  0  0
 17 18  1  0  0  0  0
 17 20  1  0  0  0  0
 18 19  1  0  0  0  0
 21 22  4  0  0  0  0
M  END
>  <Name_Molregno>
453844

>  <HISTAMINE H4>
6.12

$$$$
453924
  Marvin  02231216192D 0   1.00000     0.00000     0

 21 23  0  0  0  0  0  0  0  0999 V2000
   -0.0225   -1.6750    0.0000 Cl  0  0  0  0  0  0  0  0  0
    0.6920   -1.2625    0.0000 C   0  0  0  0  0  0  0  0  0
    1.4065   -1.6750    0.0000 C   0  0  0  0  0  0  0  0  0
    2.1209   -1.2625    0.0000 C   0  0  0  0  0  0  0  0  0
    2.1209   -0.4375    0.0000 C   0  0  0  0  0  0  0  0  0
    2.8354   -0.0250    0.0000 N   0  0  0  0  0  0  0  0  0
    3.5499   -0.4375    0.0000 C   0  0  0  0  0  0  0  0  0
    3.5499   -1.2625    0.0000 N   0  0  0  0  0  0  0  0  0
    2.8354   -1.6750    0.0000 C   0  0  0  0  0  0  0  0  0
    2.8354   -2.5000    0.0000 N   0  0  0  0  0  0  0  0  0
    3.5499   -2.9125    0.0000 C   0  0  0  0  0  0  0  0  0
    2.1209   -2.9125    0.0000 C   0  0  0  0  0  0  0  0  0
    4.2643   -0.0250    0.0000 N   0  0  0  0  0  0  0  0  0
    4.2643    0.8000    0.0000 C   0  0  0  0  0  0  0  0  0
    4.9788    1.2125    0.0000 C   0  0  0  0  0  0  0  0  0
    5.6933    0.8000    0.0000 N   0  0  0  0  0  0  0  0  0
    5.6933   -0.0250    0.0000 C   0  0  0  0  0  0  0  0  0
    4.9788   -0.4375    0.0000 C   0  0  0  0  0  0  0  0  0
    6.4078    1.2125    0.0000 C   0  0  0  0  0  0  0  0  0
    1.4065   -0.0250    0.0000 C   0  0  0  0  0  0  0  0  0
    0.6920   -0.4375    0.0000 C   0  0  0  0  0  0  0  0  0
  1  2  1  0  0  0  0
  2  3  4  0  0  0  0
  2 21  4  0  0  0  0
  3  4  4  0  0  0  0
  4  5  4  0  0  0  0
  4  9  4  0  0  0  0
  5  6  4  0  0  0  0
  5 20  4  0  0  0  0
  6  7  4  0  0  0  0
  7  8  4  0  0  0  0
  7 13  1  0  0  0  0
  8  9  4  0  0  0  0
  9 10  1  0  0  0  0
 10 11  1  0  0  0  0
 10 12  1  0  0  0  0
 13 14  1  0  0  0  0
 13 18  1  0  0  0  0
 14 15  1  0  0  0  0
 15 16  1  0  0  0  0
 16 17  1  0  0  0  0
 16 19  1  0  0  0  0
 17 18  1  0  0  0  0
 20 21  4  0  0  0  0
M  END
>  <Name_Molregno>
453924

>  <HISTAMINE H4>
6.21

$$$$
453926
  Marvin  02231216192D 0   1.00000     0.00000     0

 20 22  0  0  0  0  0  0  0  0999 V2000
    0.0216   -1.7218    0.0000 Cl  0  0  0  0  0  0  0  0  0
    0.7361   -1.3093    0.0000 C   0  0  0  0  0  0  0  0  0
    1.4506   -1.7218    0.0000 C   0  0  0  0  0  0  0  0  0
    2.1651   -1.3093    0.0000 C   0  0  0  0  0  0  0  0  0
    2.1651   -0.4843    0.0000 C   0  0  0  0  0  0  0  0  0
    2.8795   -0.0718    0.0000 N   0  0  0  0  0  0  0  0  0
    3.5940   -0.4843    0.0000 C   0  0  0  0  0  0  0  0  0
    3.5940   -1.3093    0.0000 N   0  0  0  0  0  0  0  0  0
    2.8795   -1.7218    0.0000 C   0  0  0  0  0  0  0  0  0
    2.8795   -2.5468    0.0000 N   0  0  0  0  0  0  0  0  0
    3.5940   -2.9593    0.0000 C   0  0  0  0  0  0  0  0  0
    4.3085   -0.0718    0.0000 N   0  0  0  0  0  0  0  0  0
    4.3085    0.7532    0.0000 C   0  0  0  0  0  0  0  0  0
    5.0229    1.1657    0.0000 C   0  0  0  0  0  0  0  0  0
    5.7374    0.7532    0.0000 N   0  0  0  0  0  0  0  0  0
    5.7374   -0.0718    0.0000 C   0  0  0  0  0  0  0  0  0
    5.0229   -0.4843    0.0000 C   0  0  0  0  0  0  0  0  0
    6.4519    1.1657    0.0000 C   0  0  0  0  0  0  0  0  0
    1.4506   -0.0718    0.0000 C   0  0  0  0  0  0  0  0  0
    0.7361   -0.4843    0.0000 C   0  0  0  0  0  0  0  0  0
  1  2  1  0  0  0  0
  2  3  4  0  0  0  0
  2 20  4  0  0  0  0
  3  4  4  0  0  0  0
  4  5  4  0  0  0  0
  4  9  4  0  0  0  0
  5  6  4  0  0  0  0
  5 19  4  0  0  0  0
  6  7  4  0  0  0  0
  7  8  4  0  0  0  0
  7 12  1  0  0  0  0
  8  9  4  0  0  0  0
  9 10  1  0  0  0  0
 10 11  1  0  0  0  0
 12 13  1  0  0  0  0
 12 17  1  0  0  0  0
 13 14  1  0  0  0  0
 14 15  1  0  0  0  0
 15 16  1  0  0  0  0
 15 18  1  0  0  0  0
 16 17  1  0  0  0  0
 19 20  4  0  0  0  0
M  END
>  <Name_Molregno>
453926

>  <HISTAMINE H4>
7.13

$$$$
453927
  Marvin  02231216192D 0   1.00000     0.00000     0

 20 22  0  0  0  0  0  0  0  0999 V2000
   -0.0087    0.0357    0.0000 Cl  0  0  0  0  0  0  0  0  0
    0.7058   -0.3768    0.0000 C   0  0  0  0  0  0  0  0  0
    1.4202    0.0357    0.0000 C   0  0  0  0  0  0  0  0  0
    2.1347   -0.3768    0.0000 C   0  0  0  0  0  0  0  0  0
    2.8492    0.0357    0.0000 N   0  0  0  0  0  0  0  0  0
    3.5637   -0.3768    0.0000 C   0  0  0  0  0  0  0  0  0
    3.5637   -1.2018    0.0000 N   0  0  0  0  0  0  0  0  0
    2.8492   -1.6143    0.0000 C   0  0  0  0  0  0  0  0  0
    2.8492   -2.4393    0.0000 N   0  0  0  0  0  0  0  0  0
    2.1347   -2.8518    0.0000 C   0  0  0  0  0  0  0  0  0
    2.1347   -1.2018    0.0000 C   0  0  0  0  0  0  0  0  0
    1.4202   -1.6143    0.0000 C   0  0  0  0  0  0  0  0  0
    0.7058   -1.2018    0.0000 C   0  0  0  0  0  0  0  0  0
    4.2781    0.0357    0.0000 N   0  0  0  0  0  0  0  0  0
    4.2781    0.8607    0.0000 C   0  0  0  0  0  0  0  0  0
    4.9926    1.2732    0.0000 C   0  0  0  0  0  0  0  0  0
    5.7071    0.8607    0.0000 N   0  0  0  0  0  0  0  0  0
    5.7071    0.0357    0.0000 C   0  0  0  0  0  0  0  0  0
    4.9926   -0.3768    0.0000 C   0  0  0  0  0  0  0  0  0
    6.4215    1.2732    0.0000 C   0  0  0  0  0  0  0  0  0
  1  2  1  0  0  0  0
  2  3  4  0  0  0  0
  2 13  4  0  0  0  0
  3  4  4  0  0  0  0
  4  5  4  0  0  0  0
  4 11  4  0  0  0  0
  5  6  4  0  0  0  0
  6  7  4  0  0  0  0
  6 14  1  0  0  0  0
  7  8  4  0  0  0  0
  8  9  1  0  0  0  0
  8 11  4  0  0  0  0
  9 10  1  0  0  0  0
 11 12  4  0  0  0  0
 12 13  4  0  0  0  0
 14 15  1  0  0  0  0
 14 19  1  0  0  0  0
 15 16  1  0  0  0  0
 16 17  1  0  0  0  0
 17 18  1  0  0  0  0
 17 20  1  0  0  0  0
 18 19  1  0  0  0  0
M  END
>  <Name_Molregno>
453927

>  <HISTAMINE H4>
6.02

$$$$
453928
  Marvin  02231216192D 0   1.00000     0.00000     0

 20 22  0  0  0  0  0  0  0  0999 V2000
   -0.4150    0.0426    0.0000 N   0  0  0  0  0  0  0  0  0
    0.2995   -0.3699    0.0000 C   0  0  0  0  0  0  0  0  0
    0.2995   -1.1949    0.0000 N   0  0  0  0  0  0  0  0  0
    1.0140   -1.6074    0.0000 C   0  0  0  0  0  0  0  0  0
    1.0140    0.0426    0.0000 C   0  0  0  0  0  0  0  0  0
    1.0140    0.8676    0.0000 C   0  0  0  0  0  0  0  0  0
    0.2995    1.2801    0.0000 N   0  0  0  0  0  0  0  0  0
   -0.4150    0.8676    0.0000 C   0  0  0  0  0  0  0  0  0
   -1.1294    1.2801    0.0000 N   0  0  0  0  0  0  0  0  0
   -1.8439    0.8676    0.0000 C   0  0  0  0  0  0  0  0  0
   -2.5584    1.2801    0.0000 C   0  0  0  0  0  0  0  0  0
   -2.5584    2.1051    0.0000 N   0  0  0  0  0  0  0  0  0
   -1.8439    2.5176    0.0000 C   0  0  0  0  0  0  0  0  0
   -1.1294    2.1051    0.0000 C   0  0  0  0  0  0  0  0  0
   -3.2728    2.5176    0.0000 C   0  0  0  0  0  0  0  0  0
    1.7285    1.2801    0.0000 C   0  0  0  0  0  0  0  0  0
    2.4429    0.8676    0.0000 C   0  0  0  0  0  0  0  0  0
    2.4429    0.0426    0.0000 C   0  0  0  0  0  0  0  0  0
    1.7285   -0.3699    0.0000 C   0  0  0  0  0  0  0  0  0
    1.7285   -1.1949    0.0000 C   0  0  0  0  0  0  0  0  0
  1  2  4  0  0  0  0
  1  8  4  0  0  0  0
  2  3  1  0  0  0  0
  2  5  4  0  0  0  0
  3  4  1  0  0  0  0
  5  6  4  0  0  0  0
  5 19  4  0  0  0  0
  6  7  4  0  0  0  0
  6 16  4  0  0  0  0
  7  8  4  0  0  0  0
  8  9  1  0  0  0  0
  9 10  1  0  0  0  0
  9 14  1  0  0  0  0
 10 11  1  0  0  0  0
 11 12  1  0  0  0  0
 12 13  1  0  0  0  0
 12 15  1  0  0  0  0
 13 14  1  0  0  0  0
 16 17  4  0  0  0  0
 17 18  4  0  0  0  0
 18 19  4  0  0  0  0
 19 20  1  0  0  0  0
M  END
>  <Name_Molregno>
453928

>  <HISTAMINE H4>
6.18

$$$$
453929
  Marvin  02231216192D 0   1.00000     0.00000     0

 27 30  0  0  0  0  0  0  0  0999 V2000
   -2.8720   -3.2066    0.0000 Cl  0  0  0  0  0  0  0  0  0
   -2.1575   -2.7941    0.0000 C   0  0  0  0  0  0  0  0  0
   -1.4430   -3.2066    0.0000 C   0  0  0  0  0  0  0  0  0
   -0.7286   -2.7941    0.0000 C   0  0  0  0  0  0  0  0  0
   -0.7286   -1.9691    0.0000 C   0  0  0  0  0  0  0  0  0
   -0.0141   -1.5566    0.0000 N   0  0  0  0  0  0  0  0  0
    0.7004   -1.9691    0.0000 C   0  0  0  0  0  0  0  0  0
    0.7004   -2.7941    0.0000 N   0  0  0  0  0  0  0  0  0
   -0.0141   -3.2066    0.0000 C   0  0  0  0  0  0  0  0  0
   -0.0141   -4.0316    0.0000 N   0  0  0  0  0  0  0  0  0
   -0.7286   -4.4441    0.0000 C   0  0  0  0  0  0  0  0  0
   -0.7286   -5.2691    0.0000 C   0  0  0  0  0  0  0  0  0
   -0.0141   -5.6816    0.0000 C   0  0  0  0  0  0  0  0  0
   -0.0141   -6.5066    0.0000 C   0  0  0  0  0  0  0  0  0
   -0.7286   -6.9191    0.0000 C   0  0  0  0  0  0  0  0  0
   -0.7286   -7.7441    0.0000 N   0  0  0  0  0  0  0  0  0
   -1.4430   -6.5066    0.0000 C   0  0  0  0  0  0  0  0  0
   -1.4430   -5.6816    0.0000 C   0  0  0  0  0  0  0  0  0
    1.4149   -1.5566    0.0000 N   0  0  0  0  0  0  0  0  0
    1.4149   -0.7316    0.0000 C   0  0  0  0  0  0  0  0  0
    2.1293   -0.3191    0.0000 C   0  0  0  0  0  0  0  0  0
    2.8438   -0.7316    0.0000 N   0  0  0  0  0  0  0  0  0
    2.8438   -1.5566    0.0000 C   0  0  0  0  0  0  0  0  0
    2.1293   -1.9691    0.0000 C   0  0  0  0  0  0  0  0  0
    3.5583   -0.3191    0.0000 C   0  0  0  0  0  0  0  0  0
   -1.4430   -1.5566    0.0000 C   0  0  0  0  0  0  0  0  0
   -2.1575   -1.9691    0.0000 C   0  0  0  0  0  0  0  0  0
  1  2  1  0  0  0  0
  2  3  4  0  0  0  0
  2 27  4  0  0  0  0
  3  4  4  0  0  0  0
  4  5  4  0  0  0  0
  4  9  4  0  0  0  0
  5  6  4  0  0  0  0
  5 26  4  0  0  0  0
  6  7  4  0  0  0  0
  7  8  4  0  0  0  0
  7 19  1  0  0  0  0
  8  9  4  0  0  0  0
  9 10  1  0  0  0  0
 10 11  1  0  0  0  0
 11 12  1  0  0  0  0
 12 13  4  0  0  0  0
 12 18  4  0  0  0  0
 13 14  4  0  0  0  0
 14 15  4  0  0  0  0
 15 16  1  0  0  0  0
 15 17  4  0  0  0  0
 17 18  4  0  0  0  0
 19 20  1  0  0  0  0
 19 24  1  0  0  0  0
 20 21  1  0  0  0  0
 21 22  1  0  0  0  0
 22 23  1  0  0  0  0
 22 25  1  0  0  0  0
 23 24  1  0  0  0  0
 26 27  4  0  0  0  0
M  END
>  <Name_Molregno>
453929

>  <HISTAMINE H4>
6.25

$$$$
454024
  Marvin  02231216192D 0   1.00000     0.00000     0

 28 31  0  0  0  0  0  0  0  0999 V2000
   -3.0061   -3.0651    0.0000 Cl  0  0  0  0  0  0  0  0  0
   -2.2916   -2.6526    0.0000 C   0  0  0  0  0  0  0  0  0
   -1.5771   -3.0651    0.0000 C   0  0  0  0  0  0  0  0  0
   -0.8627   -2.6526    0.0000 C   0  0  0  0  0  0  0  0  0
   -0.8627   -1.8276    0.0000 C   0  0  0  0  0  0  0  0  0
   -0.1482   -1.4151    0.0000 N   0  0  0  0  0  0  0  0  0
    0.5663   -1.8276    0.0000 C   0  0  0  0  0  0  0  0  0
    0.5663   -2.6526    0.0000 N   0  0  0  0  0  0  0  0  0
   -0.1482   -3.0651    0.0000 C   0  0  0  0  0  0  0  0  0
   -0.1482   -3.8901    0.0000 N   0  0  0  0  0  0  0  0  0
   -0.8627   -4.3026    0.0000 C   0  0  0  0  0  0  0  0  0
   -0.8627   -5.1276    0.0000 C   0  0  0  0  0  0  0  0  0
   -0.1482   -5.5401    0.0000 C   0  0  0  0  0  0  0  0  0
   -0.1482   -6.3651    0.0000 C   0  0  0  0  0  0  0  0  0
   -0.8627   -6.7776    0.0000 C   0  0  0  0  0  0  0  0  0
   -0.8627   -7.6026    0.0000 O   0  0  0  0  0  0  0  0  0
   -1.5771   -8.0151    0.0000 C   0  0  0  0  0  0  0  0  0
   -1.5771   -6.3651    0.0000 C   0  0  0  0  0  0  0  0  0
   -1.5771   -5.5401    0.0000 C   0  0  0  0  0  0  0  0  0
    1.2808   -1.4151    0.0000 N   0  0  0  0  0  0  0  0  0
    1.2808   -0.5901    0.0000 C   0  0  0  0  0  0  0  0  0
    1.9952   -0.1776    0.0000 C   0  0  0  0  0  0  0  0  0
    2.7097   -0.5901    0.0000 N   0  0  0  0  0  0  0  0  0
    2.7097   -1.4151    0.0000 C   0  0  0  0  0  0  0  0  0
    1.9952   -1.8276    0.0000 C   0  0  0  0  0  0  0  0  0
    3.4242   -0.1776    0.0000 C   0  0  0  0  0  0  0  0  0
   -1.5771   -1.4151    0.0000 C   0  0  0  0  0  0  0  0  0
   -2.2916   -1.8276    0.0000 C   0  0  0  0  0  0  0  0  0
  1  2  1  0  0  0  0
  2  3  4  0  0  0  0
  2 28  4  0  0  0  0
  3  4  4  0  0  0  0
  4  5  4  0  0  0  0
  4  9  4  0  0  0  0
  5  6  4  0  0  0  0
  5 27  4  0  0  0  0
  6  7  4  0  0  0  0
  7  8  4  0  0  0  0
  7 20  1  0  0  0  0
  8  9  4  0  0  0  0
  9 10  1  0  0  0  0
 10 11  1  0  0  0  0
 11 12  1  0  0  0  0
 12 13  4  0  0  0  0
 12 19  4  0  0  0  0
 13 14  4  0  0  0  0
 14 15  4  0  0  0  0
 15 16  1  0  0  0  0
 15 18  4  0  0  0  0
 16 17  1  0  0  0  0
 18 19  4  0  0  0  0
 20 21  1  0  0  0  0
 20 25  1  0  0  0  0
 21 22  1  0  0  0  0
 22 23  1  0  0  0  0
 23 24  1  0  0  0  0
 23 26  1  0  0  0  0
 24 25  1  0  0  0  0
 27 28  4  0  0  0  0
M  END
>  <Name_Molregno>
454024

>  <HISTAMINE H4>
6.44

$$$$
454025
  Marvin  02231216192D 0   1.00000     0.00000     0

 27 30  0  0  0  0  0  0  0  0999 V2000
   -2.8720   -3.2066    0.0000 Cl  0  0  0  0  0  0  0  0  0
   -2.1575   -2.7941    0.0000 C   0  0  0  0  0  0  0  0  0
   -1.4430   -3.2066    0.0000 C   0  0  0  0  0  0  0  0  0
   -0.7286   -2.7941    0.0000 C   0  0  0  0  0  0  0  0  0
   -0.7286   -1.9691    0.0000 C   0  0  0  0  0  0  0  0  0
   -0.0141   -1.5566    0.0000 N   0  0  0  0  0  0  0  0  0
    0.7004   -1.9691    0.0000 C   0  0  0  0  0  0  0  0  0
    0.7004   -2.7941    0.0000 N   0  0  0  0  0  0  0  0  0
   -0.0141   -3.2066    0.0000 C   0  0  0  0  0  0  0  0  0
   -0.0141   -4.0316    0.0000 N   0  0  0  0  0  0  0  0  0
   -0.7286   -4.4441    0.0000 C   0  0  0  0  0  0  0  0  0
   -0.7286   -5.2691    0.0000 C   0  0  0  0  0  0  0  0  0
   -0.0141   -5.6816    0.0000 C   0  0  0  0  0  0  0  0  0
   -0.0141   -6.5066    0.0000 C   0  0  0  0  0  0  0  0  0
   -0.7286   -6.9191    0.0000 C   0  0  0  0  0  0  0  0  0
   -0.7286   -7.7441    0.0000 F   0  0  0  0  0  0  0  0  0
   -1.4430   -6.5066    0.0000 C   0  0  0  0  0  0  0  0  0
   -1.4430   -5.6816    0.0000 C   0  0  0  0  0  0  0  0  0
    1.4149   -1.5566    0.0000 N   0  0  0  0  0  0  0  0  0
    1.4149   -0.7316    0.0000 C   0  0  0  0  0  0  0  0  0
    2.1293   -0.3191    0.0000 C   0  0  0  0  0  0  0  0  0
    2.8438   -0.7316    0.0000 N   0  0  0  0  0  0  0  0  0
    2.8438   -1.5566    0.0000 C   0  0  0  0  0  0  0  0  0
    2.1293   -1.9691    0.0000 C   0  0  0  0  0  0  0  0  0
    3.5583   -0.3191    0.0000 C   0  0  0  0  0  0  0  0  0
   -1.4430   -1.5566    0.0000 C   0  0  0  0  0  0  0  0  0
   -2.1575   -1.9691    0.0000 C   0  0  0  0  0  0  0  0  0
  1  2  1  0  0  0  0
  2  3  4  0  0  0  0
  2 27  4  0  0  0  0
  3  4  4  0  0  0  0
  4  5  4  0  0  0  0
  4  9  4  0  0  0  0
  5  6  4  0  0  0  0
  5 26  4  0  0  0  0
  6  7  4  0  0  0  0
  7  8  4  0  0  0  0
  7 19  1  0  0  0  0
  8  9  4  0  0  0  0
  9 10  1  0  0  0  0
 10 11  1  0  0  0  0
 11 12  1  0  0  0  0
 12 13  4  0  0  0  0
 12 18  4  0  0  0  0
 13 14  4  0  0  0  0
 14 15  4  0  0  0  0
 15 16  1  0  0  0  0
 15 17  4  0  0  0  0
 17 18  4  0  0  0  0
 19 20  1  0  0  0  0
 19 24  1  0  0  0  0
 20 21  1  0  0  0  0
 21 22  1  0  0  0  0
 22 23  1  0  0  0  0
 22 25  1  0  0  0  0
 23 24  1  0  0  0  0
 26 27  4  0  0  0  0
M  END
>  <Name_Molregno>
454025

>  <HISTAMINE H4>
6.98

$$$$
454026
  Marvin  02231216192D 0   1.00000     0.00000     0

 28 31  0  0  0  0  0  0  0  0999 V2000
   -2.6531   -3.0246    0.0000 Cl  0  0  0  0  0  0  0  0  0
   -1.9387   -2.6121    0.0000 C   0  0  0  0  0  0  0  0  0
   -1.2242   -3.0246    0.0000 C   0  0  0  0  0  0  0  0  0
   -0.5097   -2.6121    0.0000 C   0  0  0  0  0  0  0  0  0
   -0.5097   -1.7871    0.0000 C   0  0  0  0  0  0  0  0  0
    0.2048   -1.3746    0.0000 N   0  0  0  0  0  0  0  0  0
    0.9192   -1.7871    0.0000 C   0  0  0  0  0  0  0  0  0
    0.9192   -2.6121    0.0000 N   0  0  0  0  0  0  0  0  0
    0.2048   -3.0246    0.0000 C   0  0  0  0  0  0  0  0  0
    0.2048   -3.8496    0.0000 N   0  0  0  0  0  0  0  0  0
   -0.5097   -4.2621    0.0000 C   0  0  0  0  0  0  0  0  0
   -0.5097   -5.0871    0.0000 C   0  0  0  0  0  0  0  0  0
    0.2048   -5.4996    0.0000 C   0  0  0  0  0  0  0  0  0
    0.2048   -6.3246    0.0000 C   0  0  0  0  0  0  0  0  0
   -0.5097   -6.7371    0.0000 C   0  0  0  0  0  0  0  0  0
   -1.2242   -6.3246    0.0000 C   0  0  0  0  0  0  0  0  0
   -1.2242   -5.4996    0.0000 C   0  0  0  0  0  0  0  0  0
   -0.5097   -7.5621    0.0000 C   0  0  0  0  0  0  0  0  0
   -0.5097   -8.3871    0.0000 N   0  0  0  0  0  0  0  0  0
    1.6337   -1.3746    0.0000 N   0  0  0  0  0  0  0  0  0
    1.6337   -0.5496    0.0000 C   0  0  0  0  0  0  0  0  0
    2.3482   -0.1371    0.0000 C   0  0  0  0  0  0  0  0  0
    3.0626   -0.5496    0.0000 N   0  0  0  0  0  0  0  0  0
    3.0626   -1.3746    0.0000 C   0  0  0  0  0  0  0  0  0
    2.3482   -1.7871    0.0000 C   0  0  0  0  0  0  0  0  0
    3.7771   -0.1371    0.0000 C   0  0  0  0  0  0  0  0  0
   -1.2242   -1.3746    0.0000 C   0  0  0  0  0  0  0  0  0
   -1.9387   -1.7871    0.0000 C   0  0  0  0  0  0  0  0  0
  1  2  1  0  0  0  0
  2  3  4  0  0  0  0
  2 28  4  0  0  0  0
  3  4  4  0  0  0  0
  4  5  4  0  0  0  0
  4  9  4  0  0  0  0
  5  6  4  0  0  0  0
  5 27  4  0  0  0  0
  6  7  4  0  0  0  0
  7  8  4  0  0  0  0
  7 20  1  0  0  0  0
  8  9  4  0  0  0  0
  9 10  1  0  0  0  0
 10 11  1  0  0  0  0
 11 12  1  0  0  0  0
 12 13  4  0  0  0  0
 12 17  4  0  0  0  0
 13 14  4  0  0  0  0
 14 15  4  0  0  0  0
 15 16  4  0  0  0  0
 15 18  1  0  0  0  0
 16 17  4  0  0  0  0
 18 19  3  0  0  0  0
 20 21  1  0  0  0  0
 20 25  1  0  0  0  0
 21 22  1  0  0  0  0
 22 23  1  0  0  0  0
 23 24  1  0  0  0  0
 23 26  1  0  0  0  0
 24 25  1  0  0  0  0
 27 28  4  0  0  0  0
M  END
>  <Name_Molregno>
454026

>  <HISTAMINE H4>
6.89

$$$$
454027
  Marvin  02231216192D 0   1.00000     0.00000     0

 28 31  0  0  0  0  0  0  0  0999 V2000
   -2.7871   -3.1343    0.0000 Cl  0  0  0  0  0  0  0  0  0
   -2.0726   -2.7218    0.0000 C   0  0  0  0  0  0  0  0  0
   -1.3581   -3.1343    0.0000 C   0  0  0  0  0  0  0  0  0
   -0.6436   -2.7218    0.0000 C   0  0  0  0  0  0  0  0  0
   -0.6436   -1.8968    0.0000 C   0  0  0  0  0  0  0  0  0
    0.0708   -1.4843    0.0000 N   0  0  0  0  0  0  0  0  0
    0.7853   -1.8968    0.0000 C   0  0  0  0  0  0  0  0  0
    0.7853   -2.7218    0.0000 N   0  0  0  0  0  0  0  0  0
    0.0708   -3.1343    0.0000 C   0  0  0  0  0  0  0  0  0
    0.0708   -3.9593    0.0000 N   0  0  0  0  0  0  0  0  0
   -0.6436   -4.3718    0.0000 C   0  0  0  0  0  0  0  0  0
   -0.6436   -5.1968    0.0000 C   0  0  0  0  0  0  0  0  0
    0.0708   -5.6093    0.0000 C   0  0  0  0  0  0  0  0  0
    0.0708   -6.4343    0.0000 C   0  0  0  0  0  0  0  0  0
    0.7853   -6.8468    0.0000 F   0  0  0  0  0  0  0  0  0
   -0.6436   -6.8468    0.0000 C   0  0  0  0  0  0  0  0  0
   -0.6436   -7.6718    0.0000 F   0  0  0  0  0  0  0  0  0
   -1.3581   -6.4343    0.0000 C   0  0  0  0  0  0  0  0  0
   -1.3581   -5.6093    0.0000 C   0  0  0  0  0  0  0  0  0
    1.4998   -1.4843    0.0000 N   0  0  0  0  0  0  0  0  0
    1.4998   -0.6593    0.0000 C   0  0  0  0  0  0  0  0  0
    2.2142   -0.2468    0.0000 C   0  0  0  0  0  0  0  0  0
    2.9287   -0.6593    0.0000 N   0  0  0  0  0  0  0  0  0
    2.9287   -1.4843    0.0000 C   0  0  0  0  0  0  0  0  0
    2.2142   -1.8968    0.0000 C   0  0  0  0  0  0  0  0  0
    3.6432   -0.2468    0.0000 C   0  0  0  0  0  0  0  0  0
   -1.3581   -1.4843    0.0000 C   0  0  0  0  0  0  0  0  0
   -2.0726   -1.8968    0.0000 C   0  0  0  0  0  0  0  0  0
  1  2  1  0  0  0  0
  2  3  4  0  0  0  0
  2 28  4  0  0  0  0
  3  4  4  0  0  0  0
  4  5  4  0  0  0  0
  4  9  4  0  0  0  0
  5  6  4  0  0  0  0
  5 27  4  0  0  0  0
  6  7  4  0  0  0  0
  7  8  4  0  0  0  0
  7 20  1  0  0  0  0
  8  9  4  0  0  0  0
  9 10  1  0  0  0  0
 10 11  1  0  0  0  0
 11 12  1  0  0  0  0
 12 13  4  0  0  0  0
 12 19  4  0  0  0  0
 13 14  4  0  0  0  0
 14 15  1  0  0  0  0
 14 16  4  0  0  0  0
 16 17  1  0  0  0  0
 16 18  4  0  0  0  0
 18 19  4  0  0  0  0
 20 21  1  0  0  0  0
 20 25  1  0  0  0  0
 21 22  1  0  0  0  0
 22 23  1  0  0  0  0
 23 24  1  0  0  0  0
 23 26  1  0  0  0  0
 24 25  1  0  0  0  0
 27 28  4  0  0  0  0
M  END
>  <Name_Molregno>
454027

>  <HISTAMINE H4>
6.73

$$$$
454028
  Marvin  02231216192D 0   1.00000     0.00000     0

 22 24  0  0  0  0  0  0  0  0999 V2000
   -0.2048   -1.8336    0.0000 Cl  0  0  0  0  0  0  0  0  0
    0.5097   -1.4211    0.0000 C   0  0  0  0  0  0  0  0  0
    1.2242   -1.8336    0.0000 C   0  0  0  0  0  0  0  0  0
    1.9386   -1.4211    0.0000 C   0  0  0  0  0  0  0  0  0
    1.9386   -0.5961    0.0000 C   0  0  0  0  0  0  0  0  0
    2.6531   -0.1836    0.0000 N   0  0  0  0  0  0  0  0  0
    3.3676   -0.5961    0.0000 C   0  0  0  0  0  0  0  0  0
    3.3676   -1.4211    0.0000 N   0  0  0  0  0  0  0  0  0
    2.6531   -1.8336    0.0000 C   0  0  0  0  0  0  0  0  0
    2.6531   -2.6586    0.0000 N   0  0  0  0  0  0  0  0  0
    3.3676   -3.0711    0.0000 C   0  0  0  0  0  0  0  0  0
    4.0820   -2.6586    0.0000 C   0  0  0  0  0  0  0  0  0
    4.7965   -3.0711    0.0000 O   0  0  0  0  0  0  0  0  0
    4.0820   -0.1836    0.0000 N   0  0  0  0  0  0  0  0  0
    4.0820    0.6414    0.0000 C   0  0  0  0  0  0  0  0  0
    4.7965    1.0539    0.0000 C   0  0  0  0  0  0  0  0  0
    5.5110    0.6414    0.0000 N   0  0  0  0  0  0  0  0  0
    5.5110   -0.1836    0.0000 C   0  0  0  0  0  0  0  0  0
    4.7965   -0.5961    0.0000 C   0  0  0  0  0  0  0  0  0
    6.2255    1.0539    0.0000 C   0  0  0  0  0  0  0  0  0
    1.2242   -0.1836    0.0000 C   0  0  0  0  0  0  0  0  0
    0.5097   -0.5961    0.0000 C   0  0  0  0  0  0  0  0  0
  1  2  1  0  0  0  0
  2  3  4  0  0  0  0
  2 22  4  0  0  0  0
  3  4  4  0  0  0  0
  4  5  4  0  0  0  0
  4  9  4  0  0  0  0
  5  6  4  0  0  0  0
  5 21  4  0  0  0  0
  6  7  4  0  0  0  0
  7  8  4  0  0  0  0
  7 14  1  0  0  0  0
  8  9  4  0  0  0  0
  9 10  1  0  0  0  0
 10 11  1  0  0  0  0
 11 12  1  0  0  0  0
 12 13  1  0  0  0  0
 14 15  1  0  0  0  0
 14 19  1  0  0  0  0
 15 16  1  0  0  0  0
 16 17  1  0  0  0  0
 17 18  1  0  0  0  0
 17 20  1  0  0  0  0
 18 19  1  0  0  0  0
 21 22  4  0  0  0  0
M  END
>  <Name_Molregno>
454028

>  <HISTAMINE H4>
6.3

$$$$
454090
  Marvin  02231216192D 0   1.00000     0.00000     0

 25 27  0  0  0  0  0  0  0  0999 V2000
    1.9888   -5.6100    0.0000 Cl  0  0  0  0  0  0  0  0  0
    1.2743   -5.1975    0.0000 C   0  0  0  0  0  0  0  0  0
    1.2743   -4.3725    0.0000 C   0  0  0  0  0  0  0  0  0
    0.5598   -3.9600    0.0000 C   0  0  0  0  0  0  0  0  0
   -0.1546   -4.3725    0.0000 C   0  0  0  0  0  0  0  0  0
   -0.8691   -3.9600    0.0000 N   0  0  0  0  0  0  0  0  0
   -0.8691   -3.1350    0.0000 C   0  0  0  0  0  0  0  0  0
   -0.1546   -2.7225    0.0000 N   0  0  0  0  0  0  0  0  0
    0.5598   -3.1350    0.0000 C   0  0  0  0  0  0  0  0  0
    1.2743   -2.7225    0.0000 N   0  0  0  0  0  0  0  0  0
    1.9888   -3.1350    0.0000 C   0  0  0  0  0  0  0  0  0
    2.7032   -2.7225    0.0000 C   0  0  0  0  0  0  0  0  0
    3.4177   -3.1350    0.0000 O   0  0  0  0  0  0  0  0  0
    4.1322   -2.7225    0.0000 C   0  0  0  0  0  0  0  0  0
    4.8466   -3.1350    0.0000 C   0  0  0  0  0  0  0  0  0
    2.7032   -1.8975    0.0000 O   0  0  0  0  0  0  0  0  0
   -1.5836   -2.7225    0.0000 N   0  0  0  0  0  0  0  0  0
   -2.2981   -3.1350    0.0000 C   0  0  0  0  0  0  0  0  0
   -3.0125   -2.7225    0.0000 C   0  0  0  0  0  0  0  0  0
   -3.0125   -1.8975    0.0000 N   0  0  0  0  0  0  0  0  0
   -2.2981   -1.4850    0.0000 C   0  0  0  0  0  0  0  0  0
   -1.5836   -1.8975    0.0000 C   0  0  0  0  0  0  0  0  0
   -3.7270   -1.4850    0.0000 C   0  0  0  0  0  0  0  0  0
   -0.1546   -5.1975    0.0000 C   0  0  0  0  0  0  0  0  0
    0.5598   -5.6100    0.0000 C   0  0  0  0  0  0  0  0  0
  1  2  1  0  0  0  0
  2  3  4  0  0  0  0
  2 25  4  0  0  0  0
  3  4  4  0  0  0  0
  4  5  4  0  0  0  0
  4  9  4  0  0  0  0
  5  6  4  0  0  0  0
  5 24  4  0  0  0  0
  6  7  4  0  0  0  0
  7  8  4  0  0  0  0
  7 17  1  0  0  0  0
  8  9  4  0  0  0  0
  9 10  1  0  0  0  0
 10 11  1  0  0  0  0
 11 12  1  0  0  0  0
 12 13  1  0  0  0  0
 12 16  2  0  0  0  0
 13 14  1  0  0  0  0
 14 15  1  0  0  0  0
 17 18  1  0  0  0  0
 17 22  1  0  0  0  0
 18 19  1  0  0  0  0
 19 20  1  0  0  0  0
 20 21  1  0  0  0  0
 20 23  1  0  0  0  0
 21 22  1  0  0  0  0
 24 25  4  0  0  0  0
M  END
>  <Name_Molregno>
454090

>  <HISTAMINE H4>
6.04

$$$$
454091
  Marvin  02231216192D 0   1.00000     0.00000     0

 25 28  0  0  0  0  0  0  0  0999 V2000
   -1.1056   -2.9429    0.0000 Cl  0  0  0  0  0  0  0  0  0
   -0.3912   -2.5304    0.0000 C   0  0  0  0  0  0  0  0  0
    0.3233   -2.9429    0.0000 C   0  0  0  0  0  0  0  0  0
    1.0378   -2.5304    0.0000 C   0  0  0  0  0  0  0  0  0
    1.0378   -1.7054    0.0000 C   0  0  0  0  0  0  0  0  0
    1.7523   -1.2929    0.0000 N   0  0  0  0  0  0  0  0  0
    2.4667   -1.7054    0.0000 C   0  0  0  0  0  0  0  0  0
    2.4667   -2.5304    0.0000 N   0  0  0  0  0  0  0  0  0
    1.7523   -2.9429    0.0000 C   0  0  0  0  0  0  0  0  0
    1.7523   -3.7679    0.0000 N   0  0  0  0  0  0  0  0  0
    1.0378   -4.1804    0.0000 C   0  0  0  0  0  0  0  0  0
    1.0378   -5.0054    0.0000 C   0  0  0  0  0  0  0  0  0
    1.7052   -5.4903    0.0000 O   0  0  0  0  0  0  0  0  0
    1.4503   -6.2750    0.0000 C   0  0  0  0  0  0  0  0  0
    0.6253   -6.2750    0.0000 C   0  0  0  0  0  0  0  0  0
    0.3703   -5.4903    0.0000 C   0  0  0  0  0  0  0  0  0
    3.1812   -1.2929    0.0000 N   0  0  0  0  0  0  0  0  0
    3.1812   -0.4679    0.0000 C   0  0  0  0  0  0  0  0  0
    3.8957   -0.0554    0.0000 C   0  0  0  0  0  0  0  0  0
    4.6101   -0.4679    0.0000 N   0  0  0  0  0  0  0  0  0
    4.6101   -1.2929    0.0000 C   0  0  0  0  0  0  0  0  0
    3.8957   -1.7054    0.0000 C   0  0  0  0  0  0  0  0  0
    5.3246   -0.0554    0.0000 C   0  0  0  0  0  0  0  0  0
    0.3233   -1.2929    0.0000 C   0  0  0  0  0  0  0  0  0
   -0.3912   -1.7054    0.0000 C   0  0  0  0  0  0  0  0  0
  1  2  1  0  0  0  0
  2  3  4  0  0  0  0
  2 25  4  0  0  0  0
  3  4  4  0  0  0  0
  4  5  4  0  0  0  0
  4  9  4  0  0  0  0
  5  6  4  0  0  0  0
  5 24  4  0  0  0  0
  6  7  4  0  0  0  0
  7  8  4  0  0  0  0
  7 17  1  0  0  0  0
  8  9  4  0  0  0  0
  9 10  1  0  0  0  0
 10 11  1  0  0  0  0
 11 12  1  0  0  0  0
 12 13  4  0  0  0  0
 12 16  4  0  0  0  0
 13 14  4  0  0  0  0
 14 15  4  0  0  0  0
 15 16  4  0  0  0  0
 17 18  1  0  0  0  0
 17 22  1  0  0  0  0
 18 19  1  0  0  0  0
 19 20  1  0  0  0  0
 20 21  1  0  0  0  0
 20 23  1  0  0  0  0
 21 22  1  0  0  0  0
 24 25  4  0  0  0  0
M  END
>  <Name_Molregno>
454091

>  <HISTAMINE H4>
7.05

$$$$
454092
  Marvin  02231216192D 0   1.00000     0.00000     0

 24 27  0  0  0  0  0  0  0  0999 V2000
    2.9304    3.8076    0.0000 O   0  0  0  0  0  0  0  0  0
    3.1854    4.5922    0.0000 C   0  0  0  0  0  0  0  0  0
    4.0104    4.5922    0.0000 C   0  0  0  0  0  0  0  0  0
    4.2653    3.8076    0.0000 C   0  0  0  0  0  0  0  0  0
    3.5979    3.3227    0.0000 C   0  0  0  0  0  0  0  0  0
    3.5979    2.4977    0.0000 C   0  0  0  0  0  0  0  0  0
    2.8834    2.0852    0.0000 N   0  0  0  0  0  0  0  0  0
    2.8834    1.2602    0.0000 C   0  0  0  0  0  0  0  0  0
    2.1689    0.8477    0.0000 N   0  0  0  0  0  0  0  0  0
    2.1689    0.0227    0.0000 C   0  0  0  0  0  0  0  0  0
    2.8834   -0.3898    0.0000 N   0  0  0  0  0  0  0  0  0
    3.5979    0.0227    0.0000 C   0  0  0  0  0  0  0  0  0
    3.5979    0.8477    0.0000 C   0  0  0  0  0  0  0  0  0
    4.3124    1.2602    0.0000 C   0  0  0  0  0  0  0  0  0
    5.0268    0.8477    0.0000 C   0  0  0  0  0  0  0  0  0
    5.0268    0.0227    0.0000 C   0  0  0  0  0  0  0  0  0
    4.3124   -0.3898    0.0000 C   0  0  0  0  0  0  0  0  0
    1.4545   -0.3898    0.0000 N   0  0  0  0  0  0  0  0  0
    1.4545   -1.2148    0.0000 C   0  0  0  0  0  0  0  0  0
    0.7400   -1.6273    0.0000 C   0  0  0  0  0  0  0  0  0
    0.0255   -1.2148    0.0000 N   0  0  0  0  0  0  0  0  0
    0.0255   -0.3898    0.0000 C   0  0  0  0  0  0  0  0  0
    0.7400    0.0227    0.0000 C   0  0  0  0  0  0  0  0  0
   -0.6889   -1.6273    0.0000 C   0  0  0  0  0  0  0  0  0
  1  2  4  0  0  0  0
  1  5  4  0  0  0  0
  2  3  4  0  0  0  0
  3  4  4  0  0  0  0
  4  5  4  0  0  0  0
  5  6  1  0  0  0  0
  6  7  1  0  0  0  0
  7  8  1  0  0  0  0
  8  9  4  0  0  0  0
  8 13  4  0  0  0  0
  9 10  4  0  0  0  0
 10 11  4  0  0  0  0
 10 18  1  0  0  0  0
 11 12  4  0  0  0  0
 12 13  4  0  0  0  0
 12 17  4  0  0  0  0
 13 14  4  0  0  0  0
 14 15  4  0  0  0  0
 15 16  4  0  0  0  0
 16 17  4  0  0  0  0
 18 19  1  0  0  0  0
 18 23  1  0  0  0  0
 19 20  1  0  0  0  0
 20 21  1  0  0  0  0
 21 22  1  0  0  0  0
 21 24  1  0  0  0  0
 22 23  1  0  0  0  0
M  END
>  <Name_Molregno>
454092

>  <HISTAMINE H4>
6.22

$$$$
454093
  Marvin  02231216192D 0   1.00000     0.00000     0

 25 28  0  0  0  0  0  0  0  0999 V2000
   -1.1056   -2.9429    0.0000 F   0  0  0  0  0  0  0  0  0
   -0.3912   -2.5304    0.0000 C   0  0  0  0  0  0  0  0  0
    0.3233   -2.9429    0.0000 C   0  0  0  0  0  0  0  0  0
    1.0378   -2.5304    0.0000 C   0  0  0  0  0  0  0  0  0
    1.0378   -1.7054    0.0000 C   0  0  0  0  0  0  0  0  0
    1.7523   -1.2929    0.0000 N   0  0  0  0  0  0  0  0  0
    2.4667   -1.7054    0.0000 C   0  0  0  0  0  0  0  0  0
    2.4667   -2.5304    0.0000 N   0  0  0  0  0  0  0  0  0
    1.7523   -2.9429    0.0000 C   0  0  0  0  0  0  0  0  0
    1.7523   -3.7679    0.0000 N   0  0  0  0  0  0  0  0  0
    1.0378   -4.1804    0.0000 C   0  0  0  0  0  0  0  0  0
    1.0378   -5.0054    0.0000 C   0  0  0  0  0  0  0  0  0
    1.7052   -5.4903    0.0000 O   0  0  0  0  0  0  0  0  0
    1.4503   -6.2750    0.0000 C   0  0  0  0  0  0  0  0  0
    0.6253   -6.2750    0.0000 C   0  0  0  0  0  0  0  0  0
    0.3703   -5.4903    0.0000 C   0  0  0  0  0  0  0  0  0
    3.1812   -1.2929    0.0000 N   0  0  0  0  0  0  0  0  0
    3.1812   -0.4679    0.0000 C   0  0  0  0  0  0  0  0  0
    3.8957   -0.0554    0.0000 C   0  0  0  0  0  0  0  0  0
    4.6101   -0.4679    0.0000 N   0  0  0  0  0  0  0  0  0
    4.6101   -1.2929    0.0000 C   0  0  0  0  0  0  0  0  0
    3.8957   -1.7054    0.0000 C   0  0  0  0  0  0  0  0  0
    5.3246   -0.0554    0.0000 C   0  0  0  0  0  0  0  0  0
    0.3233   -1.2929    0.0000 C   0  0  0  0  0  0  0  0  0
   -0.3912   -1.7054    0.0000 C   0  0  0  0  0  0  0  0  0
  1  2  1  0  0  0  0
  2  3  4  0  0  0  0
  2 25  4  0  0  0  0
  3  4  4  0  0  0  0
  4  5  4  0  0  0  0
  4  9  4  0  0  0  0
  5  6  4  0  0  0  0
  5 24  4  0  0  0  0
  6  7  4  0  0  0  0
  7  8  4  0  0  0  0
  7 17  1  0  0  0  0
  8  9  4  0  0  0  0
  9 10  1  0  0  0  0
 10 11  1  0  0  0  0
 11 12  1  0  0  0  0
 12 13  4  0  0  0  0
 12 16  4  0  0  0  0
 13 14  4  0  0  0  0
 14 15  4  0  0  0  0
 15 16  4  0  0  0  0
 17 18  1  0  0  0  0
 17 22  1  0  0  0  0
 18 19  1  0  0  0  0
 19 20  1  0  0  0  0
 20 21  1  0  0  0  0
 20 23  1  0  0  0  0
 21 22  1  0  0  0  0
 24 25  4  0  0  0  0
M  END
>  <Name_Molregno>
454093

>  <HISTAMINE H4>
6.65

$$$$
454094
  Marvin  02231216192D 0   1.00000     0.00000     0

 26 29  0  0  0  0  0  0  0  0999 V2000
   -2.4909    2.7410    0.0000 Cl  0  0  0  0  0  0  0  0  0
   -1.7764    3.1535    0.0000 C   0  0  0  0  0  0  0  0  0
   -1.7764    3.9785    0.0000 C   0  0  0  0  0  0  0  0  0
   -1.0619    4.3910    0.0000 C   0  0  0  0  0  0  0  0  0
   -0.3474    3.9785    0.0000 C   0  0  0  0  0  0  0  0  0
    0.3670    4.3910    0.0000 N   0  0  0  0  0  0  0  0  0
    1.0815    3.9785    0.0000 C   0  0  0  0  0  0  0  0  0
    1.0815    3.1535    0.0000 N   0  0  0  0  0  0  0  0  0
    0.3670    2.7410    0.0000 C   0  0  0  0  0  0  0  0  0
    0.3670    1.9160    0.0000 N   0  0  0  0  0  0  0  0  0
   -0.3474    1.5035    0.0000 C   0  0  0  0  0  0  0  0  0
   -0.3474    0.6785    0.0000 C   0  0  0  0  0  0  0  0  0
    0.3200    0.1936    0.0000 O   0  0  0  0  0  0  0  0  0
    0.0651   -0.5910    0.0000 C   0  0  0  0  0  0  0  0  0
   -0.7599   -0.5910    0.0000 C   0  0  0  0  0  0  0  0  0
   -1.0149    0.1936    0.0000 C   0  0  0  0  0  0  0  0  0
   -0.3474    3.1535    0.0000 C   0  0  0  0  0  0  0  0  0
   -1.0619    2.7410    0.0000 C   0  0  0  0  0  0  0  0  0
    1.7960    4.3910    0.0000 N   0  0  0  0  0  0  0  0  0
    1.7960    5.2160    0.0000 C   0  0  0  0  0  0  0  0  0
    2.5104    5.6285    0.0000 C   0  0  0  0  0  0  0  0  0
    3.2249    5.2160    0.0000 N   0  0  0  0  0  0  0  0  0
    3.2249    4.3910    0.0000 C   0  0  0  0  0  0  0  0  0
    2.5104    3.9785    0.0000 C   0  0  0  0  0  0  0  0  0
    3.9394    5.6285    0.0000 C   0  0  0  0  0  0  0  0  0
   -1.0619    5.2160    0.0000 C   0  0  0  0  0  0  0  0  0
  1  2  1  0  0  0  0
  2  3  4  0  0  0  0
  2 18  4  0  0  0  0
  3  4  4  0  0  0  0
  4  5  4  0  0  0  0
  4 26  1  0  0  0  0
  5  6  4  0  0  0  0
  5 17  4  0  0  0  0
  6  7  4  0  0  0  0
  7  8  4  0  0  0  0
  7 19  1  0  0  0  0
  8  9  4  0  0  0  0
  9 10  1  0  0  0  0
  9 17  4  0  0  0  0
 10 11  1  0  0  0  0
 11 12  1  0  0  0  0
 12 13  4  0  0  0  0
 12 16  4  0  0  0  0
 13 14  4  0  0  0  0
 14 15  4  0  0  0  0
 15 16  4  0  0  0  0
 17 18  4  0  0  0  0
 19 20  1  0  0  0  0
 19 24  1  0  0  0  0
 20 21  1  0  0  0  0
 21 22  1  0  0  0  0
 22 23  1  0  0  0  0
 22 25  1  0  0  0  0
 23 24  1  0  0  0  0
M  END
>  <Name_Molregno>
454094

>  <HISTAMINE H4>
6.73

$$$$
454150
  Marvin  02231216192D 0   1.00000     0.00000     0

 25 28  0  0  0  0  0  0  0  0999 V2000
   -1.1056   -2.9429    0.0000 Cl  0  0  0  0  0  0  0  0  0
   -0.3912   -2.5304    0.0000 C   0  0  0  0  0  0  0  0  0
    0.3233   -2.9429    0.0000 C   0  0  0  0  0  0  0  0  0
    1.0378   -2.5304    0.0000 C   0  0  0  0  0  0  0  0  0
    1.0378   -1.7054    0.0000 C   0  0  0  0  0  0  0  0  0
    1.7523   -1.2929    0.0000 N   0  0  0  0  0  0  0  0  0
    2.4667   -1.7054    0.0000 C   0  0  0  0  0  0  0  0  0
    2.4667   -2.5304    0.0000 N   0  0  0  0  0  0  0  0  0
    1.7523   -2.9429    0.0000 C   0  0  0  0  0  0  0  0  0
    1.7523   -3.7679    0.0000 N   0  0  0  0  0  0  0  0  0
    1.0378   -4.1804    0.0000 C   0  0  0  0  0  0  0  0  0
    1.0378   -5.0054    0.0000 C   0  0  0  0  0  0  0  0  0
    1.7052   -5.4903    0.0000 C   0  0  0  0  0  0  0  0  0
    1.4503   -6.2750    0.0000 C   0  0  0  0  0  0  0  0  0
    0.6253   -6.2750    0.0000 O   0  0  0  0  0  0  0  0  0
    0.3703   -5.4903    0.0000 C   0  0  0  0  0  0  0  0  0
    3.1812   -1.2929    0.0000 N   0  0  0  0  0  0  0  0  0
    3.1812   -0.4679    0.0000 C   0  0  0  0  0  0  0  0  0
    3.8957   -0.0554    0.0000 C   0  0  0  0  0  0  0  0  0
    4.6101   -0.4679    0.0000 N   0  0  0  0  0  0  0  0  0
    4.6101   -1.2929    0.0000 C   0  0  0  0  0  0  0  0  0
    3.8957   -1.7054    0.0000 C   0  0  0  0  0  0  0  0  0
    5.3246   -0.0554    0.0000 C   0  0  0  0  0  0  0  0  0
    0.3233   -1.2929    0.0000 C   0  0  0  0  0  0  0  0  0
   -0.3912   -1.7054    0.0000 C   0  0  0  0  0  0  0  0  0
  1  2  1  0  0  0  0
  2  3  4  0  0  0  0
  2 25  4  0  0  0  0
  3  4  4  0  0  0  0
  4  5  4  0  0  0  0
  4  9  4  0  0  0  0
  5  6  4  0  0  0  0
  5 24  4  0  0  0  0
  6  7  4  0  0  0  0
  7  8  4  0  0  0  0
  7 17  1  0  0  0  0
  8  9  4  0  0  0  0
  9 10  1  0  0  0  0
 10 11  1  0  0  0  0
 11 12  1  0  0  0  0
 12 13  4  0  0  0  0
 12 16  4  0  0  0  0
 13 14  4  0  0  0  0
 14 15  4  0  0  0  0
 15 16  4  0  0  0  0
 17 18  1  0  0  0  0
 17 22  1  0  0  0  0
 18 19  1  0  0  0  0
 19 20  1  0  0  0  0
 20 21  1  0  0  0  0
 20 23  1  0  0  0  0
 21 22  1  0  0  0  0
 24 25  4  0  0  0  0
M  END
>  <Name_Molregno>
454150

>  <HISTAMINE H1>
7.01

>  <HISTAMINE H4>
7.31

$$$$
454151
  Marvin  02231216192D 0   1.00000     0.00000     0

 25 28  0  0  0  0  0  0  0  0999 V2000
   -1.1056   -2.9429    0.0000 Cl  0  0  0  0  0  0  0  0  0
   -0.3912   -2.5304    0.0000 C   0  0  0  0  0  0  0  0  0
    0.3233   -2.9429    0.0000 C   0  0  0  0  0  0  0  0  0
    1.0378   -2.5304    0.0000 C   0  0  0  0  0  0  0  0  0
    1.0378   -1.7054    0.0000 C   0  0  0  0  0  0  0  0  0
    1.7523   -1.2929    0.0000 N   0  0  0  0  0  0  0  0  0
    2.4667   -1.7054    0.0000 C   0  0  0  0  0  0  0  0  0
    2.4667   -2.5304    0.0000 N   0  0  0  0  0  0  0  0  0
    1.7523   -2.9429    0.0000 C   0  0  0  0  0  0  0  0  0
    1.7523   -3.7679    0.0000 N   0  0  0  0  0  0  0  0  0
    1.0378   -4.1804    0.0000 C   0  0  0  0  0  0  0  0  0
    1.0378   -5.0054    0.0000 C   0  0  0  0  0  0  0  0  0
    1.7052   -5.4903    0.0000 S   0  0  0  0  0  0  0  0  0
    1.4503   -6.2750    0.0000 C   0  0  0  0  0  0  0  0  0
    0.6253   -6.2750    0.0000 C   0  0  0  0  0  0  0  0  0
    0.3703   -5.4903    0.0000 C   0  0  0  0  0  0  0  0  0
    3.1812   -1.2929    0.0000 N   0  0  0  0  0  0  0  0  0
    3.1812   -0.4679    0.0000 C   0  0  0  0  0  0  0  0  0
    3.8957   -0.0554    0.0000 C   0  0  0  0  0  0  0  0  0
    4.6101   -0.4679    0.0000 N   0  0  0  0  0  0  0  0  0
    4.6101   -1.2929    0.0000 C   0  0  0  0  0  0  0  0  0
    3.8957   -1.7054    0.0000 C   0  0  0  0  0  0  0  0  0
    5.3246   -0.0554    0.0000 C   0  0  0  0  0  0  0  0  0
    0.3233   -1.2929    0.0000 C   0  0  0  0  0  0  0  0  0
   -0.3912   -1.7054    0.0000 C   0  0  0  0  0  0  0  0  0
  1  2  1  0  0  0  0
  2  3  4  0  0  0  0
  2 25  4  0  0  0  0
  3  4  4  0  0  0  0
  4  5  4  0  0  0  0
  4  9  4  0  0  0  0
  5  6  4  0  0  0  0
  5 24  4  0  0  0  0
  6  7  4  0  0  0  0
  7  8  4  0  0  0  0
  7 17  1  0  0  0  0
  8  9  4  0  0  0  0
  9 10  1  0  0  0  0
 10 11  1  0  0  0  0
 11 12  1  0  0  0  0
 12 13  4  0  0  0  0
 12 16  4  0  0  0  0
 13 14  4  0  0  0  0
 14 15  4  0  0  0  0
 15 16  4  0  0  0  0
 17 18  1  0  0  0  0
 17 22  1  0  0  0  0
 18 19  1  0  0  0  0
 19 20  1  0  0  0  0
 20 21  1  0  0  0  0
 20 23  1  0  0  0  0
 21 22  1  0  0  0  0
 24 25  4  0  0  0  0
M  END
>  <Name_Molregno>
454151

>  <HISTAMINE H1>
7.7

>  <HISTAMINE H4>
8.12

$$$$
454152
  Marvin  02231216192D 0   1.00000     0.00000     0

 25 28  0  0  0  0  0  0  0  0999 V2000
   -1.1056   -2.9429    0.0000 Cl  0  0  0  0  0  0  0  0  0
   -0.3912   -2.5304    0.0000 C   0  0  0  0  0  0  0  0  0
    0.3233   -2.9429    0.0000 C   0  0  0  0  0  0  0  0  0
    1.0378   -2.5304    0.0000 C   0  0  0  0  0  0  0  0  0
    1.0378   -1.7054    0.0000 C   0  0  0  0  0  0  0  0  0
    1.7523   -1.2929    0.0000 N   0  0  0  0  0  0  0  0  0
    2.4667   -1.7054    0.0000 C   0  0  0  0  0  0  0  0  0
    2.4667   -2.5304    0.0000 N   0  0  0  0  0  0  0  0  0
    1.7523   -2.9429    0.0000 C   0  0  0  0  0  0  0  0  0
    1.7523   -3.7679    0.0000 N   0  0  0  0  0  0  0  0  0
    1.0378   -4.1804    0.0000 C   0  0  0  0  0  0  0  0  0
    1.0378   -5.0054    0.0000 C   0  0  0  0  0  0  0  0  0
    1.7052   -5.4903    0.0000 C   0  0  0  0  0  0  0  0  0
    1.4503   -6.2750    0.0000 C   0  0  0  0  0  0  0  0  0
    0.6253   -6.2750    0.0000 S   0  0  0  0  0  0  0  0  0
    0.3703   -5.4903    0.0000 C   0  0  0  0  0  0  0  0  0
    3.1812   -1.2929    0.0000 N   0  0  0  0  0  0  0  0  0
    3.1812   -0.4679    0.0000 C   0  0  0  0  0  0  0  0  0
    3.8957   -0.0554    0.0000 C   0  0  0  0  0  0  0  0  0
    4.6101   -0.4679    0.0000 N   0  0  0  0  0  0  0  0  0
    4.6101   -1.2929    0.0000 C   0  0  0  0  0  0  0  0  0
    3.8957   -1.7054    0.0000 C   0  0  0  0  0  0  0  0  0
    5.3246   -0.0554    0.0000 C   0  0  0  0  0  0  0  0  0
    0.3233   -1.2929    0.0000 C   0  0  0  0  0  0  0  0  0
   -0.3912   -1.7054    0.0000 C   0  0  0  0  0  0  0  0  0
  1  2  1  0  0  0  0
  2  3  4  0  0  0  0
  2 25  4  0  0  0  0
  3  4  4  0  0  0  0
  4  5  4  0  0  0  0
  4  9  4  0  0  0  0
  5  6  4  0  0  0  0
  5 24  4  0  0  0  0
  6  7  4  0  0  0  0
  7  8  4  0  0  0  0
  7 17  1  0  0  0  0
  8  9  4  0  0  0  0
  9 10  1  0  0  0  0
 10 11  1  0  0  0  0
 11 12  1  0  0  0  0
 12 13  4  0  0  0  0
 12 16  4  0  0  0  0
 13 14  4  0  0  0  0
 14 15  4  0  0  0  0
 15 16  4  0  0  0  0
 17 18  1  0  0  0  0
 17 22  1  0  0  0  0
 18 19  1  0  0  0  0
 19 20  1  0  0  0  0
 20 21  1  0  0  0  0
 20 23  1  0  0  0  0
 21 22  1  0  0  0  0
 24 25  4  0  0  0  0
M  END
>  <Name_Molregno>
454152

>  <HISTAMINE H4>
7.45

$$$$
454153
  Marvin  02231216192D 0   1.00000     0.00000     0

 26 29  0  0  0  0  0  0  0  0999 V2000
   -2.8343   -3.6630    0.0000 Cl  0  0  0  0  0  0  0  0  0
   -2.1199   -3.2505    0.0000 C   0  0  0  0  0  0  0  0  0
   -1.4054   -3.6630    0.0000 C   0  0  0  0  0  0  0  0  0
   -0.6909   -3.2505    0.0000 C   0  0  0  0  0  0  0  0  0
   -0.6909   -2.4255    0.0000 C   0  0  0  0  0  0  0  0  0
    0.0235   -2.0130    0.0000 N   0  0  0  0  0  0  0  0  0
    0.7380   -2.4255    0.0000 C   0  0  0  0  0  0  0  0  0
    0.7380   -3.2505    0.0000 N   0  0  0  0  0  0  0  0  0
    0.0235   -3.6630    0.0000 C   0  0  0  0  0  0  0  0  0
    0.0235   -4.4880    0.0000 N   0  0  0  0  0  0  0  0  0
   -0.6909   -4.9005    0.0000 C   0  0  0  0  0  0  0  0  0
   -0.6909   -5.7255    0.0000 C   0  0  0  0  0  0  0  0  0
   -1.4054   -6.1380    0.0000 C   0  0  0  0  0  0  0  0  0
   -1.4916   -6.9585    0.0000 S   0  0  0  0  0  0  0  0  0
   -2.2986   -7.1300    0.0000 C   0  0  0  0  0  0  0  0  0
   -2.7111   -6.4155    0.0000 C   0  0  0  0  0  0  0  0  0
   -2.1591   -5.8024    0.0000 C   0  0  0  0  0  0  0  0  0
    1.4525   -2.0130    0.0000 N   0  0  0  0  0  0  0  0  0
    1.4525   -1.1880    0.0000 C   0  0  0  0  0  0  0  0  0
    2.1670   -0.7755    0.0000 C   0  0  0  0  0  0  0  0  0
    2.8814   -1.1880    0.0000 N   0  0  0  0  0  0  0  0  0
    2.8814   -2.0130    0.0000 C   0  0  0  0  0  0  0  0  0
    2.1670   -2.4255    0.0000 C   0  0  0  0  0  0  0  0  0
    3.5959   -0.7755    0.0000 C   0  0  0  0  0  0  0  0  0
   -1.4054   -2.0130    0.0000 C   0  0  0  0  0  0  0  0  0
   -2.1199   -2.4255    0.0000 C   0  0  0  0  0  0  0  0  0
  1  2  1  0  0  0  0
  2  3  4  0  0  0  0
  2 26  4  0  0  0  0
  3  4  4  0  0  0  0
  4  5  4  0  0  0  0
  4  9  4  0  0  0  0
  5  6  4  0  0  0  0
  5 25  4  0  0  0  0
  6  7  4  0  0  0  0
  7  8  4  0  0  0  0
  7 18  1  0  0  0  0
  8  9  4  0  0  0  0
  9 10  1  0  0  0  0
 10 11  1  0  0  0  0
 11 12  1  0  0  0  0
 12 13  1  0  0  0  0
 13 14  4  0  0  0  0
 13 17  4  0  0  0  0
 14 15  4  0  0  0  0
 15 16  4  0  0  0  0
 16 17  4  0  0  0  0
 18 19  1  0  0  0  0
 18 23  1  0  0  0  0
 19 20  1  0  0  0  0
 20 21  1  0  0  0  0
 21 22  1  0  0  0  0
 21 24  1  0  0  0  0
 22 23  1  0  0  0  0
 25 26  4  0  0  0  0
M  END
>  <Name_Molregno>
454153

>  <HISTAMINE H4>
7.22

$$$$
454154
  Marvin  02231216192D 0   1.00000     0.00000     0

 26 29  0  0  0  0  0  0  0  0999 V2000
   -2.8333    3.1067    0.0000 Cl  0  0  0  0  0  0  0  0  0
   -2.1188    3.5192    0.0000 C   0  0  0  0  0  0  0  0  0
   -1.4044    3.1067    0.0000 C   0  0  0  0  0  0  0  0  0
   -0.6899    3.5192    0.0000 C   0  0  0  0  0  0  0  0  0
   -0.6899    4.3442    0.0000 C   0  0  0  0  0  0  0  0  0
    0.0246    4.7567    0.0000 N   0  0  0  0  0  0  0  0  0
    0.7390    4.3442    0.0000 C   0  0  0  0  0  0  0  0  0
    0.7390    3.5192    0.0000 N   0  0  0  0  0  0  0  0  0
    0.0246    3.1067    0.0000 C   0  0  0  0  0  0  0  0  0
    0.0246    2.2817    0.0000 N   0  0  0  0  0  0  0  0  0
   -0.6899    1.8692    0.0000 C   0  0  0  0  0  0  0  0  0
   -0.6899    1.0442    0.0000 C   0  0  0  0  0  0  0  0  0
   -0.0225    0.5593    0.0000 O   0  0  0  0  0  0  0  0  0
   -0.2774   -0.2253    0.0000 C   0  0  0  0  0  0  0  0  0
   -1.1024   -0.2253    0.0000 C   0  0  0  0  0  0  0  0  0
   -1.3573    0.5593    0.0000 C   0  0  0  0  0  0  0  0  0
    0.2075   -0.8928    0.0000 C   0  0  0  0  0  0  0  0  0
    1.4535    4.7567    0.0000 N   0  0  0  0  0  0  0  0  0
    1.4535    5.5817    0.0000 C   0  0  0  0  0  0  0  0  0
    2.1680    5.9942    0.0000 C   0  0  0  0  0  0  0  0  0
    2.8825    5.5817    0.0000 N   0  0  0  0  0  0  0  0  0
    2.8825    4.7567    0.0000 C   0  0  0  0  0  0  0  0  0
    2.1680    4.3442    0.0000 C   0  0  0  0  0  0  0  0  0
    3.5969    5.9942    0.0000 C   0  0  0  0  0  0  0  0  0
   -1.4044    4.7567    0.0000 C   0  0  0  0  0  0  0  0  0
   -2.1188    4.3442    0.0000 C   0  0  0  0  0  0  0  0  0
  1  2  1  0  0  0  0
  2  3  4  0  0  0  0
  2 26  4  0  0  0  0
  3  4  4  0  0  0  0
  4  5  4  0  0  0  0
  4  9  4  0  0  0  0
  5  6  4  0  0  0  0
  5 25  4  0  0  0  0
  6  7  4  0  0  0  0
  7  8  4  0  0  0  0
  7 18  1  0  0  0  0
  8  9  4  0  0  0  0
  9 10  1  0  0  0  0
 10 11  1  0  0  0  0
 11 12  1  0  0  0  0
 12 13  4  0  0  0  0
 12 16  4  0  0  0  0
 13 14  4  0  0  0  0
 14 15  4  0  0  0  0
 14 17  1  0  0  0  0
 15 16  4  0  0  0  0
 18 19  1  0  0  0  0
 18 23  1  0  0  0  0
 19 20  1  0  0  0  0
 20 21  1  0  0  0  0
 21 22  1  0  0  0  0
 21 24  1  0  0  0  0
 22 23  1  0  0  0  0
 25 26  4  0  0  0  0
M  END
>  <Name_Molregno>
454154

>  <HISTAMINE H4>
6.87

$$$$
454221
  Marvin  02231216192D 0   1.00000     0.00000     0

 26 29  0  0  0  0  0  0  0  0999 V2000
   -2.7643   -3.3859    0.0000 Cl  0  0  0  0  0  0  0  0  0
   -2.0498   -2.9734    0.0000 C   0  0  0  0  0  0  0  0  0
   -1.3353   -3.3859    0.0000 C   0  0  0  0  0  0  0  0  0
   -0.6209   -2.9734    0.0000 C   0  0  0  0  0  0  0  0  0
   -0.6209   -2.1484    0.0000 C   0  0  0  0  0  0  0  0  0
    0.0936   -1.7359    0.0000 N   0  0  0  0  0  0  0  0  0
    0.8081   -2.1484    0.0000 C   0  0  0  0  0  0  0  0  0
    0.8081   -2.9734    0.0000 N   0  0  0  0  0  0  0  0  0
    0.0936   -3.3859    0.0000 C   0  0  0  0  0  0  0  0  0
    0.0936   -4.2109    0.0000 N   0  0  0  0  0  0  0  0  0
   -0.6209   -4.6234    0.0000 C   0  0  0  0  0  0  0  0  0
   -0.6209   -5.4484    0.0000 C   0  0  0  0  0  0  0  0  0
    0.0466   -5.9333    0.0000 S   0  0  0  0  0  0  0  0  0
   -0.2084   -6.7179    0.0000 C   0  0  0  0  0  0  0  0  0
   -1.0334   -6.7179    0.0000 C   0  0  0  0  0  0  0  0  0
   -1.2883   -5.9333    0.0000 C   0  0  0  0  0  0  0  0  0
   -1.5183   -7.3853    0.0000 C   0  0  0  0  0  0  0  0  0
    1.5225   -1.7359    0.0000 N   0  0  0  0  0  0  0  0  0
    1.5225   -0.9109    0.0000 C   0  0  0  0  0  0  0  0  0
    2.2370   -0.4984    0.0000 C   0  0  0  0  0  0  0  0  0
    2.9515   -0.9109    0.0000 N   0  0  0  0  0  0  0  0  0
    2.9515   -1.7359    0.0000 C   0  0  0  0  0  0  0  0  0
    2.2370   -2.1484    0.0000 C   0  0  0  0  0  0  0  0  0
    3.6660   -0.4984    0.0000 C   0  0  0  0  0  0  0  0  0
   -1.3353   -1.7359    0.0000 C   0  0  0  0  0  0  0  0  0
   -2.0498   -2.1484    0.0000 C   0  0  0  0  0  0  0  0  0
  1  2  1  0  0  0  0
  2  3  4  0  0  0  0
  2 26  4  0  0  0  0
  3  4  4  0  0  0  0
  4  5  4  0  0  0  0
  4  9  4  0  0  0  0
  5  6  4  0  0  0  0
  5 25  4  0  0  0  0
  6  7  4  0  0  0  0
  7  8  4  0  0  0  0
  7 18  1  0  0  0  0
  8  9  4  0  0  0  0
  9 10  1  0  0  0  0
 10 11  1  0  0  0  0
 11 12  1  0  0  0  0
 12 13  4  0  0  0  0
 12 16  4  0  0  0  0
 13 14  4  0  0  0  0
 14 15  4  0  0  0  0
 15 16  4  0  0  0  0
 15 17  1  0  0  0  0
 18 19  1  0  0  0  0
 18 23  1  0  0  0  0
 19 20  1  0  0  0  0
 20 21  1  0  0  0  0
 21 22  1  0  0  0  0
 21 24  1  0  0  0  0
 22 23  1  0  0  0  0
 25 26  4  0  0  0  0
M  END
>  <Name_Molregno>
454221

>  <HISTAMINE H4>
7.41

$$$$
454222
  Marvin  02231216192D 0   1.00000     0.00000     0

 26 29  0  0  0  0  0  0  0  0999 V2000
   -2.6409   -3.4705    0.0000 Cl  0  0  0  0  0  0  0  0  0
   -1.9264   -3.0580    0.0000 C   0  0  0  0  0  0  0  0  0
   -1.2119   -3.4705    0.0000 C   0  0  0  0  0  0  0  0  0
   -0.4975   -3.0580    0.0000 C   0  0  0  0  0  0  0  0  0
   -0.4975   -2.2330    0.0000 C   0  0  0  0  0  0  0  0  0
    0.2170   -1.8205    0.0000 N   0  0  0  0  0  0  0  0  0
    0.9315   -2.2330    0.0000 C   0  0  0  0  0  0  0  0  0
    0.9315   -3.0580    0.0000 N   0  0  0  0  0  0  0  0  0
    0.2170   -3.4705    0.0000 C   0  0  0  0  0  0  0  0  0
    0.2170   -4.2955    0.0000 N   0  0  0  0  0  0  0  0  0
   -0.4975   -4.7080    0.0000 C   0  0  0  0  0  0  0  0  0
   -0.4975   -5.5330    0.0000 C   0  0  0  0  0  0  0  0  0
    0.1700   -6.0179    0.0000 S   0  0  0  0  0  0  0  0  0
   -0.0850   -6.8025    0.0000 C   0  0  0  0  0  0  0  0  0
   -0.9100   -6.8025    0.0000 C   0  0  0  0  0  0  0  0  0
   -1.1649   -6.0179    0.0000 C   0  0  0  0  0  0  0  0  0
   -1.9495   -5.7630    0.0000 C   0  0  0  0  0  0  0  0  0
    1.6460   -1.8205    0.0000 N   0  0  0  0  0  0  0  0  0
    1.6460   -0.9955    0.0000 C   0  0  0  0  0  0  0  0  0
    2.3604   -0.5830    0.0000 C   0  0  0  0  0  0  0  0  0
    3.0749   -0.9955    0.0000 N   0  0  0  0  0  0  0  0  0
    3.0749   -1.8205    0.0000 C   0  0  0  0  0  0  0  0  0
    2.3604   -2.2330    0.0000 C   0  0  0  0  0  0  0  0  0
    3.7894   -0.5830    0.0000 C   0  0  0  0  0  0  0  0  0
   -1.2119   -1.8205    0.0000 C   0  0  0  0  0  0  0  0  0
   -1.9264   -2.2330    0.0000 C   0  0  0  0  0  0  0  0  0
  1  2  1  0  0  0  0
  2  3  4  0  0  0  0
  2 26  4  0  0  0  0
  3  4  4  0  0  0  0
  4  5  4  0  0  0  0
  4  9  4  0  0  0  0
  5  6  4  0  0  0  0
  5 25  4  0  0  0  0
  6  7  4  0  0  0  0
  7  8  4  0  0  0  0
  7 18  1  0  0  0  0
  8  9  4  0  0  0  0
  9 10  1  0  0  0  0
 10 11  1  0  0  0  0
 11 12  1  0  0  0  0
 12 13  4  0  0  0  0
 12 16  4  0  0  0  0
 13 14  4  0  0  0  0
 14 15  4  0  0  0  0
 15 16  4  0  0  0  0
 16 17  1  0  0  0  0
 18 19  1  0  0  0  0
 18 23  1  0  0  0  0
 19 20  1  0  0  0  0
 20 21  1  0  0  0  0
 21 22  1  0  0  0  0
 21 24  1  0  0  0  0
 22 23  1  0  0  0  0
 25 26  4  0  0  0  0
M  END
>  <Name_Molregno>
454222

>  <HISTAMINE H4>
7.47

$$$$
454223
  Marvin  02231216192D 0   1.00000     0.00000     0

 26 29  0  0  0  0  0  0  0  0999 V2000
   -2.7643   -3.3859    0.0000 Cl  0  0  0  0  0  0  0  0  0
   -2.0498   -2.9734    0.0000 C   0  0  0  0  0  0  0  0  0
   -1.3353   -3.3859    0.0000 C   0  0  0  0  0  0  0  0  0
   -0.6209   -2.9734    0.0000 C   0  0  0  0  0  0  0  0  0
   -0.6209   -2.1484    0.0000 C   0  0  0  0  0  0  0  0  0
    0.0936   -1.7359    0.0000 N   0  0  0  0  0  0  0  0  0
    0.8081   -2.1484    0.0000 C   0  0  0  0  0  0  0  0  0
    0.8081   -2.9734    0.0000 N   0  0  0  0  0  0  0  0  0
    0.0936   -3.3859    0.0000 C   0  0  0  0  0  0  0  0  0
    0.0936   -4.2109    0.0000 N   0  0  0  0  0  0  0  0  0
   -0.6209   -4.6234    0.0000 C   0  0  0  0  0  0  0  0  0
   -0.6209   -5.4484    0.0000 C   0  0  0  0  0  0  0  0  0
    0.0466   -5.9333    0.0000 O   0  0  0  0  0  0  0  0  0
   -0.2084   -6.7179    0.0000 N   0  0  0  0  0  0  0  0  0
   -1.0334   -6.7179    0.0000 C   0  0  0  0  0  0  0  0  0
   -1.2883   -5.9333    0.0000 N   0  0  0  0  0  0  0  0  0
   -1.5183   -7.3853    0.0000 C   0  0  0  0  0  0  0  0  0
    1.5225   -1.7359    0.0000 N   0  0  0  0  0  0  0  0  0
    1.5225   -0.9109    0.0000 C   0  0  0  0  0  0  0  0  0
    2.2370   -0.4984    0.0000 C   0  0  0  0  0  0  0  0  0
    2.9515   -0.9109    0.0000 N   0  0  0  0  0  0  0  0  0
    2.9515   -1.7359    0.0000 C   0  0  0  0  0  0  0  0  0
    2.2370   -2.1484    0.0000 C   0  0  0  0  0  0  0  0  0
    3.6660   -0.4984    0.0000 C   0  0  0  0  0  0  0  0  0
   -1.3353   -1.7359    0.0000 C   0  0  0  0  0  0  0  0  0
   -2.0498   -2.1484    0.0000 C   0  0  0  0  0  0  0  0  0
  1  2  1  0  0  0  0
  2  3  4  0  0  0  0
  2 26  4  0  0  0  0
  3  4  4  0  0  0  0
  4  5  4  0  0  0  0
  4  9  4  0  0  0  0
  5  6  4  0  0  0  0
  5 25  4  0  0  0  0
  6  7  4  0  0  0  0
  7  8  4  0  0  0  0
  7 18  1  0  0  0  0
  8  9  4  0  0  0  0
  9 10  1  0  0  0  0
 10 11  1  0  0  0  0
 11 12  1  0  0  0  0
 12 13  4  0  0  0  0
 12 16  4  0  0  0  0
 13 14  4  0  0  0  0
 14 15  4  0  0  0  0
 15 16  4  0  0  0  0
 15 17  1  0  0  0  0
 18 19  1  0  0  0  0
 18 23  1  0  0  0  0
 19 20  1  0  0  0  0
 20 21  1  0  0  0  0
 21 22  1  0  0  0  0
 21 24  1  0  0  0  0
 22 23  1  0  0  0  0
 25 26  4  0  0  0  0
M  END
>  <Name_Molregno>
454223

>  <HISTAMINE H4>
6.43

$$$$
454224
  Marvin  02231216192D 0   1.00000     0.00000     0

 25 28  0  0  0  0  0  0  0  0999 V2000
   -1.1056   -2.9429    0.0000 Cl  0  0  0  0  0  0  0  0  0
   -0.3912   -2.5304    0.0000 C   0  0  0  0  0  0  0  0  0
    0.3233   -2.9429    0.0000 C   0  0  0  0  0  0  0  0  0
    1.0378   -2.5304    0.0000 C   0  0  0  0  0  0  0  0  0
    1.0378   -1.7054    0.0000 C   0  0  0  0  0  0  0  0  0
    1.7523   -1.2929    0.0000 N   0  0  0  0  0  0  0  0  0
    2.4667   -1.7054    0.0000 C   0  0  0  0  0  0  0  0  0
    2.4667   -2.5304    0.0000 N   0  0  0  0  0  0  0  0  0
    1.7523   -2.9429    0.0000 C   0  0  0  0  0  0  0  0  0
    1.7523   -3.7679    0.0000 N   0  0  0  0  0  0  0  0  0
    1.0378   -4.1804    0.0000 C   0  0  0  0  0  0  0  0  0
    1.0378   -5.0054    0.0000 C   0  0  0  0  0  0  0  0  0
    1.7052   -5.4903    0.0000 S   0  0  0  0  0  0  0  0  0
    1.4503   -6.2750    0.0000 C   0  0  0  0  0  0  0  0  0
    0.6253   -6.2750    0.0000 C   0  0  0  0  0  0  0  0  0
    0.3703   -5.4903    0.0000 N   0  0  0  0  0  0  0  0  0
    3.1812   -1.2929    0.0000 N   0  0  0  0  0  0  0  0  0
    3.1812   -0.4679    0.0000 C   0  0  0  0  0  0  0  0  0
    3.8957   -0.0554    0.0000 C   0  0  0  0  0  0  0  0  0
    4.6101   -0.4679    0.0000 N   0  0  0  0  0  0  0  0  0
    4.6101   -1.2929    0.0000 C   0  0  0  0  0  0  0  0  0
    3.8957   -1.7054    0.0000 C   0  0  0  0  0  0  0  0  0
    5.3246   -0.0554    0.0000 C   0  0  0  0  0  0  0  0  0
    0.3233   -1.2929    0.0000 C   0  0  0  0  0  0  0  0  0
   -0.3912   -1.7054    0.0000 C   0  0  0  0  0  0  0  0  0
  1  2  1  0  0  0  0
  2  3  4  0  0  0  0
  2 25  4  0  0  0  0
  3  4  4  0  0  0  0
  4  5  4  0  0  0  0
  4  9  4  0  0  0  0
  5  6  4  0  0  0  0
  5 24  4  0  0  0  0
  6  7  4  0  0  0  0
  7  8  4  0  0  0  0
  7 17  1  0  0  0  0
  8  9  4  0  0  0  0
  9 10  1  0  0  0  0
 10 11  1  0  0  0  0
 11 12  1  0  0  0  0
 12 13  4  0  0  0  0
 12 16  4  0  0  0  0
 13 14  4  0  0  0  0
 14 15  4  0  0  0  0
 15 16  4  0  0  0  0
 17 18  1  0  0  0  0
 17 22  1  0  0  0  0
 18 19  1  0  0  0  0
 19 20  1  0  0  0  0
 20 21  1  0  0  0  0
 20 23  1  0  0  0  0
 21 22  1  0  0  0  0
 24 25  4  0  0  0  0
M  END
>  <Name_Molregno>
454224

>  <HISTAMINE H4>
6.98

$$$$
454225
  Marvin  02231216192D 0   1.00000     0.00000     0

 25 28  0  0  0  0  0  0  0  0999 V2000
   -1.1056   -2.9429    0.0000 Cl  0  0  0  0  0  0  0  0  0
   -0.3912   -2.5304    0.0000 C   0  0  0  0  0  0  0  0  0
    0.3233   -2.9429    0.0000 C   0  0  0  0  0  0  0  0  0
    1.0378   -2.5304    0.0000 C   0  0  0  0  0  0  0  0  0
    1.0378   -1.7054    0.0000 C   0  0  0  0  0  0  0  0  0
    1.7523   -1.2929    0.0000 N   0  0  0  0  0  0  0  0  0
    2.4667   -1.7054    0.0000 C   0  0  0  0  0  0  0  0  0
    2.4667   -2.5304    0.0000 N   0  0  0  0  0  0  0  0  0
    1.7523   -2.9429    0.0000 C   0  0  0  0  0  0  0  0  0
    1.7523   -3.7679    0.0000 N   0  0  0  0  0  0  0  0  0
    1.0378   -4.1804    0.0000 C   0  0  0  0  0  0  0  0  0
    1.0378   -5.0054    0.0000 C   0  0  0  0  0  0  0  0  0
    1.7052   -5.4903    0.0000 S   0  0  0  0  0  0  0  0  0
    1.4503   -6.2750    0.0000 C   0  0  0  0  0  0  0  0  0
    0.6253   -6.2750    0.0000 N   0  0  0  0  0  0  0  0  0
    0.3703   -5.4903    0.0000 C   0  0  0  0  0  0  0  0  0
    3.1812   -1.2929    0.0000 N   0  0  0  0  0  0  0  0  0
    3.1812   -0.4679    0.0000 C   0  0  0  0  0  0  0  0  0
    3.8957   -0.0554    0.0000 C   0  0  0  0  0  0  0  0  0
    4.6101   -0.4679    0.0000 N   0  0  0  0  0  0  0  0  0
    4.6101   -1.2929    0.0000 C   0  0  0  0  0  0  0  0  0
    3.8957   -1.7054    0.0000 C   0  0  0  0  0  0  0  0  0
    5.3246   -0.0554    0.0000 C   0  0  0  0  0  0  0  0  0
    0.3233   -1.2929    0.0000 C   0  0  0  0  0  0  0  0  0
   -0.3912   -1.7054    0.0000 C   0  0  0  0  0  0  0  0  0
  1  2  1  0  0  0  0
  2  3  4  0  0  0  0
  2 25  4  0  0  0  0
  3  4  4  0  0  0  0
  4  5  4  0  0  0  0
  4  9  4  0  0  0  0
  5  6  4  0  0  0  0
  5 24  4  0  0  0  0
  6  7  4  0  0  0  0
  7  8  4  0  0  0  0
  7 17  1  0  0  0  0
  8  9  4  0  0  0  0
  9 10  1  0  0  0  0
 10 11  1  0  0  0  0
 11 12  1  0  0  0  0
 12 13  4  0  0  0  0
 12 16  4  0  0  0  0
 13 14  4  0  0  0  0
 14 15  4  0  0  0  0
 15 16  4  0  0  0  0
 17 18  1  0  0  0  0
 17 22  1  0  0  0  0
 18 19  1  0  0  0  0
 19 20  1  0  0  0  0
 20 21  1  0  0  0  0
 20 23  1  0  0  0  0
 21 22  1  0  0  0  0
 24 25  4  0  0  0  0
M  END
>  <Name_Molregno>
454225

>  <HISTAMINE H4>
6.97

$$$$
454312
  Marvin  02231216192D 0   1.00000     0.00000     0

 29 33  0  0  0  0  0  0  0  0999 V2000
   -0.0220   -6.0741    0.0000 Cl  0  0  0  0  0  0  0  0  0
   -0.4345   -5.3596    0.0000 C   0  0  0  0  0  0  0  0  0
   -0.0220   -4.6452    0.0000 C   0  0  0  0  0  0  0  0  0
   -0.4345   -3.9307    0.0000 C   0  0  0  0  0  0  0  0  0
   -1.2595   -3.9307    0.0000 C   0  0  0  0  0  0  0  0  0
   -1.6720   -3.2162    0.0000 N   0  0  0  0  0  0  0  0  0
   -1.2595   -2.5018    0.0000 C   0  0  0  0  0  0  0  0  0
   -0.4345   -2.5018    0.0000 N   0  0  0  0  0  0  0  0  0
   -0.0220   -3.2162    0.0000 C   0  0  0  0  0  0  0  0  0
    0.8030   -3.2162    0.0000 N   0  0  0  0  0  0  0  0  0
    1.2155   -3.9307    0.0000 C   0  0  0  0  0  0  0  0  0
    2.0405   -3.9307    0.0000 C   0  0  0  0  0  0  0  0  0
    2.5255   -4.5981    0.0000 S   0  0  0  0  0  0  0  0  0
    3.3101   -4.3432    0.0000 C   0  0  0  0  0  0  0  0  0
    3.3101   -3.5182    0.0000 C   0  0  0  0  0  0  0  0  0
    2.5255   -3.2633    0.0000 C   0  0  0  0  0  0  0  0  0
    4.0246   -3.1057    0.0000 C   0  0  0  0  0  0  0  0  0
    4.7390   -3.5182    0.0000 C   0  0  0  0  0  0  0  0  0
    4.7390   -4.3432    0.0000 C   0  0  0  0  0  0  0  0  0
    4.0246   -4.7557    0.0000 C   0  0  0  0  0  0  0  0  0
   -1.6720   -1.7873    0.0000 N   0  0  0  0  0  0  0  0  0
   -2.4970   -1.7873    0.0000 C   0  0  0  0  0  0  0  0  0
   -2.9095   -1.0728    0.0000 C   0  0  0  0  0  0  0  0  0
   -2.4970   -0.3583    0.0000 N   0  0  0  0  0  0  0  0  0
   -1.6720   -0.3583    0.0000 C   0  0  0  0  0  0  0  0  0
   -1.2595   -1.0728    0.0000 C   0  0  0  0  0  0  0  0  0
   -2.9095    0.3561    0.0000 C   0  0  0  0  0  0  0  0  0
   -1.6720   -4.6452    0.0000 C   0  0  0  0  0  0  0  0  0
   -1.2595   -5.3596    0.0000 C   0  0  0  0  0  0  0  0  0
  1  2  1  0  0  0  0
  2  3  4  0  0  0  0
  2 29  4  0  0  0  0
  3  4  4  0  0  0  0
  4  5  4  0  0  0  0
  4  9  4  0  0  0  0
  5  6  4  0  0  0  0
  5 28  4  0  0  0  0
  6  7  4  0  0  0  0
  7  8  4  0  0  0  0
  7 21  1  0  0  0  0
  8  9  4  0  0  0  0
  9 10  1  0  0  0  0
 10 11  1  0  0  0  0
 11 12  1  0  0  0  0
 12 13  4  0  0  0  0
 12 16  4  0  0  0  0
 13 14  4  0  0  0  0
 14 15  4  0  0  0  0
 14 20  4  0  0  0  0
 15 16  4  0  0  0  0
 15 17  4  0  0  0  0
 17 18  4  0  0  0  0
 18 19  4  0  0  0  0
 19 20  4  0  0  0  0
 21 22  1  0  0  0  0
 21 26  1  0  0  0  0
 22 23  1  0  0  0  0
 23 24  1  0  0  0  0
 24 25  1  0  0  0  0
 24 27  1  0  0  0  0
 25 26  1  0  0  0  0
 28 29  4  0  0  0  0
M  END
>  <Name_Molregno>
454312

>  <HISTAMINE H4>
6.41

$$$$
454313
  Marvin  02231216192D 0   1.00000     0.00000     0

 22 25  0  0  1  0  0  0  0  0999 V2000
   -0.0982    1.3606    0.0000 Cl  0  0  0  0  0  0  0  0  0
    0.7268    1.3606    0.0000 C   0  0  0  0  0  0  0  0  0
    1.1393    0.6462    0.0000 C   0  0  0  0  0  0  0  0  0
    1.9643    0.6462    0.0000 C   0  0  0  0  0  0  0  0  0
    2.3768    1.3606    0.0000 C   0  0  0  0  0  0  0  0  0
    3.2018    1.3606    0.0000 N   0  0  0  0  0  0  0  0  0
    3.6143    0.6462    0.0000 C   0  0  0  0  0  0  0  0  0
    3.2018   -0.0683    0.0000 N   0  0  0  0  0  0  0  0  0
    2.3768   -0.0683    0.0000 C   0  0  0  0  0  0  0  0  0
    1.9643   -0.7828    0.0000 N   0  0  0  0  0  0  0  0  0
    2.3768   -1.4973    0.0000 C   0  0  0  0  0  0  0  0  0
    4.4393    0.6462    0.0000 N   0  0  0  0  0  0  0  0  0
    4.9242   -0.0213    0.0000 C   0  0  0  0  0  0  0  0  0
    5.7088    0.2337    0.0000 C   0  0  0  0  0  0  0  0  0
    5.7088    1.0587    0.0000 C   0  0  0  0  0  0  0  0  0
    6.4233    1.4712    0.0000 N   0  0  0  0  0  0  0  0  0
    7.1378    1.0587    0.0000 C   0  0  0  0  0  0  0  0  0
    7.1378    0.2337    0.0000 C   0  0  0  0  0  0  0  0  0
    6.4233   -0.1788    0.0000 C   0  0  0  0  0  0  0  0  0
    4.9242    1.3136    0.0000 C   0  0  0  0  0  0  0  0  0
    1.9643    2.0751    0.0000 C   0  0  0  0  0  0  0  0  0
    1.1393    2.0751    0.0000 C   0  0  0  0  0  0  0  0  0
  1  2  1  0  0  0  0
  2  3  4  0  0  0  0
  2 22  4  0  0  0  0
  3  4  4  0  0  0  0
  4  5  4  0  0  0  0
  4  9  4  0  0  0  0
  5  6  4  0  0  0  0
  5 21  4  0  0  0  0
  6  7  4  0  0  0  0
  7  8  4  0  0  0  0
  7 12  1  0  0  0  0
  8  9  4  0  0  0  0
  9 10  1  0  0  0  0
 10 11  1  0  0  0  0
 12 13  1  0  0  0  0
 12 20  1  0  0  0  0
 13 14  1  0  0  0  0
 14 15  1  0  0  0  0
 14 19  1  0  0  0  0
 15 16  1  0  0  0  0
 15 20  1  0  0  0  0
 16 17  1  0  0  0  0
 17 18  1  0  0  0  0
 18 19  1  0  0  0  0
 21 22  4  0  0  0  0
M  END
>  <Name_Molregno>
454313

>  <HISTAMINE H4>
6

$$$$
454314
  Marvin  02231216192D 0   1.00000     0.00000     0

 21 23  0  0  1  0  0  0  0  0999 V2000
   -0.0128   -1.6561    0.0000 Cl  0  0  0  0  0  0  0  0  0
    0.7017   -1.2436    0.0000 C   0  0  0  0  0  0  0  0  0
    1.4162   -1.6561    0.0000 C   0  0  0  0  0  0  0  0  0
    2.1306   -1.2436    0.0000 C   0  0  0  0  0  0  0  0  0
    2.1306   -0.4186    0.0000 C   0  0  0  0  0  0  0  0  0
    2.8451   -0.0061    0.0000 N   0  0  0  0  0  0  0  0  0
    3.5596   -0.4186    0.0000 C   0  0  0  0  0  0  0  0  0
    3.5596   -1.2436    0.0000 N   0  0  0  0  0  0  0  0  0
    2.8451   -1.6561    0.0000 C   0  0  0  0  0  0  0  0  0
    2.8451   -2.4811    0.0000 N   0  0  0  0  0  0  0  0  0
    3.5596   -2.8936    0.0000 C   0  0  0  0  0  0  0  0  0
    4.2740   -0.0061    0.0000 N   0  0  0  0  0  0  0  0  0
    4.2740    0.8189    0.0000 C   0  0  0  0  0  0  0  0  0
    4.9885    1.2314    0.0000 C   0  0  0  0  0  0  0  0  0
    5.7030    0.8189    0.0000 N   0  0  0  0  0  0  0  0  0
    5.7030   -0.0061    0.0000 C   0  0  0  0  0  0  0  0  0
    4.9885   -0.4186    0.0000 C   0  0  0  0  0  0  0  0  0
    4.9885   -1.2436    0.0000 C   0  0  0  0  0  0  0  0  0
    6.4175    1.2314    0.0000 C   0  0  0  0  0  0  0  0  0
    1.4162   -0.0061    0.0000 C   0  0  0  0  0  0  0  0  0
    0.7017   -0.4186    0.0000 C   0  0  0  0  0  0  0  0  0
  1  2  1  0  0  0  0
  2  3  4  0  0  0  0
  2 21  4  0  0  0  0
  3  4  4  0  0  0  0
  4  5  4  0  0  0  0
  4  9  4  0  0  0  0
  5  6  4  0  0  0  0
  5 20  4  0  0  0  0
  6  7  4  0  0  0  0
  7  8  4  0  0  0  0
  7 12  1  0  0  0  0
  8  9  4  0  0  0  0
  9 10  1  0  0  0  0
 10 11  1  0  0  0  0
 12 13  1  0  0  0  0
 12 17  1  0  0  0  0
 13 14  1  0  0  0  0
 14 15  1  0  0  0  0
 15 16  1  0  0  0  0
 15 19  1  0  0  0  0
 16 17  1  0  0  0  0
 17 18  1  0  0  0  0
 20 21  4  0  0  0  0
M  END
>  <Name_Molregno>
454314

>  <HISTAMINE H4>
6

$$$$
454315
  Marvin  02231216192D 0   1.00000     0.00000     0

 22 24  0  0  1  0  0  0  0  0999 V2000
    0.0405   -1.8915    0.0000 Cl  0  0  0  0  0  0  0  0  0
    0.7549   -1.4790    0.0000 C   0  0  0  0  0  0  0  0  0
    1.4694   -1.8915    0.0000 C   0  0  0  0  0  0  0  0  0
    2.1839   -1.4790    0.0000 C   0  0  0  0  0  0  0  0  0
    2.1839   -0.6540    0.0000 C   0  0  0  0  0  0  0  0  0
    2.8984   -0.2415    0.0000 N   0  0  0  0  0  0  0  0  0
    3.6128   -0.6540    0.0000 C   0  0  0  0  0  0  0  0  0
    3.6128   -1.4790    0.0000 N   0  0  0  0  0  0  0  0  0
    2.8984   -1.8915    0.0000 C   0  0  0  0  0  0  0  0  0
    2.8984   -2.7165    0.0000 N   0  0  0  0  0  0  0  0  0
    3.6128   -3.1290    0.0000 C   0  0  0  0  0  0  0  0  0
    4.3273   -0.2415    0.0000 N   0  0  0  0  0  0  0  0  0
    4.3273    0.5835    0.0000 C   0  0  0  0  0  0  0  0  0
    5.0418    0.9960    0.0000 C   0  0  0  0  0  0  0  0  0
    5.7562    0.5835    0.0000 N   0  0  0  0  0  0  0  0  0
    6.4707    0.9960    0.0000 C   0  0  0  0  0  0  0  0  0
    5.7562   -0.2415    0.0000 C   0  0  0  0  0  0  0  0  0
    5.0418   -0.6540    0.0000 C   0  0  0  0  0  0  0  0  0
    6.4707   -0.6540    0.0000 C   0  0  0  0  0  0  0  0  0
    5.0418    1.8210    0.0000 C   0  0  0  0  0  0  0  0  0
    1.4694   -0.2415    0.0000 C   0  0  0  0  0  0  0  0  0
    0.7549   -0.6540    0.0000 C   0  0  0  0  0  0  0  0  0
  1  2  1  0  0  0  0
  2  3  4  0  0  0  0
  2 22  4  0  0  0  0
  3  4  4  0  0  0  0
  4  5  4  0  0  0  0
  4  9  4  0  0  0  0
  5  6  4  0  0  0  0
  5 21  4  0  0  0  0
  6  7  4  0  0  0  0
  7  8  4  0  0  0  0
  7 12  1  0  0  0  0
  8  9  4  0  0  0  0
  9 10  1  0  0  0  0
 10 11  1  0  0  0  0
 12 13  1  0  0  0  0
 12 18  1  0  0  0  0
 13 14  1  0  0  0  0
 14 15  1  0  0  0  0
 14 20  1  0  0  0  0
 15 16  1  0  0  0  0
 15 17  1  0  0  0  0
 17 18  1  0  0  0  0
 17 19  1  0  0  0  0
 21 22  4  0  0  0  0
M  END
>  <Name_Molregno>
454315

>  <HISTAMINE H4>
6

$$$$
454316
  Marvin  02231216192D 0   1.00000     0.00000     0

 21 23  0  0  0  0  0  0  0  0999 V2000
    0.0185   -1.7205    0.0000 Cl  0  0  0  0  0  0  0  0  0
    0.7329   -1.3080    0.0000 C   0  0  0  0  0  0  0  0  0
    1.4474   -1.7205    0.0000 C   0  0  0  0  0  0  0  0  0
    2.1619   -1.3080    0.0000 C   0  0  0  0  0  0  0  0  0
    2.1619   -0.4830    0.0000 C   0  0  0  0  0  0  0  0  0
    2.8764   -0.0705    0.0000 N   0  0  0  0  0  0  0  0  0
    3.5908   -0.4830    0.0000 C   0  0  0  0  0  0  0  0  0
    3.5908   -1.3080    0.0000 N   0  0  0  0  0  0  0  0  0
    2.8764   -1.7205    0.0000 C   0  0  0  0  0  0  0  0  0
    2.8764   -2.5455    0.0000 N   0  0  0  0  0  0  0  0  0
    3.5908   -2.9580    0.0000 C   0  0  0  0  0  0  0  0  0
    4.3053   -0.0705    0.0000 N   0  0  0  0  0  0  0  0  0
    4.2436    0.7522    0.0000 C   0  0  0  0  0  0  0  0  0
    4.8484    1.3134    0.0000 C   0  0  0  0  0  0  0  0  0
    5.6642    1.1904    0.0000 C   0  0  0  0  0  0  0  0  0
    6.0767    0.4759    0.0000 N   0  0  0  0  0  0  0  0  0
    5.7753   -0.2920    0.0000 C   0  0  0  0  0  0  0  0  0
    4.9869   -0.5352    0.0000 C   0  0  0  0  0  0  0  0  0
    6.8994    0.5376    0.0000 C   0  0  0  0  0  0  0  0  0
    1.4474   -0.0705    0.0000 C   0  0  0  0  0  0  0  0  0
    0.7329   -0.4830    0.0000 C   0  0  0  0  0  0  0  0  0
  1  2  1  0  0  0  0
  2  3  4  0  0  0  0
  2 21  4  0  0  0  0
  3  4  4  0  0  0  0
  4  5  4  0  0  0  0
  4  9  4  0  0  0  0
  5  6  4  0  0  0  0
  5 20  4  0  0  0  0
  6  7  4  0  0  0  0
  7  8  4  0  0  0  0
  7 12  1  0  0  0  0
  8  9  4  0  0  0  0
  9 10  1  0  0  0  0
 10 11  1  0  0  0  0
 12 13  1  0  0  0  0
 12 18  1  0  0  0  0
 13 14  1  0  0  0  0
 14 15  1  0  0  0  0
 15 16  1  0  0  0  0
 16 17  1  0  0  0  0
 16 19  1  0  0  0  0
 17 18  1  0  0  0  0
 20 21  4  0  0  0  0
M  END
>  <Name_Molregno>
454316

>  <HISTAMINE H4>
6

$$$$
454317
  Marvin  02231216192D 0   1.00000     0.00000     0

 19 21  0  0  1  0  0  0  0  0999 V2000
    0.0228   -0.4035    0.0000 Cl  0  0  0  0  0  0  0  0  0
    0.7373    0.0090    0.0000 C   0  0  0  0  0  0  0  0  0
    1.4517   -0.4035    0.0000 C   0  0  0  0  0  0  0  0  0
    2.1662    0.0090    0.0000 C   0  0  0  0  0  0  0  0  0
    2.1662    0.8340    0.0000 C   0  0  0  0  0  0  0  0  0
    2.8807    1.2465    0.0000 N   0  0  0  0  0  0  0  0  0
    3.5952    0.8340    0.0000 C   0  0  0  0  0  0  0  0  0
    3.5952    0.0090    0.0000 N   0  0  0  0  0  0  0  0  0
    2.8807   -0.4035    0.0000 C   0  0  0  0  0  0  0  0  0
    2.8807   -1.2285    0.0000 N   0  0  0  0  0  0  0  0  0
    3.5952   -1.6410    0.0000 C   0  0  0  0  0  0  0  0  0
    4.3096    1.2465    0.0000 N   0  0  0  0  0  0  0  0  0
    4.3959    2.0670    0.0000 C   0  0  0  0  0  0  0  0  0
    5.2028    2.2385    0.0000 C   0  0  0  0  0  0  0  0  0
    5.5384    2.9922    0.0000 N   0  0  0  0  0  0  0  0  0
    5.6153    1.5241    0.0000 C   0  0  0  0  0  0  0  0  0
    5.0633    0.9110    0.0000 C   0  0  0  0  0  0  0  0  0
    1.4517    1.2465    0.0000 C   0  0  0  0  0  0  0  0  0
    0.7373    0.8340    0.0000 C   0  0  0  0  0  0  0  0  0
  1  2  1  0  0  0  0
  2  3  4  0  0  0  0
  2 19  4  0  0  0  0
  3  4  4  0  0  0  0
  4  5  4  0  0  0  0
  4  9  4  0  0  0  0
  5  6  4  0  0  0  0
  5 18  4  0  0  0  0
  6  7  4  0  0  0  0
  7  8  4  0  0  0  0
  7 12  1  0  0  0  0
  8  9  4  0  0  0  0
  9 10  1  0  0  0  0
 10 11  1  0  0  0  0
 12 13  1  0  0  0  0
 12 17  1  0  0  0  0
 13 14  1  0  0  0  0
 14 15  1  0  0  0  0
 14 16  1  0  0  0  0
 16 17  1  0  0  0  0
 18 19  4  0  0  0  0
M  END
>  <Name_Molregno>
454317

>  <HISTAMINE H4>
6

$$$$
454391
  Marvin  02231216192D 0   1.00000     0.00000     0

 20 22  0  0  1  0  0  0  0  0999 V2000
    0.1283   -0.6120    0.0000 Cl  0  0  0  0  0  0  0  0  0
    0.8428   -0.1995    0.0000 C   0  0  0  0  0  0  0  0  0
    1.5573   -0.6120    0.0000 C   0  0  0  0  0  0  0  0  0
    2.2718   -0.1995    0.0000 C   0  0  0  0  0  0  0  0  0
    2.2718    0.6255    0.0000 C   0  0  0  0  0  0  0  0  0
    2.9862    1.0380    0.0000 N   0  0  0  0  0  0  0  0  0
    3.7007    0.6255    0.0000 C   0  0  0  0  0  0  0  0  0
    3.7007   -0.1995    0.0000 N   0  0  0  0  0  0  0  0  0
    2.9862   -0.6120    0.0000 C   0  0  0  0  0  0  0  0  0
    2.9862   -1.4370    0.0000 N   0  0  0  0  0  0  0  0  0
    3.7007   -1.8495    0.0000 C   0  0  0  0  0  0  0  0  0
    4.4152    1.0380    0.0000 N   0  0  0  0  0  0  0  0  0
    4.5014    1.8585    0.0000 C   0  0  0  0  0  0  0  0  0
    5.3084    2.0300    0.0000 C   0  0  0  0  0  0  0  0  0
    5.6439    2.7837    0.0000 N   0  0  0  0  0  0  0  0  0
    5.1590    3.4511    0.0000 C   0  0  0  0  0  0  0  0  0
    5.7209    1.3155    0.0000 C   0  0  0  0  0  0  0  0  0
    5.1688    0.7024    0.0000 C   0  0  0  0  0  0  0  0  0
    1.5573    1.0380    0.0000 C   0  0  0  0  0  0  0  0  0
    0.8428    0.6255    0.0000 C   0  0  0  0  0  0  0  0  0
  1  2  1  0  0  0  0
  2  3  4  0  0  0  0
  2 20  4  0  0  0  0
  3  4  4  0  0  0  0
  4  5  4  0  0  0  0
  4  9  4  0  0  0  0
  5  6  4  0  0  0  0
  5 19  4  0  0  0  0
  6  7  4  0  0  0  0
  7  8  4  0  0  0  0
  7 12  1  0  0  0  0
  8  9  4  0  0  0  0
  9 10  1  0  0  0  0
 10 11  1  0  0  0  0
 12 13  1  0  0  0  0
 12 18  1  0  0  0  0
 13 14  1  0  0  0  0
 14 15  1  0  0  0  0
 14 17  1  0  0  0  0
 15 16  1  0  0  0  0
 17 18  1  0  0  0  0
 19 20  4  0  0  0  0
M  END
>  <Name_Molregno>
454391

>  <HISTAMINE H4>
6

$$$$
454392
  Marvin  02231216192D 0   1.00000     0.00000     0

 22 25  0  0  1  0  0  0  0  0999 V2000
    6.3946   -2.8313    0.0000 Cl  0  0  0  0  0  0  0  0  0
    5.6801   -2.4188    0.0000 C   0  0  0  0  0  0  0  0  0
    5.6801   -1.5938    0.0000 C   0  0  0  0  0  0  0  0  0
    4.9656   -1.1813    0.0000 C   0  0  0  0  0  0  0  0  0
    4.2511   -1.5938    0.0000 C   0  0  0  0  0  0  0  0  0
    3.5367   -1.1813    0.0000 N   0  0  0  0  0  0  0  0  0
    3.5367   -0.3563    0.0000 C   0  0  0  0  0  0  0  0  0
    4.2511    0.0562    0.0000 N   0  0  0  0  0  0  0  0  0
    4.9656   -0.3563    0.0000 C   0  0  0  0  0  0  0  0  0
    5.6801    0.0562    0.0000 N   0  0  0  0  0  0  0  0  0
    5.6801    0.8812    0.0000 C   0  0  0  0  0  0  0  0  0
    2.8222    0.0562    0.0000 N   0  0  0  0  0  0  0  0  0
    2.1077   -0.3563    0.0000 C   0  0  0  0  0  0  0  0  0
    1.3933    0.0562    0.0000 C   0  0  0  0  0  0  0  0  0
    1.3933    0.8812    0.0000 N   0  0  0  0  0  0  0  0  0
    0.6086    1.1361    0.0000 C   0  0  0  0  0  0  0  0  0
    0.1237    0.4687    0.0000 C   0  0  0  0  0  0  0  0  0
    0.6086   -0.1988    0.0000 C   0  0  0  0  0  0  0  0  0
    2.1077    1.2937    0.0000 C   0  0  0  0  0  0  0  0  0
    2.8222    0.8812    0.0000 C   0  0  0  0  0  0  0  0  0
    4.2511   -2.4188    0.0000 C   0  0  0  0  0  0  0  0  0
    4.9656   -2.8313    0.0000 C   0  0  0  0  0  0  0  0  0
  1  2  1  0  0  0  0
  2  3  4  0  0  0  0
  2 22  4  0  0  0  0
  3  4  4  0  0  0  0
  4  5  4  0  0  0  0
  4  9  4  0  0  0  0
  5  6  4  0  0  0  0
  5 21  4  0  0  0  0
  6  7  4  0  0  0  0
  7  8  4  0  0  0  0
  7 12  1  0  0  0  0
  8  9  4  0  0  0  0
  9 10  1  0  0  0  0
 10 11  1  0  0  0  0
 12 13  1  0  0  0  0
 12 20  1  0  0  0  0
 13 14  1  0  0  0  0
 14 15  1  0  0  0  0
 14 18  1  0  0  0  0
 15 16  1  0  0  0  0
 15 19  1  0  0  0  0
 16 17  1  0  0  0  0
 17 18  1  0  0  0  0
 19 20  1  0  0  0  0
 21 22  4  0  0  0  0
M  END
>  <Name_Molregno>
454392

>  <HISTAMINE H4>
6.83

$$$$
454394
  Marvin  02231216192D 0   1.00000     0.00000     0

 25 28  0  0  0  0  0  0  0  0999 V2000
   -0.1125   -0.0087    0.0000 Cl  0  0  0  0  0  0  0  0  0
    0.7125   -0.0087    0.0000 C   0  0  0  0  0  0  0  0  0
    1.1250   -0.7232    0.0000 C   0  0  0  0  0  0  0  0  0
    1.9500   -0.7232    0.0000 C   0  0  0  0  0  0  0  0  0
    2.3625   -0.0087    0.0000 C   0  0  0  0  0  0  0  0  0
    3.1875   -0.0087    0.0000 N   0  0  0  0  0  0  0  0  0
    3.6000   -0.7232    0.0000 C   0  0  0  0  0  0  0  0  0
    3.1875   -1.4376    0.0000 N   0  0  0  0  0  0  0  0  0
    2.3625   -1.4376    0.0000 C   0  0  0  0  0  0  0  0  0
    1.9500   -2.1521    0.0000 N   0  0  0  0  0  0  0  0  0
    2.3625   -2.8666    0.0000 C   0  0  0  0  0  0  0  0  0
    4.4250   -0.7232    0.0000 N   0  0  0  0  0  0  0  0  0
    4.8375   -0.0087    0.0000 C   0  0  0  0  0  0  0  0  0
    5.6625   -0.0087    0.0000 C   0  0  0  0  0  0  0  0  0
    6.0750   -0.7232    0.0000 C   0  0  0  0  0  0  0  0  0
    5.6625   -1.4376    0.0000 C   0  0  0  0  0  0  0  0  0
    4.8375   -1.4376    0.0000 C   0  0  0  0  0  0  0  0  0
    6.4875   -0.0087    0.0000 C   0  0  0  0  0  0  0  0  0
    7.3125   -0.0087    0.0000 C   0  0  0  0  0  0  0  0  0
    7.7250   -0.7232    0.0000 N   0  0  0  0  0  0  0  0  0
    7.3125   -1.4376    0.0000 C   0  0  0  0  0  0  0  0  0
    6.4875   -1.4376    0.0000 C   0  0  0  0  0  0  0  0  0
    8.5500   -0.7232    0.0000 C   0  0  0  0  0  0  0  0  0
    1.9500    0.7058    0.0000 C   0  0  0  0  0  0  0  0  0
    1.1250    0.7058    0.0000 C   0  0  0  0  0  0  0  0  0
  1  2  1  0  0  0  0
  2  3  4  0  0  0  0
  2 25  4  0  0  0  0
  3  4  4  0  0  0  0
  4  5  4  0  0  0  0
  4  9  4  0  0  0  0
  5  6  4  0  0  0  0
  5 24  4  0  0  0  0
  6  7  4  0  0  0  0
  7  8  4  0  0  0  0
  7 12  1  0  0  0  0
  8  9  4  0  0  0  0
  9 10  1  0  0  0  0
 10 11  1  0  0  0  0
 12 13  1  0  0  0  0
 12 17  1  0  0  0  0
 13 14  1  0  0  0  0
 14 15  1  0  0  0  0
 15 16  1  0  0  0  0
 15 18  1  0  0  0  0
 15 22  1  0  0  0  0
 16 17  1  0  0  0  0
 18 19  1  0  0  0  0
 19 20  1  0  0  0  0
 20 21  1  0  0  0  0
 20 23  1  0  0  0  0
 21 22  1  0  0  0  0
 24 25  4  0  0  0  0
M  END
>  <Name_Molregno>
454394

>  <HISTAMINE H4>
6

$$$$
454395
  Marvin  02231216192D 0   1.00000     0.00000     0

 23 26  0  0  1  0  0  0  0  0999 V2000
    0.9152    3.0799    0.0000 Cl  0  0  0  0  0  0  0  0  0
    1.5826    2.5950    0.0000 C   0  0  0  0  0  0  0  0  0
    1.4964    1.7745    0.0000 C   0  0  0  0  0  0  0  0  0
    2.1638    1.2896    0.0000 C   0  0  0  0  0  0  0  0  0
    2.9175    1.6252    0.0000 C   0  0  0  0  0  0  0  0  0
    3.5849    1.1403    0.0000 N   0  0  0  0  0  0  0  0  0
    3.4987    0.3198    0.0000 C   0  0  0  0  0  0  0  0  0
    2.7450   -0.0158    0.0000 N   0  0  0  0  0  0  0  0  0
    2.0776    0.4691    0.0000 C   0  0  0  0  0  0  0  0  0
    1.3239    0.1336    0.0000 N   0  0  0  0  0  0  0  0  0
    1.2377   -0.6869    0.0000 C   0  0  0  0  0  0  0  0  0
    4.1662   -0.1652    0.0000 N   0  0  0  0  0  0  0  0  0
    4.9508    0.0898    0.0000 C   0  0  0  0  0  0  0  0  0
    5.4357   -0.5777    0.0000 C   0  0  0  0  0  0  0  0  0
    4.9508   -1.2451    0.0000 C   0  0  0  0  0  0  0  0  0
    4.1662   -0.9902    0.0000 C   0  0  0  0  0  0  0  0  0
    5.9206    0.0898    0.0000 C   0  0  0  0  0  0  0  0  0
    6.7052   -0.1652    0.0000 C   0  0  0  0  0  0  0  0  0
    6.7052   -0.9902    0.0000 N   0  0  0  0  0  0  0  0  0
    5.9206   -1.2451    0.0000 C   0  0  0  0  0  0  0  0  0
    7.3727   -1.4751    0.0000 C   0  0  0  0  0  0  0  0  0
    3.0037    2.4457    0.0000 C   0  0  0  0  0  0  0  0  0
    2.3363    2.9306    0.0000 C   0  0  0  0  0  0  0  0  0
  1  2  1  0  0  0  0
  2  3  4  0  0  0  0
  2 23  4  0  0  0  0
  3  4  4  0  0  0  0
  4  5  4  0  0  0  0
  4  9  4  0  0  0  0
  5  6  4  0  0  0  0
  5 22  4  0  0  0  0
  6  7  4  0  0  0  0
  7  8  4  0  0  0  0
  7 12  1  0  0  0  0
  8  9  4  0  0  0  0
  9 10  1  0  0  0  0
 10 11  1  0  0  0  0
 12 13  1  0  0  0  0
 12 16  1  0  0  0  0
 13 14  1  0  0  0  0
 14 15  1  0  0  0  0
 14 17  1  0  0  0  0
 14 20  1  0  0  0  0
 15 16  1  0  0  0  0
 17 18  1  0  0  0  0
 18 19  1  0  0  0  0
 19 20  1  0  0  0  0
 19 21  1  0  0  0  0
 22 23  4  0  0  0  0
M  END
>  <Name_Molregno>
454395

>  <HISTAMINE H4>
6

$$$$
454460
  Marvin  02231216192D 0   1.00000     0.00000     0

 21 24  0  0  1  0  0  0  0  0999 V2000
   -0.0873    1.3232    0.0000 Cl  0  0  0  0  0  0  0  0  0
    0.7377    1.3232    0.0000 C   0  0  0  0  0  0  0  0  0
    1.1502    0.6087    0.0000 C   0  0  0  0  0  0  0  0  0
    1.9752    0.6087    0.0000 C   0  0  0  0  0  0  0  0  0
    2.3877    1.3232    0.0000 C   0  0  0  0  0  0  0  0  0
    3.2127    1.3232    0.0000 N   0  0  0  0  0  0  0  0  0
    3.6252    0.6087    0.0000 C   0  0  0  0  0  0  0  0  0
    3.2127   -0.1058    0.0000 N   0  0  0  0  0  0  0  0  0
    2.3877   -0.1058    0.0000 C   0  0  0  0  0  0  0  0  0
    1.9752   -0.8202    0.0000 N   0  0  0  0  0  0  0  0  0
    2.3877   -1.5347    0.0000 C   0  0  0  0  0  0  0  0  0
    4.4502    0.6087    0.0000 N   0  0  0  0  0  0  0  0  0
    4.9351   -0.0587    0.0000 C   0  0  0  0  0  0  0  0  0
    5.7197    0.1962    0.0000 C   0  0  0  0  0  0  0  0  0
    5.7197    1.0212    0.0000 C   0  0  0  0  0  0  0  0  0
    4.9351    1.2761    0.0000 C   0  0  0  0  0  0  0  0  0
    6.5043    1.2761    0.0000 C   0  0  0  0  0  0  0  0  0
    6.9893    0.6087    0.0000 N   0  0  0  0  0  0  0  0  0
    6.5043   -0.0587    0.0000 C   0  0  0  0  0  0  0  0  0
    1.9752    2.0376    0.0000 C   0  0  0  0  0  0  0  0  0
    1.1502    2.0376    0.0000 C   0  0  0  0  0  0  0  0  0
  1  2  1  0  0  0  0
  2  3  4  0  0  0  0
  2 21  4  0  0  0  0
  3  4  4  0  0  0  0
  4  5  4  0  0  0  0
  4  9  4  0  0  0  0
  5  6  4  0  0  0  0
  5 20  4  0  0  0  0
  6  7  4  0  0  0  0
  7  8  4  0  0  0  0
  7 12  1  0  0  0  0
  8  9  4  0  0  0  0
  9 10  1  0  0  0  0
 10 11  1  0  0  0  0
 12 13  1  0  0  0  0
 12 16  1  0  0  0  0
 13 14  1  0  0  0  0
 14 15  1  0  0  0  0
 14 19  1  0  0  0  0
 15 16  1  0  0  0  0
 15 17  1  0  0  0  0
 17 18  1  0  0  0  0
 18 19  1  0  0  0  0
 20 21  4  0  0  0  0
M  END
>  <Name_Molregno>
454460

>  <HISTAMINE H4>
6

$$$$
454461
  Marvin  02231216192D 0   1.00000     0.00000     0

 22 24  0  0  1  0  0  0  0  0999 V2000
    0.3913   -1.8244    0.0000 Cl  0  0  0  0  0  0  0  0  0
    1.1058   -1.4119    0.0000 C   0  0  0  0  0  0  0  0  0
    1.8203   -1.8244    0.0000 C   0  0  0  0  0  0  0  0  0
    2.5347   -1.4119    0.0000 C   0  0  0  0  0  0  0  0  0
    2.5347   -0.5869    0.0000 C   0  0  0  0  0  0  0  0  0
    3.2492   -0.1744    0.0000 N   0  0  0  0  0  0  0  0  0
    3.9637   -0.5869    0.0000 C   0  0  0  0  0  0  0  0  0
    3.9637   -1.4119    0.0000 N   0  0  0  0  0  0  0  0  0
    3.2492   -1.8244    0.0000 C   0  0  0  0  0  0  0  0  0
    3.2492   -2.6494    0.0000 N   0  0  0  0  0  0  0  0  0
    3.9637   -3.0619    0.0000 C   0  0  0  0  0  0  0  0  0
    4.6782   -0.1744    0.0000 N   0  0  0  0  0  0  0  0  0
    4.6782    0.6506    0.0000 C   0  0  0  0  0  0  0  0  0
    5.3926    1.0631    0.0000 C   0  0  0  0  0  0  0  0  0
    5.3926    1.8881    0.0000 C   0  0  0  0  0  0  0  0  0
    4.7252    2.3730    0.0000 C   0  0  0  0  0  0  0  0  0
    4.9801    3.1576    0.0000 C   0  0  0  0  0  0  0  0  0
    5.8051    3.1576    0.0000 N   0  0  0  0  0  0  0  0  0
    6.0601    2.3730    0.0000 C   0  0  0  0  0  0  0  0  0
    6.2901    3.8251    0.0000 C   0  0  0  0  0  0  0  0  0
    1.8203   -0.1744    0.0000 C   0  0  0  0  0  0  0  0  0
    1.1058   -0.5869    0.0000 C   0  0  0  0  0  0  0  0  0
  1  2  1  0  0  0  0
  2  3  4  0  0  0  0
  2 22  4  0  0  0  0
  3  4  4  0  0  0  0
  4  5  4  0  0  0  0
  4  9  4  0  0  0  0
  5  6  4  0  0  0  0
  5 21  4  0  0  0  0
  6  7  4  0  0  0  0
  7  8  4  0  0  0  0
  7 12  1  0  0  0  0
  8  9  4  0  0  0  0
  9 10  1  0  0  0  0
 10 11  1  0  0  0  0
 12 13  1  0  0  0  0
 13 14  1  0  0  0  0
 14 15  1  0  0  0  0
 15 16  1  0  0  0  0
 15 19  1  0  0  0  0
 16 17  1  0  0  0  0
 17 18  1  0  0  0  0
 18 19  1  0  0  0  0
 18 20  1  0  0  0  0
 21 22  4  0  0  0  0
M  END
>  <Name_Molregno>
454461

>  <HISTAMINE H4>
6

$$$$
454462
  Marvin  02231216192D 0   1.00000     0.00000     0

 22 24  0  0  0  0  0  0  0  0999 V2000
    0.2005   -1.1138    0.0000 Cl  0  0  0  0  0  0  0  0  0
    0.9149   -0.7013    0.0000 C   0  0  0  0  0  0  0  0  0
    1.6294   -1.1138    0.0000 C   0  0  0  0  0  0  0  0  0
    2.3439   -0.7013    0.0000 C   0  0  0  0  0  0  0  0  0
    2.3439    0.1237    0.0000 C   0  0  0  0  0  0  0  0  0
    3.0584    0.5362    0.0000 N   0  0  0  0  0  0  0  0  0
    3.7728    0.1237    0.0000 C   0  0  0  0  0  0  0  0  0
    3.7728   -0.7013    0.0000 N   0  0  0  0  0  0  0  0  0
    3.0584   -1.1138    0.0000 C   0  0  0  0  0  0  0  0  0
    3.0584   -1.9388    0.0000 N   0  0  0  0  0  0  0  0  0
    3.7728   -2.3513    0.0000 C   0  0  0  0  0  0  0  0  0
    4.4873    0.5362    0.0000 N   0  0  0  0  0  0  0  0  0
    4.4873    1.3612    0.0000 C   0  0  0  0  0  0  0  0  0
    5.2018    1.7737    0.0000 C   0  0  0  0  0  0  0  0  0
    5.2018    2.5987    0.0000 C   0  0  0  0  0  0  0  0  0
    5.9162    3.0112    0.0000 C   0  0  0  0  0  0  0  0  0
    6.6307    2.5987    0.0000 N   0  0  0  0  0  0  0  0  0
    6.6307    1.7737    0.0000 C   0  0  0  0  0  0  0  0  0
    5.9162    1.3612    0.0000 C   0  0  0  0  0  0  0  0  0
    7.3452    3.0112    0.0000 C   0  0  0  0  0  0  0  0  0
    1.6294    0.5362    0.0000 C   0  0  0  0  0  0  0  0  0
    0.9149    0.1237    0.0000 C   0  0  0  0  0  0  0  0  0
  1  2  1  0  0  0  0
  2  3  4  0  0  0  0
  2 22  4  0  0  0  0
  3  4  4  0  0  0  0
  4  5  4  0  0  0  0
  4  9  4  0  0  0  0
  5  6  4  0  0  0  0
  5 21  4  0  0  0  0
  6  7  4  0  0  0  0
  7  8  4  0  0  0  0
  7 12  1  0  0  0  0
  8  9  4  0  0  0  0
  9 10  1  0  0  0  0
 10 11  1  0  0  0  0
 12 13  1  0  0  0  0
 13 14  1  0  0  0  0
 14 15  1  0  0  0  0
 14 19  1  0  0  0  0
 15 16  1  0  0  0  0
 16 17  1  0  0  0  0
 17 18  1  0  0  0  0
 17 20  1  0  0  0  0
 18 19  1  0  0  0  0
 21 22  4  0  0  0  0
M  END
>  <Name_Molregno>
454462

>  <HISTAMINE H4>
6

$$$$
454463
  Marvin  02231216192D 0   1.00000     0.00000     0

 21 23  0  0  1  0  0  0  0  0999 V2000
   -0.0839   -0.6234    0.0000 Cl  0  0  0  0  0  0  0  0  0
    0.6306   -0.2109    0.0000 C   0  0  0  0  0  0  0  0  0
    1.3451   -0.6234    0.0000 C   0  0  0  0  0  0  0  0  0
    2.0596   -0.2109    0.0000 C   0  0  0  0  0  0  0  0  0
    2.0596    0.6141    0.0000 C   0  0  0  0  0  0  0  0  0
    2.7740    1.0266    0.0000 N   0  0  0  0  0  0  0  0  0
    3.4885    0.6141    0.0000 C   0  0  0  0  0  0  0  0  0
    3.4885   -0.2109    0.0000 N   0  0  0  0  0  0  0  0  0
    2.7740   -0.6234    0.0000 C   0  0  0  0  0  0  0  0  0
    2.7740   -1.4484    0.0000 N   0  0  0  0  0  0  0  0  0
    3.4885   -1.8609    0.0000 C   0  0  0  0  0  0  0  0  0
    4.2030    1.0266    0.0000 N   0  0  0  0  0  0  0  0  0
    4.9174    0.6141    0.0000 C   0  0  0  0  0  0  0  0  0
    5.6319    1.0266    0.0000 C   0  0  0  0  0  0  0  0  0
    5.7181    1.8471    0.0000 C   0  0  0  0  0  0  0  0  0
    6.5251    2.0186    0.0000 C   0  0  0  0  0  0  0  0  0
    6.9376    1.3042    0.0000 N   0  0  0  0  0  0  0  0  0
    6.3856    0.6911    0.0000 C   0  0  0  0  0  0  0  0  0
    7.7581    1.2179    0.0000 C   0  0  0  0  0  0  0  0  0
    1.3451    1.0266    0.0000 C   0  0  0  0  0  0  0  0  0
    0.6306    0.6141    0.0000 C   0  0  0  0  0  0  0  0  0
  1  2  1  0  0  0  0
  2  3  4  0  0  0  0
  2 21  4  0  0  0  0
  3  4  4  0  0  0  0
  4  5  4  0  0  0  0
  4  9  4  0  0  0  0
  5  6  4  0  0  0  0
  5 20  4  0  0  0  0
  6  7  4  0  0  0  0
  7  8  4  0  0  0  0
  7 12  1  0  0  0  0
  8  9  4  0  0  0  0
  9 10  1  0  0  0  0
 10 11  1  0  0  0  0
 12 13  1  0  0  0  0
 13 14  1  0  0  0  0
 14 15  1  0  0  0  0
 14 18  1  0  0  0  0
 15 16  1  0  0  0  0
 16 17  1  0  0  0  0
 17 18  1  0  0  0  0
 17 19  1  0  0  0  0
 20 21  4  0  0  0  0
M  END
>  <Name_Molregno>
454463

>  <HISTAMINE H4>
6

$$$$
454464
  Marvin  02231216192D 0   1.00000     0.00000     0

 26 29  0  0  1  0  0  0  0  0999 V2000
   -2.0980   -3.8090    0.0000 Cl  0  0  0  0  0  0  0  0  0
   -1.3835   -3.3965    0.0000 C   0  0  0  0  0  0  0  0  0
   -0.6690   -3.8090    0.0000 C   0  0  0  0  0  0  0  0  0
    0.0454   -3.3965    0.0000 C   0  0  0  0  0  0  0  0  0
    0.0454   -2.5715    0.0000 C   0  0  0  0  0  0  0  0  0
    0.7599   -2.1590    0.0000 N   0  0  0  0  0  0  0  0  0
    1.4744   -2.5715    0.0000 C   0  0  0  0  0  0  0  0  0
    1.4744   -3.3965    0.0000 N   0  0  0  0  0  0  0  0  0
    0.7599   -3.8090    0.0000 C   0  0  0  0  0  0  0  0  0
    0.7599   -4.6340    0.0000 N   0  0  0  0  0  0  0  0  0
    1.4744   -5.0465    0.0000 C   0  0  0  0  0  0  0  0  0
    2.1888   -2.1590    0.0000 N   0  0  0  0  0  0  0  0  0
    2.2751   -1.3385    0.0000 C   0  0  0  0  0  0  0  0  0
    3.0820   -1.1670    0.0000 C   0  0  0  0  0  0  0  0  0
    3.4945   -1.8814    0.0000 C   0  0  0  0  0  0  0  0  0
    2.9425   -2.4945    0.0000 C   0  0  0  0  0  0  0  0  0
    3.1140   -3.3015    0.0000 C   0  0  0  0  0  0  0  0  0
    3.8987   -3.5564    0.0000 N   0  0  0  0  0  0  0  0  0
    4.5118   -3.0044    0.0000 C   0  0  0  0  0  0  0  0  0
    5.2964   -3.2593    0.0000 C   0  0  0  0  0  0  0  0  0
    5.4679   -4.0663    0.0000 N   0  0  0  0  0  0  0  0  0
    4.8548   -4.6184    0.0000 C   0  0  0  0  0  0  0  0  0
    4.0702   -4.3634    0.0000 C   0  0  0  0  0  0  0  0  0
    6.2525   -4.3213    0.0000 C   0  0  0  0  0  0  0  0  0
   -0.6690   -2.1590    0.0000 C   0  0  0  0  0  0  0  0  0
   -1.3835   -2.5715    0.0000 C   0  0  0  0  0  0  0  0  0
  1  2  1  0  0  0  0
  2  3  4  0  0  0  0
  2 26  4  0  0  0  0
  3  4  4  0  0  0  0
  4  5  4  0  0  0  0
  4  9  4  0  0  0  0
  5  6  4  0  0  0  0
  5 25  4  0  0  0  0
  6  7  4  0  0  0  0
  7  8  4  0  0  0  0
  7 12  1  0  0  0  0
  8  9  4  0  0  0  0
  9 10  1  0  0  0  0
 10 11  1  0  0  0  0
 12 13  1  0  0  0  0
 12 16  1  0  0  0  0
 13 14  1  0  0  0  0
 14 15  1  0  0  0  0
 15 16  1  0  0  0  0
 16 17  1  0  0  0  0
 17 18  1  0  0  0  0
 18 19  1  0  0  0  0
 18 23  1  0  0  0  0
 19 20  1  0  0  0  0
 20 21  1  0  0  0  0
 21 22  1  0  0  0  0
 21 24  1  0  0  0  0
 22 23  1  0  0  0  0
 25 26  4  0  0  0  0
M  END
>  <Name_Molregno>
454464

>  <HISTAMINE H4>
6

$$$$
468946
  Marvin  02231216192D 0   1.00000     0.00000     0

 22 25  0  0  0  0  0  0  0  0999 V2000
   -1.8911   -2.0772    0.0000 N   0  0  0  0  0  0  0  0  0
   -1.5897   -1.3093    0.0000 C   0  0  0  0  0  0  0  0  0
   -2.1041   -0.6643    0.0000 N   0  0  0  0  0  0  0  0  0
   -2.9239   -0.5719    0.0000 C   0  0  0  0  0  0  0  0  0
   -2.8315    0.2479    0.0000 C   0  0  0  0  0  0  0  0  0
   -3.3459    0.8929    0.0000 N   0  0  0  0  0  0  0  0  0
   -3.0445    1.6609    0.0000 C   0  0  0  0  0  0  0  0  0
   -2.0117    0.1556    0.0000 C   0  0  0  0  0  0  0  0  0
   -0.7739   -1.1863    0.0000 C   0  0  0  0  0  0  0  0  0
   -0.5903   -0.3820    0.0000 C   0  0  0  0  0  0  0  0  0
    0.1530   -0.0240    0.0000 C   0  0  0  0  0  0  0  0  0
    0.8963   -0.3820    0.0000 C   0  0  0  0  0  0  0  0  0
    1.0798   -1.1863    0.0000 C   0  0  0  0  0  0  0  0  0
    0.5655   -1.8313    0.0000 C   0  0  0  0  0  0  0  0  0
   -0.2595   -1.8313    0.0000 C   0  0  0  0  0  0  0  0  0
   -0.5610   -2.5993    0.0000 N   0  0  0  0  0  0  0  0  0
   -1.3767   -2.7222    0.0000 C   0  0  0  0  0  0  0  0  0
   -1.6781   -3.4902    0.0000 N   0  0  0  0  0  0  0  0  0
    0.8669   -2.5993    0.0000 C   0  0  0  0  0  0  0  0  0
    1.6826   -2.7222    0.0000 C   0  0  0  0  0  0  0  0  0
    2.1970   -2.0772    0.0000 C   0  0  0  0  0  0  0  0  0
    1.8956   -1.3093    0.0000 C   0  0  0  0  0  0  0  0  0
  1  2  4  0  0  0  0
  1 17  4  0  0  0  0
  2  3  1  0  0  0  0
  2  9  4  0  0  0  0
  3  4  1  0  0  0  0
  3  8  1  0  0  0  0
  4  5  1  0  0  0  0
  5  6  1  0  0  0  0
  5  8  1  0  0  0  0
  6  7  1  0  0  0  0
  9 10  1  0  0  0  0
  9 15  4  0  0  0  0
 10 11  1  0  0  0  0
 11 12  1  0  0  0  0
 12 13  1  0  0  0  0
 13 14  4  0  0  0  0
 13 22  4  0  0  0  0
 14 15  1  0  0  0  0
 14 19  4  0  0  0  0
 15 16  4  0  0  0  0
 16 17  4  0  0  0  0
 17 18  1  0  0  0  0
 19 20  4  0  0  0  0
 20 21  4  0  0  0  0
 21 22  4  0  0  0  0
M  END
>  <Name_Molregno>
468946

>  <HISTAMINE H4>
7.96

$$$$
468947
  Marvin  02231216192D 0   1.00000     0.00000     0

 23 26  0  0  0  0  0  0  0  0999 V2000
    5.7913    2.2219    0.0000 F   0  0  0  0  0  0  0  0  0
    5.4899    1.4539    0.0000 C   0  0  0  0  0  0  0  0  0
    4.6741    1.3310    0.0000 C   0  0  0  0  0  0  0  0  0
    4.3727    0.5630    0.0000 C   0  0  0  0  0  0  0  0  0
    4.8871   -0.0820    0.0000 C   0  0  0  0  0  0  0  0  0
    4.7035   -0.8863    0.0000 C   0  0  0  0  0  0  0  0  0
    3.9602   -1.2443    0.0000 C   0  0  0  0  0  0  0  0  0
    3.2169   -0.8863    0.0000 C   0  0  0  0  0  0  0  0  0
    3.0333   -0.0820    0.0000 C   0  0  0  0  0  0  0  0  0
    3.5477    0.5630    0.0000 C   0  0  0  0  0  0  0  0  0
    3.2463    1.3310    0.0000 N   0  0  0  0  0  0  0  0  0
    2.4305    1.4539    0.0000 C   0  0  0  0  0  0  0  0  0
    1.9161    0.8089    0.0000 N   0  0  0  0  0  0  0  0  0
    2.2175    0.0409    0.0000 C   0  0  0  0  0  0  0  0  0
    1.7032   -0.6041    0.0000 N   0  0  0  0  0  0  0  0  0
    2.0046   -1.3720    0.0000 C   0  0  0  0  0  0  0  0  0
    1.4902   -2.0171    0.0000 C   0  0  0  0  0  0  0  0  0
    0.6744   -1.8941    0.0000 N   0  0  0  0  0  0  0  0  0
    0.3730   -1.1261    0.0000 C   0  0  0  0  0  0  0  0  0
    0.8874   -0.4811    0.0000 C   0  0  0  0  0  0  0  0  0
    2.1291    2.2219    0.0000 N   0  0  0  0  0  0  0  0  0
    5.7029    0.0409    0.0000 C   0  0  0  0  0  0  0  0  0
    6.0043    0.8089    0.0000 C   0  0  0  0  0  0  0  0  0
  1  2  1  0  0  0  0
  2  3  4  0  0  0  0
  2 23  4  0  0  0  0
  3  4  4  0  0  0  0
  4  5  4  0  0  0  0
  4 10  1  0  0  0  0
  5  6  1  0  0  0  0
  5 22  4  0  0  0  0
  6  7  1  0  0  0  0
  7  8  1  0  0  0  0
  8  9  1  0  0  0  0
  9 10  4  0  0  0  0
  9 14  4  0  0  0  0
 10 11  4  0  0  0  0
 11 12  4  0  0  0  0
 12 13  4  0  0  0  0
 12 21  1  0  0  0  0
 13 14  4  0  0  0  0
 14 15  1  0  0  0  0
 15 16  1  0  0  0  0
 15 20  1  0  0  0  0
 16 17  1  0  0  0  0
 17 18  1  0  0  0  0
 18 19  1  0  0  0  0
 19 20  1  0  0  0  0
 22 23  4  0  0  0  0
M  END
>  <Name_Molregno>
468947

>  <HISTAMINE H4>
8.29

$$$$
468948
  Marvin  02231216192D 0   1.00000     0.00000     0

 24 27  0  0  1  0  0  0  0  0999 V2000
   -1.7508   -1.7307    0.0000 N   0  0  0  0  0  0  0  0  0
   -1.0363   -2.1432    0.0000 C   0  0  0  0  0  0  0  0  0
   -1.0363   -2.9682    0.0000 N   0  0  0  0  0  0  0  0  0
   -0.3218   -3.3807    0.0000 C   0  0  0  0  0  0  0  0  0
   -0.3218   -4.2057    0.0000 C   0  0  0  0  0  0  0  0  0
   -1.0363   -4.6182    0.0000 N   0  0  0  0  0  0  0  0  0
   -1.7508   -4.2057    0.0000 C   0  0  0  0  0  0  0  0  0
   -1.7508   -3.3807    0.0000 C   0  0  0  0  0  0  0  0  0
   -0.3218   -1.7307    0.0000 C   0  0  0  0  0  0  0  0  0
   -0.3218   -0.9057    0.0000 C   0  0  0  0  0  0  0  0  0
   -1.0363   -0.4932    0.0000 N   0  0  0  0  0  0  0  0  0
   -1.7508   -0.9057    0.0000 C   0  0  0  0  0  0  0  0  0
   -2.4652   -0.4932    0.0000 N   0  0  0  0  0  0  0  0  0
    0.3232   -0.3914    0.0000 C   0  0  0  0  0  0  0  0  0
    1.1275   -0.5749    0.0000 C   0  0  0  0  0  0  0  0  0
    1.4854   -1.3182    0.0000 C   0  0  0  0  0  0  0  0  0
    1.1275   -2.0615    0.0000 C   0  0  0  0  0  0  0  0  0
    0.3232   -2.2451    0.0000 C   0  0  0  0  0  0  0  0  0
    0.1396    0.4130    0.0000 C   0  0  0  0  0  0  0  0  0
   -0.6488    0.6561    0.0000 C   0  0  0  0  0  0  0  0  0
   -0.8323    1.4605    0.0000 C   0  0  0  0  0  0  0  0  0
   -0.2276    2.0216    0.0000 C   0  0  0  0  0  0  0  0  0
    0.5608    1.7784    0.0000 C   0  0  0  0  0  0  0  0  0
    0.7444    0.9741    0.0000 C   0  0  0  0  0  0  0  0  0
  1  2  4  0  0  0  0
  1 12  4  0  0  0  0
  2  3  1  0  0  0  0
  2  9  4  0  0  0  0
  3  4  1  0  0  0  0
  3  8  1  0  0  0  0
  4  5  1  0  0  0  0
  5  6  1  0  0  0  0
  6  7  1  0  0  0  0
  7  8  1  0  0  0  0
  9 10  4  0  0  0  0
  9 18  1  0  0  0  0
 10 11  4  0  0  0  0
 10 14  1  0  0  0  0
 11 12  4  0  0  0  0
 12 13  1  0  0  0  0
 14 15  1  0  0  0  0
 14 19  1  0  0  0  0
 15 16  1  0  0  0  0
 16 17  1  0  0  0  0
 17 18  1  0  0  0  0
 19 20  4  0  0  0  0
 19 24  4  0  0  0  0
 20 21  4  0  0  0  0
 21 22  4  0  0  0  0
 22 23  4  0  0  0  0
 23 24  4  0  0  0  0
M  END
>  <Name_Molregno>
468948

>  <HISTAMINE H3>
5.65

>  <HISTAMINE H4>
7.4

$$$$
469398
  Marvin  02231216192D 0   1.00000     0.00000     0

 22 24  0  0  0  0  0  0  0  0999 V2000
    0.3240    2.6735    0.0000 N   0  0  0  0  0  0  0  0  0
    0.3240    1.8485    0.0000 C   0  0  0  0  0  0  0  0  0
   -0.3904    1.4360    0.0000 C   0  0  0  0  0  0  0  0  0
   -1.1049    1.8485    0.0000 C   0  0  0  0  0  0  0  0  0
   -1.1049    2.6735    0.0000 N   0  0  0  0  0  0  0  0  0
   -0.3904    3.0860    0.0000 C   0  0  0  0  0  0  0  0  0
   -0.3904    3.9110    0.0000 N   0  0  0  0  0  0  0  0  0
   -1.8194    1.4360    0.0000 N   0  0  0  0  0  0  0  0  0
   -1.8194    0.6110    0.0000 C   0  0  0  0  0  0  0  0  0
   -2.5339    0.1985    0.0000 C   0  0  0  0  0  0  0  0  0
   -3.2483    0.6110    0.0000 N   0  0  0  0  0  0  0  0  0
   -3.2483    1.4360    0.0000 C   0  0  0  0  0  0  0  0  0
   -2.5339    1.8485    0.0000 C   0  0  0  0  0  0  0  0  0
   -3.9628    0.1985    0.0000 C   0  0  0  0  0  0  0  0  0
    1.0385    1.4360    0.0000 C   0  0  0  0  0  0  0  0  0
    1.7530    1.8485    0.0000 C   0  0  0  0  0  0  0  0  0
    2.4674    1.4360    0.0000 C   0  0  0  0  0  0  0  0  0
    2.4674    0.6110    0.0000 C   0  0  0  0  0  0  0  0  0
    1.7530    0.1985    0.0000 C   0  0  0  0  0  0  0  0  0
    1.0385    0.6110    0.0000 C   0  0  0  0  0  0  0  0  0
    3.1819    0.1985    0.0000 C   0  0  0  0  0  0  0  0  0
    3.8964   -0.2140    0.0000 N   0  0  0  0  0  0  0  0  0
  1  2  4  0  0  0  0
  1  6  4  0  0  0  0
  2  3  4  0  0  0  0
  2 15  1  0  0  0  0
  3  4  4  0  0  0  0
  4  5  4  0  0  0  0
  4  8  1  0  0  0  0
  5  6  4  0  0  0  0
  6  7  1  0  0  0  0
  8  9  1  0  0  0  0
  8 13  1  0  0  0  0
  9 10  1  0  0  0  0
 10 11  1  0  0  0  0
 11 12  1  0  0  0  0
 11 14  1  0  0  0  0
 12 13  1  0  0  0  0
 15 16  4  0  0  0  0
 15 20  4  0  0  0  0
 16 17  4  0  0  0  0
 17 18  4  0  0  0  0
 18 19  4  0  0  0  0
 18 21  1  0  0  0  0
 19 20  4  0  0  0  0
 21 22  3  0  0  0  0
M  END
>  <Name_Molregno>
469398

>  <HISTAMINE H3>
5.89

>  <HISTAMINE H4>
7.46

$$$$
469480
  Marvin  02231216192D 0   1.00000     0.00000     0

 21 23  0  0  0  0  0  0  0  0999 V2000
    0.0071    2.4811    0.0000 N   0  0  0  0  0  0  0  0  0
    0.0071    1.6561    0.0000 C   0  0  0  0  0  0  0  0  0
   -0.7074    1.2436    0.0000 C   0  0  0  0  0  0  0  0  0
   -1.4219    1.6561    0.0000 C   0  0  0  0  0  0  0  0  0
   -1.4219    2.4811    0.0000 N   0  0  0  0  0  0  0  0  0
   -0.7074    2.8936    0.0000 C   0  0  0  0  0  0  0  0  0
   -0.7074    3.7186    0.0000 N   0  0  0  0  0  0  0  0  0
   -2.1364    1.2436    0.0000 N   0  0  0  0  0  0  0  0  0
   -2.1364    0.4186    0.0000 C   0  0  0  0  0  0  0  0  0
   -2.8508    0.0061    0.0000 C   0  0  0  0  0  0  0  0  0
   -3.5653    0.4186    0.0000 N   0  0  0  0  0  0  0  0  0
   -3.5653    1.2436    0.0000 C   0  0  0  0  0  0  0  0  0
   -2.8508    1.6561    0.0000 C   0  0  0  0  0  0  0  0  0
    0.7215    1.2436    0.0000 C   0  0  0  0  0  0  0  0  0
    1.4360    1.6561    0.0000 C   0  0  0  0  0  0  0  0  0
    2.1505    1.2436    0.0000 C   0  0  0  0  0  0  0  0  0
    2.1505    0.4186    0.0000 C   0  0  0  0  0  0  0  0  0
    1.4360    0.0061    0.0000 C   0  0  0  0  0  0  0  0  0
    0.7215    0.4186    0.0000 C   0  0  0  0  0  0  0  0  0
    2.8649    0.0061    0.0000 C   0  0  0  0  0  0  0  0  0
    3.5794   -0.4064    0.0000 N   0  0  0  0  0  0  0  0  0
  1  2  4  0  0  0  0
  1  6  4  0  0  0  0
  2  3  4  0  0  0  0
  2 14  1  0  0  0  0
  3  4  4  0  0  0  0
  4  5  4  0  0  0  0
  4  8  1  0  0  0  0
  5  6  4  0  0  0  0
  6  7  1  0  0  0  0
  8  9  1  0  0  0  0
  8 13  1  0  0  0  0
  9 10  1  0  0  0  0
 10 11  1  0  0  0  0
 11 12  1  0  0  0  0
 12 13  1  0  0  0  0
 14 15  4  0  0  0  0
 14 19  4  0  0  0  0
 15 16  4  0  0  0  0
 16 17  4  0  0  0  0
 17 18  4  0  0  0  0
 17 20  1  0  0  0  0
 18 19  4  0  0  0  0
 20 21  3  0  0  0  0
M  END
>  <Name_Molregno>
469480

>  <HISTAMINE H3>
6.03

>  <HISTAMINE H4>
7.38

$$$$
469675
  Marvin  02231216192D 0   1.00000     0.00000     0

 15 16  0  0  0  0  0  0  0  0999 V2000
   -1.0090    1.6859    0.0000 N   0  0  0  0  0  0  0  0  0
   -1.0090    0.8609    0.0000 C   0  0  0  0  0  0  0  0  0
   -0.2945    0.4484    0.0000 N   0  0  0  0  0  0  0  0  0
    0.4199    0.8609    0.0000 C   0  0  0  0  0  0  0  0  0
    1.1344    0.4484    0.0000 C   0  0  0  0  0  0  0  0  0
    1.1344   -0.3766    0.0000 N   0  0  0  0  0  0  0  0  0
    0.4199   -0.7891    0.0000 C   0  0  0  0  0  0  0  0  0
   -0.2945   -0.3766    0.0000 C   0  0  0  0  0  0  0  0  0
    1.8489   -0.7891    0.0000 C   0  0  0  0  0  0  0  0  0
   -1.7235    0.4484    0.0000 C   0  0  0  0  0  0  0  0  0
   -2.4379    0.8609    0.0000 C   0  0  0  0  0  0  0  0  0
   -2.4379    1.6859    0.0000 N   0  0  0  0  0  0  0  0  0
   -1.7235    2.0984    0.0000 C   0  0  0  0  0  0  0  0  0
   -1.7235    2.9234    0.0000 N   0  0  0  0  0  0  0  0  0
   -3.1524    0.4484    0.0000 N   0  0  0  0  0  0  0  0  0
  1  2  4  0  0  0  0
  1 13  4  0  0  0  0
  2  3  1  0  0  0  0
  2 10  4  0  0  0  0
  3  4  1  0  0  0  0
  3  8  1  0  0  0  0
  4  5  1  0  0  0  0
  5  6  1  0  0  0  0
  6  7  1  0  0  0  0
  6  9  1  0  0  0  0
  7  8  1  0  0  0  0
 10 11  4  0  0  0  0
 11 12  4  0  0  0  0
 11 15  1  0  0  0  0
 12 13  4  0  0  0  0
 13 14  1  0  0  0  0
M  END
>  <Name_Molregno>
469675

>  <HISTAMINE H4>
6.54

$$$$
469878
  Marvin  02231216192D 0   1.00000     0.00000     0

 22 24  0  0  0  0  0  0  0  0999 V2000
    1.2526    3.0721    0.0000 N   0  0  0  0  0  0  0  0  0
    1.2526    2.2471    0.0000 C   0  0  0  0  0  0  0  0  0
    1.9670    1.8346    0.0000 N   0  0  0  0  0  0  0  0  0
    2.6815    2.2471    0.0000 C   0  0  0  0  0  0  0  0  0
    3.3960    1.8346    0.0000 C   0  0  0  0  0  0  0  0  0
    3.3960    1.0096    0.0000 N   0  0  0  0  0  0  0  0  0
    2.6815    0.5971    0.0000 C   0  0  0  0  0  0  0  0  0
    1.9670    1.0096    0.0000 C   0  0  0  0  0  0  0  0  0
    4.1104    0.5971    0.0000 C   0  0  0  0  0  0  0  0  0
    0.5381    1.8346    0.0000 C   0  0  0  0  0  0  0  0  0
   -0.1764    2.2471    0.0000 C   0  0  0  0  0  0  0  0  0
   -0.1764    3.0721    0.0000 N   0  0  0  0  0  0  0  0  0
    0.5381    3.4846    0.0000 C   0  0  0  0  0  0  0  0  0
    0.5381    4.3096    0.0000 N   0  0  0  0  0  0  0  0  0
   -0.8909    1.8346    0.0000 N   0  0  0  0  0  0  0  0  0
   -0.8909    1.0096    0.0000 C   0  0  0  0  0  0  0  0  0
   -1.6053    0.5971    0.0000 C   0  0  0  0  0  0  0  0  0
   -1.6053   -0.2279    0.0000 C   0  0  0  0  0  0  0  0  0
   -2.3198   -0.6404    0.0000 C   0  0  0  0  0  0  0  0  0
   -3.0343   -0.2279    0.0000 C   0  0  0  0  0  0  0  0  0
   -3.0343    0.5971    0.0000 C   0  0  0  0  0  0  0  0  0
   -2.3198    1.0096    0.0000 C   0  0  0  0  0  0  0  0  0
  1  2  4  0  0  0  0
  1 13  4  0  0  0  0
  2  3  1  0  0  0  0
  2 10  4  0  0  0  0
  3  4  1  0  0  0  0
  3  8  1  0  0  0  0
  4  5  1  0  0  0  0
  5  6  1  0  0  0  0
  6  7  1  0  0  0  0
  6  9  1  0  0  0  0
  7  8  1  0  0  0  0
 10 11  4  0  0  0  0
 11 12  4  0  0  0  0
 11 15  1  0  0  0  0
 12 13  4  0  0  0  0
 13 14  1  0  0  0  0
 15 16  1  0  0  0  0
 16 17  1  0  0  0  0
 17 18  4  0  0  0  0
 17 22  4  0  0  0  0
 18 19  4  0  0  0  0
 19 20  4  0  0  0  0
 20 21  4  0  0  0  0
 21 22  4  0  0  0  0
M  END
>  <Name_Molregno>
469878

>  <HISTAMINE H4>
7.01

$$$$
469880
  Marvin  02231216192D 0   1.00000     0.00000     0

 20 22  0  0  0  0  0  0  0  0999 V2000
    2.2182    1.7342    0.0000 N   0  0  0  0  0  0  0  0  0
    2.2182    0.9092    0.0000 C   0  0  0  0  0  0  0  0  0
    1.5037    0.4967    0.0000 C   0  0  0  0  0  0  0  0  0
    0.7892    0.9092    0.0000 C   0  0  0  0  0  0  0  0  0
    0.7892    1.7342    0.0000 N   0  0  0  0  0  0  0  0  0
    1.5037    2.1467    0.0000 C   0  0  0  0  0  0  0  0  0
    1.5037    2.9717    0.0000 N   0  0  0  0  0  0  0  0  0
    0.0748    0.4967    0.0000 N   0  0  0  0  0  0  0  0  0
    0.0748   -0.3283    0.0000 C   0  0  0  0  0  0  0  0  0
   -0.6397   -0.7408    0.0000 C   0  0  0  0  0  0  0  0  0
   -1.3542   -0.3283    0.0000 N   0  0  0  0  0  0  0  0  0
   -1.3542    0.4967    0.0000 C   0  0  0  0  0  0  0  0  0
   -0.6397    0.9092    0.0000 C   0  0  0  0  0  0  0  0  0
   -2.0686   -0.7408    0.0000 C   0  0  0  0  0  0  0  0  0
    2.9326    0.4967    0.0000 C   0  0  0  0  0  0  0  0  0
    3.6471    0.9092    0.0000 C   0  0  0  0  0  0  0  0  0
    4.3616    0.4967    0.0000 C   0  0  0  0  0  0  0  0  0
    4.3616   -0.3283    0.0000 C   0  0  0  0  0  0  0  0  0
    3.6471   -0.7408    0.0000 C   0  0  0  0  0  0  0  0  0
    2.9326   -0.3283    0.0000 C   0  0  0  0  0  0  0  0  0
  1  2  4  0  0  0  0
  1  6  4  0  0  0  0
  2  3  4  0  0  0  0
  2 15  1  0  0  0  0
  3  4  4  0  0  0  0
  4  5  4  0  0  0  0
  4  8  1  0  0  0  0
  5  6  4  0  0  0  0
  6  7  1  0  0  0  0
  8  9  1  0  0  0  0
  8 13  1  0  0  0  0
  9 10  1  0  0  0  0
 10 11  1  0  0  0  0
 11 12  1  0  0  0  0
 11 14  1  0  0  0  0
 12 13  1  0  0  0  0
 15 16  4  0  0  0  0
 15 20  4  0  0  0  0
 16 17  4  0  0  0  0
 17 18  4  0  0  0  0
 18 19  4  0  0  0  0
 19 20  4  0  0  0  0
M  END
>  <Name_Molregno>
469880

>  <HISTAMINE H4>
8.3

$$$$
469955
  Marvin  02231216192D 0   1.00000     0.00000     0

 18 20  0  0  0  0  0  0  0  0999 V2000
    6.4556   -1.6343    0.0000 Cl  0  0  0  0  0  0  0  0  0
    5.7411   -1.2218    0.0000 C   0  0  0  0  0  0  0  0  0
    5.0266   -1.6343    0.0000 C   0  0  0  0  0  0  0  0  0
    4.3122   -1.2218    0.0000 C   0  0  0  0  0  0  0  0  0
    3.5275   -1.4768    0.0000 C   0  0  0  0  0  0  0  0  0
    3.0426   -0.8093    0.0000 C   0  0  0  0  0  0  0  0  0
    3.5275   -0.1419    0.0000 N   0  0  0  0  0  0  0  0  0
    4.3122   -0.3968    0.0000 C   0  0  0  0  0  0  0  0  0
    5.0266    0.0157    0.0000 C   0  0  0  0  0  0  0  0  0
    5.7411   -0.3968    0.0000 C   0  0  0  0  0  0  0  0  0
    2.2176   -0.8093    0.0000 C   0  0  0  0  0  0  0  0  0
    1.8051   -1.5238    0.0000 O   0  0  0  0  0  0  0  0  0
    1.8051   -0.0949    0.0000 N   0  0  0  0  0  0  0  0  0
    0.9801   -0.0949    0.0000 C   0  0  0  0  0  0  0  0  0
    0.5676    0.6196    0.0000 C   0  0  0  0  0  0  0  0  0
    0.9801    1.3341    0.0000 N   0  0  0  0  0  0  0  0  0
    1.8051    1.3341    0.0000 C   0  0  0  0  0  0  0  0  0
    2.2176    0.6196    0.0000 C   0  0  0  0  0  0  0  0  0
  1  2  1  0  0  0  0
  2  3  4  0  0  0  0
  2 10  4  0  0  0  0
  3  4  4  0  0  0  0
  4  5  4  0  0  0  0
  4  8  4  0  0  0  0
  5  6  4  0  0  0  0
  6  7  4  0  0  0  0
  6 11  1  0  0  0  0
  7  8  4  0  0  0  0
  8  9  4  0  0  0  0
  9 10  4  0  0  0  0
 11 12  2  0  0  0  0
 11 13  1  0  0  0  0
 13 14  1  0  0  0  0
 13 18  1  0  0  0  0
 14 15  1  0  0  0  0
 15 16  1  0  0  0  0
 16 17  1  0  0  0  0
 17 18  1  0  0  0  0
M  STY  1   1 DAT
M  SAL   1  1   7
M  SDT   1 MRV_IMPLICIT_H                                        
M  SDD   1     0.0000    0.0000    DR    ALL  0       0  
M  SED   1 IMPL_H1
M  END
>  <Name_Molregno>
469955

>  <HISTAMINE H4>
7.59

$$$$
470019
  Marvin  02231216192D 0   1.00000     0.00000     0

 22 25  0  0  0  0  0  0  0  0999 V2000
   -1.2657   -0.5488    0.0000 N   0  0  0  0  0  0  0  0  0
   -0.8532   -1.2633    0.0000 C   0  0  0  0  0  0  0  0  0
   -1.2657   -1.9778    0.0000 N   0  0  0  0  0  0  0  0  0
   -0.8532   -2.6923    0.0000 C   0  0  0  0  0  0  0  0  0
   -1.2657   -3.4067    0.0000 C   0  0  0  0  0  0  0  0  0
   -2.0907   -3.4067    0.0000 N   0  0  0  0  0  0  0  0  0
   -2.5032   -2.6923    0.0000 C   0  0  0  0  0  0  0  0  0
   -2.0907   -1.9778    0.0000 C   0  0  0  0  0  0  0  0  0
   -2.5032   -4.1212    0.0000 C   0  0  0  0  0  0  0  0  0
   -0.0282   -1.2633    0.0000 C   0  0  0  0  0  0  0  0  0
    0.3843   -1.9778    0.0000 C   0  0  0  0  0  0  0  0  0
    1.2093   -1.9778    0.0000 C   0  0  0  0  0  0  0  0  0
    1.6218   -1.2633    0.0000 C   0  0  0  0  0  0  0  0  0
    1.2093   -0.5488    0.0000 C   0  0  0  0  0  0  0  0  0
    0.3843   -0.5488    0.0000 C   0  0  0  0  0  0  0  0  0
   -0.0282    0.1656    0.0000 N   0  0  0  0  0  0  0  0  0
   -0.8532    0.1656    0.0000 C   0  0  0  0  0  0  0  0  0
   -1.2657    0.8801    0.0000 N   0  0  0  0  0  0  0  0  0
    1.6218    0.1656    0.0000 C   0  0  0  0  0  0  0  0  0
    2.4468    0.1656    0.0000 C   0  0  0  0  0  0  0  0  0
    2.8593   -0.5488    0.0000 C   0  0  0  0  0  0  0  0  0
    2.4468   -1.2633    0.0000 C   0  0  0  0  0  0  0  0  0
  1  2  4  0  0  0  0
  1 17  4  0  0  0  0
  2  3  1  0  0  0  0
  2 10  4  0  0  0  0
  3  4  1  0  0  0  0
  3  8  1  0  0  0  0
  4  5  1  0  0  0  0
  5  6  1  0  0  0  0
  6  7  1  0  0  0  0
  6  9  1  0  0  0  0
  7  8  1  0  0  0  0
 10 11  1  0  0  0  0
 10 15  4  0  0  0  0
 11 12  1  0  0  0  0
 12 13  1  0  0  0  0
 13 14  4  0  0  0  0
 13 22  4  0  0  0  0
 14 15  1  0  0  0  0
 14 19  4  0  0  0  0
 15 16  4  0  0  0  0
 16 17  4  0  0  0  0
 17 18  1  0  0  0  0
 19 20  4  0  0  0  0
 20 21  4  0  0  0  0
 21 22  4  0  0  0  0
M  END
>  <Name_Molregno>
470019

>  <HISTAMINE H4>
7.81

$$$$
470020
  Marvin  02231216192D 0   1.00000     0.00000     0

 21 24  0  0  0  0  0  0  0  0999 V2000
   -2.4845    0.0230    0.0000 N   0  0  0  0  0  0  0  0  0
   -2.0720   -0.6915    0.0000 C   0  0  0  0  0  0  0  0  0
   -2.4845   -1.4059    0.0000 N   0  0  0  0  0  0  0  0  0
   -2.0720   -2.1204    0.0000 C   0  0  0  0  0  0  0  0  0
   -2.4845   -2.8349    0.0000 C   0  0  0  0  0  0  0  0  0
   -3.3095   -2.8349    0.0000 N   0  0  0  0  0  0  0  0  0
   -3.7220   -2.1204    0.0000 C   0  0  0  0  0  0  0  0  0
   -3.3095   -1.4059    0.0000 C   0  0  0  0  0  0  0  0  0
   -1.2470   -0.6915    0.0000 C   0  0  0  0  0  0  0  0  0
   -0.8345   -1.4059    0.0000 C   0  0  0  0  0  0  0  0  0
   -0.0095   -1.4059    0.0000 C   0  0  0  0  0  0  0  0  0
    0.4030   -0.6915    0.0000 C   0  0  0  0  0  0  0  0  0
   -0.0095    0.0230    0.0000 C   0  0  0  0  0  0  0  0  0
   -0.8345    0.0230    0.0000 C   0  0  0  0  0  0  0  0  0
   -1.2470    0.7375    0.0000 N   0  0  0  0  0  0  0  0  0
   -2.0720    0.7375    0.0000 C   0  0  0  0  0  0  0  0  0
   -2.4845    1.4519    0.0000 N   0  0  0  0  0  0  0  0  0
    0.4030    0.7375    0.0000 C   0  0  0  0  0  0  0  0  0
    1.2280    0.7375    0.0000 C   0  0  0  0  0  0  0  0  0
    1.6405    0.0230    0.0000 C   0  0  0  0  0  0  0  0  0
    1.2280   -0.6915    0.0000 C   0  0  0  0  0  0  0  0  0
  1  2  4  0  0  0  0
  1 16  4  0  0  0  0
  2  3  1  0  0  0  0
  2  9  4  0  0  0  0
  3  4  1  0  0  0  0
  3  8  1  0  0  0  0
  4  5  1  0  0  0  0
  5  6  1  0  0  0  0
  6  7  1  0  0  0  0
  7  8  1  0  0  0  0
  9 10  1  0  0  0  0
  9 14  4  0  0  0  0
 10 11  1  0  0  0  0
 11 12  1  0  0  0  0
 12 13  4  0  0  0  0
 12 21  4  0  0  0  0
 13 14  1  0  0  0  0
 13 18  4  0  0  0  0
 14 15  4  0  0  0  0
 15 16  4  0  0  0  0
 16 17  1  0  0  0  0
 18 19  4  0  0  0  0
 19 20  4  0  0  0  0
 20 21  4  0  0  0  0
M  END
>  <Name_Molregno>
470020

>  <HISTAMINE H4>
7.28

$$$$
470021
  Marvin  02231216192D 0   1.00000     0.00000     0

 20 23  0  0  0  0  0  0  0  0999 V2000
   -0.7163   -0.7155    0.0000 N   0  0  0  0  0  0  0  0  0
   -0.1643   -1.3286    0.0000 C   0  0  0  0  0  0  0  0  0
   -0.4192   -2.1132    0.0000 N   0  0  0  0  0  0  0  0  0
    0.1328   -2.7263    0.0000 C   0  0  0  0  0  0  0  0  0
   -0.1221   -3.5109    0.0000 C   0  0  0  0  0  0  0  0  0
   -0.9291   -3.6824    0.0000 N   0  0  0  0  0  0  0  0  0
   -1.4811   -3.0694    0.0000 C   0  0  0  0  0  0  0  0  0
   -1.2262   -2.2847    0.0000 C   0  0  0  0  0  0  0  0  0
    0.6427   -1.1571    0.0000 C   0  0  0  0  0  0  0  0  0
    1.3101   -1.6420    0.0000 C   0  0  0  0  0  0  0  0  0
    1.9776   -1.1571    0.0000 C   0  0  0  0  0  0  0  0  0
    1.7226   -0.3724    0.0000 C   0  0  0  0  0  0  0  0  0
    0.8976   -0.3724    0.0000 C   0  0  0  0  0  0  0  0  0
    0.3456    0.2407    0.0000 N   0  0  0  0  0  0  0  0  0
   -0.4614    0.0691    0.0000 C   0  0  0  0  0  0  0  0  0
   -1.0134    0.6822    0.0000 N   0  0  0  0  0  0  0  0  0
    2.2747    0.2407    0.0000 C   0  0  0  0  0  0  0  0  0
    3.0816    0.0691    0.0000 C   0  0  0  0  0  0  0  0  0
    3.3366   -0.7155    0.0000 C   0  0  0  0  0  0  0  0  0
    2.7845   -1.3286    0.0000 C   0  0  0  0  0  0  0  0  0
  1  2  4  0  0  0  0
  1 15  4  0  0  0  0
  2  3  1  0  0  0  0
  2  9  4  0  0  0  0
  3  4  1  0  0  0  0
  3  8  1  0  0  0  0
  4  5  1  0  0  0  0
  5  6  1  0  0  0  0
  6  7  1  0  0  0  0
  7  8  1  0  0  0  0
  9 10  1  0  0  0  0
  9 13  4  0  0  0  0
 10 11  1  0  0  0  0
 11 12  4  0  0  0  0
 11 20  4  0  0  0  0
 12 13  1  0  0  0  0
 12 17  4  0  0  0  0
 13 14  4  0  0  0  0
 14 15  4  0  0  0  0
 15 16  1  0  0  0  0
 17 18  4  0  0  0  0
 18 19  4  0  0  0  0
 19 20  4  0  0  0  0
M  END
>  <Name_Molregno>
470021

>  <HISTAMINE H4>
7.89

$$$$
470022
  Marvin  02231216192D 0   1.00000     0.00000     0

 22 25  0  0  0  0  0  0  0  0999 V2000
   -1.9985   -1.9836    0.0000 N   0  0  0  0  0  0  0  0  0
   -1.6971   -1.2157    0.0000 C   0  0  0  0  0  0  0  0  0
   -2.2114   -0.5706    0.0000 N   0  0  0  0  0  0  0  0  0
   -3.0272   -0.6936    0.0000 C   0  0  0  0  0  0  0  0  0
   -3.5416   -0.0486    0.0000 C   0  0  0  0  0  0  0  0  0
   -3.2402    0.7194    0.0000 N   0  0  0  0  0  0  0  0  0
   -2.4244    0.8423    0.0000 C   0  0  0  0  0  0  0  0  0
   -1.9100    0.1973    0.0000 C   0  0  0  0  0  0  0  0  0
   -0.8813   -1.0927    0.0000 C   0  0  0  0  0  0  0  0  0
   -0.6977   -0.2884    0.0000 C   0  0  0  0  0  0  0  0  0
    0.0456    0.0696    0.0000 C   0  0  0  0  0  0  0  0  0
    0.7889   -0.2884    0.0000 C   0  0  0  0  0  0  0  0  0
    0.9725   -1.0927    0.0000 C   0  0  0  0  0  0  0  0  0
    0.4581   -1.7377    0.0000 C   0  0  0  0  0  0  0  0  0
   -0.3669   -1.7377    0.0000 C   0  0  0  0  0  0  0  0  0
   -0.6683   -2.5057    0.0000 N   0  0  0  0  0  0  0  0  0
   -1.4841   -2.6286    0.0000 C   0  0  0  0  0  0  0  0  0
   -1.7855   -3.3966    0.0000 N   0  0  0  0  0  0  0  0  0
    0.7595   -2.5057    0.0000 C   0  0  0  0  0  0  0  0  0
    1.5753   -2.6286    0.0000 C   0  0  0  0  0  0  0  0  0
    2.0897   -1.9836    0.0000 C   0  0  0  0  0  0  0  0  0
    1.7883   -1.2157    0.0000 C   0  0  0  0  0  0  0  0  0
  1  2  4  0  0  0  0
  1 17  4  0  0  0  0
  2  3  1  0  0  0  0
  2  9  4  0  0  0  0
  3  4  1  0  0  0  0
  3  8  1  0  0  0  0
  4  5  1  0  0  0  0
  5  6  1  0  0  0  0
  6  7  1  0  0  0  0
  7  8  1  0  0  0  0
  9 10  1  0  0  0  0
  9 15  4  0  0  0  0
 10 11  1  0  0  0  0
 11 12  1  0  0  0  0
 12 13  1  0  0  0  0
 13 14  4  0  0  0  0
 13 22  4  0  0  0  0
 14 15  1  0  0  0  0
 14 19  4  0  0  0  0
 15 16  4  0  0  0  0
 16 17  4  0  0  0  0
 17 18  1  0  0  0  0
 19 20  4  0  0  0  0
 20 21  4  0  0  0  0
 21 22  4  0  0  0  0
M  END
>  <Name_Molregno>
470022

>  <HISTAMINE H4>
7.15

$$$$
470023
  Marvin  02231216192D 0   1.00000     0.00000     0

 22 25  0  0  1  0  0  0  0  0999 V2000
   -1.9236   -1.9456    0.0000 N   0  0  0  0  0  0  0  0  0
   -1.6222   -1.1776    0.0000 C   0  0  0  0  0  0  0  0  0
   -2.1366   -0.5326    0.0000 N   0  0  0  0  0  0  0  0  0
   -2.9607   -0.5696    0.0000 C   0  0  0  0  0  0  0  0  0
   -3.2506    0.2028    0.0000 C   0  0  0  0  0  0  0  0  0
   -4.0459    0.4223    0.0000 N   0  0  0  0  0  0  0  0  0
   -2.6056    0.7172    0.0000 C   0  0  0  0  0  0  0  0  0
   -1.9171    0.2627    0.0000 C   0  0  0  0  0  0  0  0  0
   -0.8064   -1.0546    0.0000 C   0  0  0  0  0  0  0  0  0
   -0.6228   -0.2503    0.0000 C   0  0  0  0  0  0  0  0  0
    0.1205    0.1076    0.0000 C   0  0  0  0  0  0  0  0  0
    0.8638   -0.2503    0.0000 C   0  0  0  0  0  0  0  0  0
    1.0474   -1.0546    0.0000 C   0  0  0  0  0  0  0  0  0
    0.5330   -1.6997    0.0000 C   0  0  0  0  0  0  0  0  0
   -0.2920   -1.6997    0.0000 C   0  0  0  0  0  0  0  0  0
   -0.5934   -2.4676    0.0000 N   0  0  0  0  0  0  0  0  0
   -1.4092   -2.5906    0.0000 C   0  0  0  0  0  0  0  0  0
   -1.7106   -3.3586    0.0000 N   0  0  0  0  0  0  0  0  0
    0.8344   -2.4676    0.0000 C   0  0  0  0  0  0  0  0  0
    1.6502   -2.5906    0.0000 C   0  0  0  0  0  0  0  0  0
    2.1646   -1.9456    0.0000 C   0  0  0  0  0  0  0  0  0
    1.8631   -1.1776    0.0000 C   0  0  0  0  0  0  0  0  0
  1  2  4  0  0  0  0
  1 17  4  0  0  0  0
  2  3  1  0  0  0  0
  2  9  4  0  0  0  0
  3  4  1  0  0  0  0
  3  8  1  0  0  0  0
  4  5  1  0  0  0  0
  5  6  1  0  0  0  0
  5  7  1  0  0  0  0
  7  8  1  0  0  0  0
  9 10  1  0  0  0  0
  9 15  4  0  0  0  0
 10 11  1  0  0  0  0
 11 12  1  0  0  0  0
 12 13  1  0  0  0  0
 13 14  4  0  0  0  0
 13 22  4  0  0  0  0
 14 15  1  0  0  0  0
 14 19  4  0  0  0  0
 15 16  4  0  0  0  0
 16 17  4  0  0  0  0
 17 18  1  0  0  0  0
 19 20  4  0  0  0  0
 20 21  4  0  0  0  0
 21 22  4  0  0  0  0
M  END
>  <Name_Molregno>
470023

>  <HISTAMINE H4>
8.33

$$$$
470024
  Marvin  02231216192D 0   1.00000     0.00000     0

 23 26  0  0  1  0  0  0  0  0999 V2000
   -1.6003   -2.0862    0.0000 N   0  0  0  0  0  0  0  0  0
   -1.2989   -1.3182    0.0000 C   0  0  0  0  0  0  0  0  0
   -1.8133   -0.6732    0.0000 N   0  0  0  0  0  0  0  0  0
   -2.6375   -0.7102    0.0000 C   0  0  0  0  0  0  0  0  0
   -2.9274    0.0622    0.0000 C   0  0  0  0  0  0  0  0  0
   -3.7226    0.2816    0.0000 N   0  0  0  0  0  0  0  0  0
   -3.9302    1.0801    0.0000 C   0  0  0  0  0  0  0  0  0
   -2.2824    0.5765    0.0000 C   0  0  0  0  0  0  0  0  0
   -1.5938    0.1221    0.0000 C   0  0  0  0  0  0  0  0  0
   -0.4832   -1.1953    0.0000 C   0  0  0  0  0  0  0  0  0
   -0.2996   -0.3910    0.0000 C   0  0  0  0  0  0  0  0  0
    0.4437   -0.0330    0.0000 C   0  0  0  0  0  0  0  0  0
    1.1870   -0.3910    0.0000 C   0  0  0  0  0  0  0  0  0
    1.3706   -1.1953    0.0000 C   0  0  0  0  0  0  0  0  0
    0.8562   -1.8403    0.0000 C   0  0  0  0  0  0  0  0  0
    0.0312   -1.8403    0.0000 C   0  0  0  0  0  0  0  0  0
   -0.2702   -2.6083    0.0000 N   0  0  0  0  0  0  0  0  0
   -1.0860   -2.7312    0.0000 C   0  0  0  0  0  0  0  0  0
   -1.3874   -3.4992    0.0000 N   0  0  0  0  0  0  0  0  0
    1.1576   -2.6083    0.0000 C   0  0  0  0  0  0  0  0  0
    1.9734   -2.7312    0.0000 C   0  0  0  0  0  0  0  0  0
    2.4878   -2.0862    0.0000 C   0  0  0  0  0  0  0  0  0
    2.1864   -1.3182    0.0000 C   0  0  0  0  0  0  0  0  0
  1  2  4  0  0  0  0
  1 18  4  0  0  0  0
  2  3  1  0  0  0  0
  2 10  4  0  0  0  0
  3  4  1  0  0  0  0
  3  9  1  0  0  0  0
  4  5  1  0  0  0  0
  5  6  1  0  0  0  0
  5  8  1  0  0  0  0
  6  7  1  0  0  0  0
  8  9  1  0  0  0  0
 10 11  1  0  0  0  0
 10 16  4  0  0  0  0
 11 12  1  0  0  0  0
 12 13  1  0  0  0  0
 13 14  1  0  0  0  0
 14 15  4  0  0  0  0
 14 23  4  0  0  0  0
 15 16  1  0  0  0  0
 15 20  4  0  0  0  0
 16 17  4  0  0  0  0
 17 18  4  0  0  0  0
 18 19  1  0  0  0  0
 20 21  4  0  0  0  0
 21 22  4  0  0  0  0
 22 23  4  0  0  0  0
M  END
>  <Name_Molregno>
470024

>  <HISTAMINE H4>
8.46

$$$$
486166
  Marvin  02231216192D 0   1.00000     0.00000     0

 19 20  0  0  0  0  0  0  0  0999 V2000
   -1.2699    1.3764    0.0000 O   0  0  0  0  0  0  0  0  0
   -1.9844    0.9639    0.0000 C   0  0  0  0  0  0  0  0  0
   -2.6989    1.3764    0.0000 C   0  0  0  0  0  0  0  0  0
   -2.6989    2.2014    0.0000 C   0  0  0  0  0  0  0  0  0
   -2.6989    3.0264    0.0000 C   0  0  0  0  0  0  0  0  0
   -3.5239    2.2014    0.0000 C   0  0  0  0  0  0  0  0  0
   -1.8739    2.2014    0.0000 C   0  0  0  0  0  0  0  0  0
   -1.9844    0.1389    0.0000 C   0  0  0  0  0  0  0  0  0
   -1.2699   -0.2736    0.0000 C   0  0  0  0  0  0  0  0  0
   -1.2699   -1.0986    0.0000 C   0  0  0  0  0  0  0  0  0
   -1.9844   -1.5111    0.0000 C   0  0  0  0  0  0  0  0  0
   -2.6989   -1.0986    0.0000 C   0  0  0  0  0  0  0  0  0
   -2.6989   -0.2736    0.0000 C   0  0  0  0  0  0  0  0  0
   -0.5555   -1.5111    0.0000 C   0  0  0  0  0  0  0  0  0
   -0.5555   -2.3361    0.0000 C   0  0  0  0  0  0  0  0  0
    0.1120   -2.8210    0.0000 N   0  0  0  0  0  0  0  0  0
   -0.1430   -3.6057    0.0000 C   0  0  0  0  0  0  0  0  0
   -0.9680   -3.6057    0.0000 N   0  0  0  0  0  0  0  0  0
   -1.2229   -2.8210    0.0000 C   0  0  0  0  0  0  0  0  0
  1  2  2  0  0  0  0
  2  3  1  0  0  0  0
  2  8  1  0  0  0  0
  3  4  1  0  0  0  0
  4  5  1  0  0  0  0
  4  6  1  0  0  0  0
  4  7  1  0  0  0  0
  8  9  4  0  0  0  0
  8 13  4  0  0  0  0
  9 10  4  0  0  0  0
 10 11  4  0  0  0  0
 10 14  1  0  0  0  0
 11 12  4  0  0  0  0
 12 13  4  0  0  0  0
 14 15  1  0  0  0  0
 15 16  4  0  0  0  0
 15 19  4  0  0  0  0
 16 17  4  0  0  0  0
 17 18  4  0  0  0  0
 18 19  4  0  0  0  0
M  STY  1   1 DAT
M  SAL   1  1  18
M  SDT   1 MRV_IMPLICIT_H                                        
M  SDD   1     0.0000    0.0000    DR    ALL  0       0  
M  SED   1 IMPL_H1
M  END
>  <Name_Molregno>
486166

>  <HISTAMINE H3>
7.49

>  <HISTAMINE H4>
8.25

$$$$
486167
  Marvin  02231216192D 0   1.00000     0.00000     0

 18 19  0  0  0  0  0  0  0  0999 V2000
    2.0109   -3.7398    0.0000 N   0  0  0  0  0  0  0  0  0
    1.7559   -2.9552    0.0000 C   0  0  0  0  0  0  0  0  0
    2.4234   -2.4702    0.0000 C   0  0  0  0  0  0  0  0  0
    3.0908   -2.9552    0.0000 N   0  0  0  0  0  0  0  0  0
    2.8359   -3.7398    0.0000 C   0  0  0  0  0  0  0  0  0
    2.4234   -1.6452    0.0000 C   0  0  0  0  0  0  0  0  0
    3.1378   -1.2327    0.0000 C   0  0  0  0  0  0  0  0  0
    3.1378   -0.4077    0.0000 C   0  0  0  0  0  0  0  0  0
    3.8523    0.0048    0.0000 C   0  0  0  0  0  0  0  0  0
    4.5668   -0.4077    0.0000 C   0  0  0  0  0  0  0  0  0
    4.5668   -1.2327    0.0000 C   0  0  0  0  0  0  0  0  0
    3.8523   -1.6452    0.0000 C   0  0  0  0  0  0  0  0  0
    3.8523    0.8298    0.0000 C   0  0  0  0  0  0  0  0  0
    3.8523    1.6548    0.0000 C   0  0  0  0  0  0  0  0  0
    3.8523    2.4798    0.0000 C   0  0  0  0  0  0  0  0  0
    3.8523    3.3048    0.0000 C   0  0  0  0  0  0  0  0  0
    4.6773    2.4798    0.0000 C   0  0  0  0  0  0  0  0  0
    3.0273    2.4798    0.0000 C   0  0  0  0  0  0  0  0  0
  1  2  4  0  0  0  0
  1  5  4  0  0  0  0
  2  3  4  0  0  0  0
  3  4  4  0  0  0  0
  3  6  1  0  0  0  0
  4  5  4  0  0  0  0
  6  7  1  0  0  0  0
  7  8  4  0  0  0  0
  7 12  4  0  0  0  0
  8  9  4  0  0  0  0
  9 10  4  0  0  0  0
  9 13  1  0  0  0  0
 10 11  4  0  0  0  0
 11 12  4  0  0  0  0
 13 14  3  0  0  0  0
 14 15  1  0  0  0  0
 15 16  1  0  0  0  0
 15 17  1  0  0  0  0
 15 18  1  0  0  0  0
M  STY  1   1 DAT
M  SAL   1  1   1
M  SDT   1 MRV_IMPLICIT_H                                        
M  SDD   1     0.0000    0.0000    DR    ALL  0       0  
M  SED   1 IMPL_H1
M  END
>  <Name_Molregno>
486167

>  <HISTAMINE H3>
8.35

>  <HISTAMINE H4>
8.25

$$$$
486294
  Marvin  02231216192D 0   1.00000     0.00000     0

 21 23  0  0  1  0  0  0  0  0999 V2000
    1.8138    1.8525    0.0000 O   0  0  0  0  0  0  0  0  0
    1.0994    1.4400    0.0000 C   0  0  0  0  0  0  0  0  0
    0.3849    1.8525    0.0000 N   0  0  0  0  0  0  0  0  0
    0.3849    2.6775    0.0000 C   0  0  0  0  0  0  0  0  0
    1.0994    3.0900    0.0000 C   0  0  0  0  0  0  0  0  0
    1.8138    2.6775    0.0000 C   0  0  0  0  0  0  0  0  0
    2.5283    3.0900    0.0000 C   0  0  0  0  0  0  0  0  0
   -0.4396    2.7063    0.0000 C   0  0  0  0  0  0  0  0  0
   -0.0523    3.3772    0.0000 C   0  0  0  0  0  0  0  0  0
    1.0994    0.6150    0.0000 C   0  0  0  0  0  0  0  0  0
    1.8138    0.2025    0.0000 C   0  0  0  0  0  0  0  0  0
    1.8138   -0.6225    0.0000 C   0  0  0  0  0  0  0  0  0
    1.0994   -1.0350    0.0000 C   0  0  0  0  0  0  0  0  0
    0.3849   -0.6225    0.0000 C   0  0  0  0  0  0  0  0  0
    0.3849    0.2025    0.0000 C   0  0  0  0  0  0  0  0  0
    2.5283   -1.0350    0.0000 C   0  0  0  0  0  0  0  0  0
    2.5283   -1.8600    0.0000 C   0  0  0  0  0  0  0  0  0
    3.1957   -2.3449    0.0000 N   0  0  0  0  0  0  0  0  0
    2.9408   -3.1295    0.0000 C   0  0  0  0  0  0  0  0  0
    2.1158   -3.1295    0.0000 N   0  0  0  0  0  0  0  0  0
    1.8609   -2.3449    0.0000 C   0  0  0  0  0  0  0  0  0
  1  2  1  0  0  0  0
  1  6  1  0  0  0  0
  2  3  2  0  0  0  0
  2 10  1  0  0  0  0
  3  4  1  0  0  0  0
  4  5  1  0  0  0  0
  4  8  1  0  0  0  0
  4  9  1  0  0  0  0
  5  6  1  0  0  0  0
  6  7  1  0  0  0  0
 10 11  4  0  0  0  0
 10 15  4  0  0  0  0
 11 12  4  0  0  0  0
 12 13  4  0  0  0  0
 12 16  1  0  0  0  0
 13 14  4  0  0  0  0
 14 15  4  0  0  0  0
 16 17  1  0  0  0  0
 17 18  4  0  0  0  0
 17 21  4  0  0  0  0
 18 19  4  0  0  0  0
 19 20  4  0  0  0  0
 20 21  4  0  0  0  0
M  STY  1   1 DAT
M  SAL   1  1  20
M  SDT   1 MRV_IMPLICIT_H                                        
M  SDD   1     0.0000    0.0000    DR    ALL  0       0  
M  SED   1 IMPL_H1
M  END
>  <Name_Molregno>
486294

>  <HISTAMINE H3>
8.9

>  <HISTAMINE H4>
8.08

$$$$
486862
  Marvin  02231216192D 0   1.00000     0.00000     0

 21 22  0  0  0  0  0  0  0  0999 V2000
    0.0055    0.7460    0.0000 I   0  0  0  0  0  0  0  0  0
    0.7200    0.3335    0.0000 C   0  0  0  0  0  0  0  0  0
    1.4345    0.7460    0.0000 C   0  0  0  0  0  0  0  0  0
    2.1489    0.3335    0.0000 C   0  0  0  0  0  0  0  0  0
    2.1489   -0.4915    0.0000 C   0  0  0  0  0  0  0  0  0
    1.4345   -0.9040    0.0000 C   0  0  0  0  0  0  0  0  0
    0.7200   -0.4915    0.0000 C   0  0  0  0  0  0  0  0  0
    2.8634   -0.9040    0.0000 C   0  0  0  0  0  0  0  0  0
    3.5779   -0.4915    0.0000 C   0  0  0  0  0  0  0  0  0
    4.2923   -0.9040    0.0000 N   0  0  0  0  0  0  0  0  0
    5.0068   -0.4915    0.0000 C   0  0  0  0  0  0  0  0  0
    5.7213   -0.9040    0.0000 S   0  0  0  0  0  0  0  0  0
    6.4358   -0.4915    0.0000 C   0  0  0  0  0  0  0  0  0
    7.1502   -0.9040    0.0000 C   0  0  0  0  0  0  0  0  0
    7.8647   -0.4915    0.0000 C   0  0  0  0  0  0  0  0  0
    8.5792   -0.9040    0.0000 C   0  0  0  0  0  0  0  0  0
    9.3328   -0.5684    0.0000 N   0  0  0  0  0  0  0  0  0
    9.8849   -1.1815    0.0000 C   0  0  0  0  0  0  0  0  0
    9.4724   -1.8960    0.0000 N   0  0  0  0  0  0  0  0  0
    8.6654   -1.7245    0.0000 C   0  0  0  0  0  0  0  0  0
    5.0068    0.3335    0.0000 N   0  0  0  0  0  0  0  0  0
  1  2  1  0  0  0  0
  2  3  4  0  0  0  0
  2  7  4  0  0  0  0
  3  4  4  0  0  0  0
  4  5  4  0  0  0  0
  5  6  4  0  0  0  0
  5  8  1  0  0  0  0
  6  7  4  0  0  0  0
  8  9  1  0  0  0  0
  9 10  1  0  0  0  0
 10 11  1  0  0  0  0
 11 12  1  0  0  0  0
 11 21  2  0  0  0  0
 12 13  1  0  0  0  0
 13 14  1  0  0  0  0
 14 15  1  0  0  0  0
 15 16  1  0  0  0  0
 16 17  4  0  0  0  0
 16 20  4  0  0  0  0
 17 18  4  0  0  0  0
 18 19  4  0  0  0  0
 19 20  4  0  0  0  0
M  STY  1   1 DAT
M  SAL   1  1  19
M  SDT   1 MRV_IMPLICIT_H                                        
M  SDD   1     0.0000    0.0000    DR    ALL  0       0  
M  SED   1 IMPL_H1
M  END
>  <Name_Molregno>
486862

>  <HISTAMINE H3>
8.1

>  <HISTAMINE H4>
7.95

$$$$
513010
  Marvin  02231216192D 0   1.00000     0.00000     0

 22 24  0  0  1  0  0  0  0  0999 V2000
   -0.2296   -0.4433    0.0000 O   0  0  0  0  0  0  0  0  0
    0.5954   -0.4441    0.0000 C   0  0  0  0  0  0  0  0  0
    1.0086    0.2700    0.0000 O   0  0  0  0  0  0  0  0  0
    1.0072   -1.1590    0.0000 C   0  0  0  0  0  0  0  0  0
    1.8322   -1.1598    0.0000 C   0  0  0  0  0  0  0  0  0
    2.2440   -1.8747    0.0000 C   0  0  0  0  0  0  0  0  0
    1.8308   -2.5887    0.0000 C   0  0  0  0  0  0  0  0  0
    1.0058   -2.5879    0.0000 C   0  0  0  0  0  0  0  0  0
    0.5940   -1.8730    0.0000 C   0  0  0  0  0  0  0  0  0
   -0.6414    0.2716    0.0000 C   0  0  0  0  0  0  0  0  0
   -0.7796    1.0890    0.0000 C   0  0  0  0  0  0  0  0  0
   -1.7084    1.0735    0.0000 C   0  0  0  0  0  0  0  0  0
   -2.2690    1.5134    0.0000 N   0  0  0  0  0  0  0  0  0
   -2.1293    0.7003    0.0000 C   0  0  0  0  0  0  0  0  0
   -2.6492   -0.0120    0.0000 C   0  0  0  0  0  0  0  0  0
   -2.0289    0.3649    0.0000 C   0  0  0  0  0  0  0  0  0
   -1.1576    0.7003    0.0000 C   0  0  0  0  0  0  0  0  0
   -1.4378   -0.0757    0.0000 C   0  0  0  0  0  0  0  0  0
   -2.2499   -0.2210    0.0000 O   0  0  0  0  0  0  0  0  0
   -2.5301   -0.9969    0.0000 C   0  0  0  0  0  0  0  0  0
   -0.9059   -0.7063    0.0000 O   0  0  0  0  0  0  0  0  0
   -2.6916    2.2219    0.0000 C   0  0  0  0  0  0  0  0  0
  1  2  1  0  0  0  0
  1 10  1  0  0  0  0
  2  3  2  0  0  0  0
  2  4  1  0  0  0  0
  4  5  4  0  0  0  0
  4  9  4  0  0  0  0
  5  6  4  0  0  0  0
  6  7  4  0  0  0  0
  7  8  4  0  0  0  0
  8  9  4  0  0  0  0
 10 11  1  0  0  0  0
 10 17  1  0  0  0  0
 11 12  1  0  0  0  0
 12 13  1  0  0  0  0
 12 16  1  0  0  0  0
 13 14  1  0  0  0  0
 13 22  1  0  0  0  0
 14 15  1  0  0  0  0
 14 17  1  0  0  0  0
 15 16  1  0  0  0  0
 17 18  1  0  0  0  0
 18 19  1  0  0  0  0
 18 21  2  0  0  0  0
 19 20  1  0  0  0  0
M  END
>  <Name_Molregno>
513010

>  <5-HT1A>
5

>  <5-HT1B>
5.47

>  <5-HT1D>
5

>  <5-HT1E>
5

>  <5-HT3>
5.31

>  <5-HT5>
5

>  <5-HT6>
5

>  <5-HT7>
5

>  <Alpha-1A>
5.68

>  <Alpha-1B>
5

>  <Alpha-2A>
5

>  <Alpha-2C>
5

>  <Beta-1>
5

>  <Beta-2>
5

>  <DOPAMINE D1>
5

>  <DOPAMINE D2>
5

>  <DOPAMINE D4>
5

>  <DOPAMINE D5>
5

>  <Dopamine transporter>
6.67

>  <HISTAMINE H1>
5.67

>  <HISTAMINE H2>
5

>  <HISTAMINE H4>
5

>  <Muscarinic acetylcholine receptor M1>
5

>  <Muscarinic acetylcholine receptor M2>
5

>  <Muscarinic acetylcholine receptor M3>
5

>  <Muscarinic acetylcholine receptor M4>
5

>  <Muscarinic acetylcholine receptor M5>
5

>  <Norepinephrine transporter>
5.76

>  <Serotonin transporter>
6.68

$$$$
515852
  Marvin  02231216192D 0   1.00000     0.00000     0

 24 28  0  0  1  0  0  0  0  0999 V2000
    3.5696   -0.3324    0.0000 O   0  0  0  0  0  0  0  0  0
    3.9434   -1.0678    0.0000 C   0  0  0  0  0  0  0  0  0
    3.3594   -1.6506    0.0000 C   0  0  0  0  0  0  0  0  0
    2.6247   -1.2753    0.0000 C   0  0  0  0  0  0  0  0  0
    2.7546   -0.4606    0.0000 C   0  0  0  0  0  0  0  0  0
    2.1140    0.0593    0.0000 C   0  0  0  0  0  0  0  0  0
    1.3435   -0.2355    0.0000 C   0  0  0  0  0  0  0  0  0
    1.2136   -1.0502    0.0000 C   0  0  0  0  0  0  0  0  0
    1.8542   -1.5701    0.0000 C   0  0  0  0  0  0  0  0  0
    1.7243   -2.3848    0.0000 N   0  0  0  0  0  0  0  0  0
    0.9537   -2.6797    0.0000 C   0  0  0  0  0  0  0  0  0
    0.3131   -2.1598    0.0000 N   0  0  0  0  0  0  0  0  0
    0.4431   -1.3451    0.0000 C   0  0  0  0  0  0  0  0  0
   -0.1975   -0.8252    0.0000 N   0  0  0  0  0  0  0  0  0
   -0.9680   -1.1201    0.0000 C   0  0  0  0  0  0  0  0  0
   -1.6086   -0.6002    0.0000 C   0  0  0  0  0  0  0  0  0
   -1.4787    0.2145    0.0000 N   0  0  0  0  0  0  0  0  0
   -0.7082    0.5094    0.0000 C   0  0  0  0  0  0  0  0  0
   -0.0676   -0.0105    0.0000 C   0  0  0  0  0  0  0  0  0
    0.8238   -3.4944    0.0000 N   0  0  0  0  0  0  0  0  0
    3.5721   -2.4477    0.0000 C   0  0  0  0  0  0  0  0  0
    4.3687   -2.6621    0.0000 C   0  0  0  0  0  0  0  0  0
    4.9527   -2.0793    0.0000 C   0  0  0  0  0  0  0  0  0
    4.7400   -1.2822    0.0000 C   0  0  0  0  0  0  0  0  0
  1  2  1  0  0  0  0
  1  5  1  0  0  0  0
  2  3  1  0  0  0  0
  2 24  1  0  0  0  0
  3  4  1  0  0  0  0
  3 21  1  0  0  0  0
  4  5  2  0  0  0  0
  4  9  1  0  0  0  0
  5  6  1  0  0  0  0
  6  7  1  0  0  0  0
  7  8  1  0  0  0  0
  8  9  4  0  0  0  0
  8 13  4  0  0  0  0
  9 10  4  0  0  0  0
 10 11  4  0  0  0  0
 11 12  4  0  0  0  0
 11 20  1  0  0  0  0
 12 13  4  0  0  0  0
 13 14  1  0  0  0  0
 14 15  1  0  0  0  0
 14 19  1  0  0  0  0
 15 16  1  0  0  0  0
 16 17  1  0  0  0  0
 17 18  1  0  0  0  0
 18 19  1  0  0  0  0
 21 22  1  0  0  0  0
 22 23  1  0  0  0  0
 23 24  1  0  0  0  0
M  END
>  <Name_Molregno>
515852

>  <5-HT1A>
9.18

>  <5-HT1B>
7.74

>  <5-HT2A>
8.89

>  <5-HT2C>
8.41

>  <5-HT3>
8.18

>  <5-HT5>
6.96

>  <5-HT6>
7.03

>  <5-HT7>
9.66

>  <Beta-1>
6.37

>  <Beta-2>
9.3

>  <DOPAMINE D1>
9.42

>  <DOPAMINE D2>
8.54

>  <DOPAMINE D3>
8.85

>  <DOPAMINE D5>
9.32

>  <Dopamine transporter>
8.05

>  <HISTAMINE H1>
7.05

>  <HISTAMINE H2>
5.91

>  <HISTAMINE H3>
6.03

>  <HISTAMINE H4>
8.24

>  <Muscarinic acetylcholine receptor M1>
7.6

>  <Muscarinic acetylcholine receptor M2>
7.44

>  <Muscarinic acetylcholine receptor M3>
9.38

>  <Muscarinic acetylcholine receptor M4>
9.18

>  <Muscarinic acetylcholine receptor M5>
9.38

>  <Norepinephrine transporter>
8.17

>  <Serotonin transporter>
8.49

$$$$
549495
  Marvin  02231216192D 0   1.00000     0.00000     0

 10  9  0  0  0  0  0  0  0  0999 V2000
    2.1160    0.4045    0.0000 S   0  0  0  0  0  0  0  0  0
    1.4016   -0.0080    0.0000 C   0  0  0  0  0  0  0  0  0
    0.6871    0.4045    0.0000 C   0  0  0  0  0  0  0  0  0
   -0.0274   -0.0080    0.0000 N   0  0  0  0  0  0  0  0  0
   -0.7419    0.4045    0.0000 C   0  0  0  0  0  0  0  0  0
   -1.4563   -0.0080    0.0000 N   0  0  0  0  0  0  0  0  0
   -0.7419    1.2295    0.0000 N   0  0  0  0  0  0  0  0  0
    2.8305   -0.0080    0.0000 C   0  0  0  0  0  0  0  0  0
    3.5450    0.4045    0.0000 N   0  0  0  0  0  0  0  0  0
    2.8305   -0.8330    0.0000 N   0  0  0  0  0  0  0  0  0
  1  2  1  0  0  0  0
  1  8  1  0  0  0  0
  2  3  1  0  0  0  0
  3  4  1  0  0  0  0
  4  5  1  0  0  0  0
  5  6  1  0  0  0  0
  5  7  2  0  0  0  0
  8  9  1  0  0  0  0
  8 10  2  0  0  0  0
M  END
>  <Name_Molregno>
549495

>  <HISTAMINE H3>
6

>  <HISTAMINE H4>
7.5

$$$$
549496
  Marvin  02231216192D 0   1.00000     0.00000     0

 10  9  0  0  0  0  0  0  0  0999 V2000
    2.1160    0.4045    0.0000 S   0  0  0  0  0  0  0  0  0
    1.4016   -0.0080    0.0000 C   0  0  0  0  0  0  0  0  0
    0.6871    0.4045    0.0000 C   0  0  0  0  0  0  0  0  0
   -0.0274   -0.0080    0.0000 S   0  0  0  0  0  0  0  0  0
   -0.7419    0.4045    0.0000 C   0  0  0  0  0  0  0  0  0
   -1.4563   -0.0080    0.0000 N   0  0  0  0  0  0  0  0  0
   -0.7419    1.2295    0.0000 N   0  0  0  0  0  0  0  0  0
    2.8305   -0.0080    0.0000 C   0  0  0  0  0  0  0  0  0
    3.5450    0.4045    0.0000 N   0  0  0  0  0  0  0  0  0
    2.8305   -0.8330    0.0000 N   0  0  0  0  0  0  0  0  0
  1  2  1  0  0  0  0
  1  8  1  0  0  0  0
  2  3  1  0  0  0  0
  3  4  1  0  0  0  0
  4  5  1  0  0  0  0
  5  6  1  0  0  0  0
  5  7  2  0  0  0  0
  8  9  1  0  0  0  0
  8 10  2  0  0  0  0
M  END
>  <Name_Molregno>
549496

>  <HISTAMINE H4>
6.6

$$$$
549499
  Marvin  02231216192D 0   1.00000     0.00000     0

 11 10  0  0  0  0  0  0  0  0999 V2000
    2.8207    0.7403    0.0000 S   0  0  0  0  0  0  0  0  0
    2.1063    0.3278    0.0000 C   0  0  0  0  0  0  0  0  0
    1.3918    0.7403    0.0000 C   0  0  0  0  0  0  0  0  0
    0.6773    0.3278    0.0000 C   0  0  0  0  0  0  0  0  0
   -0.0372    0.7403    0.0000 N   0  0  0  0  0  0  0  0  0
   -0.7516    0.3278    0.0000 C   0  0  0  0  0  0  0  0  0
   -1.4661    0.7403    0.0000 N   0  0  0  0  0  0  0  0  0
   -0.7516   -0.4972    0.0000 N   0  0  0  0  0  0  0  0  0
    3.5352    0.3278    0.0000 C   0  0  0  0  0  0  0  0  0
    4.2497    0.7403    0.0000 N   0  0  0  0  0  0  0  0  0
    3.5352   -0.4972    0.0000 N   0  0  0  0  0  0  0  0  0
  1  2  1  0  0  0  0
  1  9  1  0  0  0  0
  2  3  1  0  0  0  0
  3  4  1  0  0  0  0
  4  5  1  0  0  0  0
  5  6  1  0  0  0  0
  6  7  1  0  0  0  0
  6  8  2  0  0  0  0
  9 10  1  0  0  0  0
  9 11  2  0  0  0  0
M  END
>  <Name_Molregno>
549499

>  <HISTAMINE H4>
5.1

$$$$
549501
  Marvin  02231216192D 0   1.00000     0.00000     0

 12 11  0  0  0  0  0  0  0  0999 V2000
    3.5265    0.0109    0.0000 S   0  0  0  0  0  0  0  0  0
    2.8121   -0.4016    0.0000 C   0  0  0  0  0  0  0  0  0
    2.0976    0.0109    0.0000 C   0  0  0  0  0  0  0  0  0
    1.3831   -0.4016    0.0000 C   0  0  0  0  0  0  0  0  0
    0.6687    0.0109    0.0000 C   0  0  0  0  0  0  0  0  0
   -0.0458   -0.4016    0.0000 N   0  0  0  0  0  0  0  0  0
   -0.7603    0.0109    0.0000 C   0  0  0  0  0  0  0  0  0
   -1.4748   -0.4016    0.0000 N   0  0  0  0  0  0  0  0  0
   -0.7603    0.8359    0.0000 N   0  0  0  0  0  0  0  0  0
    4.2410   -0.4016    0.0000 C   0  0  0  0  0  0  0  0  0
    4.9555    0.0109    0.0000 N   0  0  0  0  0  0  0  0  0
    4.2410   -1.2266    0.0000 N   0  0  0  0  0  0  0  0  0
  1  2  1  0  0  0  0
  1 10  1  0  0  0  0
  2  3  1  0  0  0  0
  3  4  1  0  0  0  0
  4  5  1  0  0  0  0
  5  6  1  0  0  0  0
  6  7  1  0  0  0  0
  7  8  1  0  0  0  0
  7  9  2  0  0  0  0
 10 11  1  0  0  0  0
 10 12  2  0  0  0  0
M  END
>  <Name_Molregno>
549501

>  <HISTAMINE H4>
5.5

$$$$
549520
  Marvin  02231216192D 0   1.00000     0.00000     0

  8  8  0  0  0  0  0  0  0  0999 V2000
    0.8354   -1.4766    0.0000 N   0  0  0  0  0  0  0  0  0
    0.5805   -0.6920    0.0000 C   0  0  0  0  0  0  0  0  0
    1.2479   -0.2071    0.0000 C   0  0  0  0  0  0  0  0  0
    1.9154   -0.6920    0.0000 N   0  0  0  0  0  0  0  0  0
    1.6604   -1.4766    0.0000 C   0  0  0  0  0  0  0  0  0
    1.2479    0.6179    0.0000 C   0  0  0  0  0  0  0  0  0
    1.9624    1.0304    0.0000 C   0  0  0  0  0  0  0  0  0
    1.9624    1.8554    0.0000 N   0  0  0  0  0  0  0  0  0
  1  2  4  0  0  0  0
  1  5  4  0  0  0  0
  2  3  4  0  0  0  0
  3  4  4  0  0  0  0
  3  6  1  0  0  0  0
  4  5  4  0  0  0  0
  6  7  1  0  0  0  0
  7  8  1  0  0  0  0
M  STY  1   1 DAT
M  SAL   1  1   1
M  SDT   1 MRV_IMPLICIT_H                                        
M  SDD   1     0.0000    0.0000    DR    ALL  0       0  
M  SED   1 IMPL_H1
M  END
>  <Name_Molregno>
549520

>  <HISTAMINE H1>
4.1

>  <HISTAMINE H3>
8.28

>  <HISTAMINE H4>
7.82

$$$$
549525
  Marvin  02231216192D 0   1.00000     0.00000     0

 14 13  0  0  0  0  0  0  0  0999 V2000
    4.9377    0.0225    0.0000 S   0  0  0  0  0  0  0  0  0
    4.2232   -0.3900    0.0000 C   0  0  0  0  0  0  0  0  0
    3.5087    0.0225    0.0000 C   0  0  0  0  0  0  0  0  0
    2.7942   -0.3900    0.0000 C   0  0  0  0  0  0  0  0  0
    2.0798    0.0225    0.0000 C   0  0  0  0  0  0  0  0  0
    1.3653   -0.3900    0.0000 C   0  0  0  0  0  0  0  0  0
    0.6508    0.0225    0.0000 C   0  0  0  0  0  0  0  0  0
   -0.0636   -0.3900    0.0000 N   0  0  0  0  0  0  0  0  0
   -0.7781    0.0225    0.0000 C   0  0  0  0  0  0  0  0  0
   -1.4926   -0.3900    0.0000 N   0  0  0  0  0  0  0  0  0
   -0.7781    0.8475    0.0000 N   0  0  0  0  0  0  0  0  0
    5.6521   -0.3900    0.0000 C   0  0  0  0  0  0  0  0  0
    6.3666    0.0225    0.0000 N   0  0  0  0  0  0  0  0  0
    5.6521   -1.2150    0.0000 N   0  0  0  0  0  0  0  0  0
  1  2  1  0  0  0  0
  1 12  1  0  0  0  0
  2  3  1  0  0  0  0
  3  4  1  0  0  0  0
  4  5  1  0  0  0  0
  5  6  1  0  0  0  0
  6  7  1  0  0  0  0
  7  8  1  0  0  0  0
  8  9  1  0  0  0  0
  9 10  1  0  0  0  0
  9 11  2  0  0  0  0
 12 13  1  0  0  0  0
 12 14  2  0  0  0  0
M  END
>  <Name_Molregno>
549525

>  <HISTAMINE H4>
5.4

$$$$
553162
  Marvin  02231216192D 0   1.00000     0.00000     0

 10  9  0  0  0  0  0  0  0  0999 V2000
    2.1160    0.4045    0.0000 N   0  0  0  0  0  0  0  0  0
    1.4016   -0.0080    0.0000 C   0  0  0  0  0  0  0  0  0
    0.6871    0.4045    0.0000 C   0  0  0  0  0  0  0  0  0
   -0.0274   -0.0080    0.0000 N   0  0  0  0  0  0  0  0  0
   -0.7419    0.4045    0.0000 C   0  0  0  0  0  0  0  0  0
   -1.4563   -0.0080    0.0000 N   0  0  0  0  0  0  0  0  0
   -0.7419    1.2295    0.0000 N   0  0  0  0  0  0  0  0  0
    2.8305   -0.0080    0.0000 C   0  0  0  0  0  0  0  0  0
    3.5450    0.4045    0.0000 N   0  0  0  0  0  0  0  0  0
    2.8305   -0.8330    0.0000 N   0  0  0  0  0  0  0  0  0
  1  2  1  0  0  0  0
  1  8  1  0  0  0  0
  2  3  1  0  0  0  0
  3  4  1  0  0  0  0
  4  5  1  0  0  0  0
  5  6  1  0  0  0  0
  5  7  2  0  0  0  0
  8  9  1  0  0  0  0
  8 10  2  0  0  0  0
M  END
>  <Name_Molregno>
553162

>  <HISTAMINE H4>
6.4

$$$$
554876
  Marvin  02231216192D 0   1.00000     0.00000     0

 21 22  0  0  0  0  0  0  0  0999 V2000
    0.0055    0.7460    0.0000 Br  0  0  0  0  0  0  0  0  0
    0.7200    0.3335    0.0000 C   0  0  0  0  0  0  0  0  0
    1.4345    0.7460    0.0000 C   0  0  0  0  0  0  0  0  0
    2.1489    0.3335    0.0000 C   0  0  0  0  0  0  0  0  0
    2.1489   -0.4915    0.0000 C   0  0  0  0  0  0  0  0  0
    1.4345   -0.9040    0.0000 C   0  0  0  0  0  0  0  0  0
    0.7200   -0.4915    0.0000 C   0  0  0  0  0  0  0  0  0
    2.8634   -0.9040    0.0000 C   0  0  0  0  0  0  0  0  0
    3.5779   -0.4915    0.0000 C   0  0  0  0  0  0  0  0  0
    4.2923   -0.9040    0.0000 N   0  0  0  0  0  0  0  0  0
    5.0068   -0.4915    0.0000 C   0  0  0  0  0  0  0  0  0
    5.7213   -0.9040    0.0000 S   0  0  0  0  0  0  0  0  0
    6.4358   -0.4915    0.0000 C   0  0  0  0  0  0  0  0  0
    7.1502   -0.9040    0.0000 C   0  0  0  0  0  0  0  0  0
    7.8647   -0.4915    0.0000 C   0  0  0  0  0  0  0  0  0
    8.5792   -0.9040    0.0000 C   0  0  0  0  0  0  0  0  0
    9.3328   -0.5684    0.0000 N   0  0  0  0  0  0  0  0  0
    9.8849   -1.1815    0.0000 C   0  0  0  0  0  0  0  0  0
    9.4724   -1.8960    0.0000 N   0  0  0  0  0  0  0  0  0
    8.6654   -1.7245    0.0000 C   0  0  0  0  0  0  0  0  0
    5.0068    0.3335    0.0000 N   0  0  0  0  0  0  0  0  0
  1  2  1  0  0  0  0
  2  3  4  0  0  0  0
  2  7  4  0  0  0  0
  3  4  4  0  0  0  0
  4  5  4  0  0  0  0
  5  6  4  0  0  0  0
  5  8  1  0  0  0  0
  6  7  4  0  0  0  0
  8  9  1  0  0  0  0
  9 10  1  0  0  0  0
 10 11  1  0  0  0  0
 11 12  1  0  0  0  0
 11 21  2  0  0  0  0
 12 13  1  0  0  0  0
 13 14  1  0  0  0  0
 14 15  1  0  0  0  0
 15 16  1  0  0  0  0
 16 17  4  0  0  0  0
 16 20  4  0  0  0  0
 17 18  4  0  0  0  0
 18 19  4  0  0  0  0
 19 20  4  0  0  0  0
M  STY  1   1 DAT
M  SAL   1  1  19
M  SDT   1 MRV_IMPLICIT_H                                        
M  SDD   1     0.0000    0.0000    DR    ALL  0       0  
M  SED   1 IMPL_H1
M  END
>  <Name_Molregno>
554876

>  <HISTAMINE H3>
8.1

>  <HISTAMINE H4>
7.4

$$$$
554883
  Marvin  02231216192D 0   1.00000     0.00000     0

 26 28  0  0  0  0  0  0  0  0999 V2000
   -0.1363   -0.2077    0.0000 N   0  0  0  0  0  0  0  0  0
    0.4158    0.4053    0.0000 C   0  0  0  0  0  0  0  0  0
    1.1694    0.0698    0.0000 C   0  0  0  0  0  0  0  0  0
    1.0832   -0.7507    0.0000 N   0  0  0  0  0  0  0  0  0
    0.2762   -0.9222    0.0000 C   0  0  0  0  0  0  0  0  0
    1.8839    0.4823    0.0000 C   0  0  0  0  0  0  0  0  0
    2.5984    0.0698    0.0000 C   0  0  0  0  0  0  0  0  0
    3.3129    0.4823    0.0000 C   0  0  0  0  0  0  0  0  0
    4.0273    0.0698    0.0000 N   0  0  0  0  0  0  0  0  0
    4.7418    0.4823    0.0000 C   0  0  0  0  0  0  0  0  0
    5.4563    0.0698    0.0000 N   0  0  0  0  0  0  0  0  0
    6.1707    0.4823    0.0000 C   0  0  0  0  0  0  0  0  0
    6.8852    0.0698    0.0000 C   0  0  0  0  0  0  0  0  0
    6.8852   -0.7552    0.0000 C   0  0  0  0  0  0  0  0  0
    7.5997   -1.1677    0.0000 C   0  0  0  0  0  0  0  0  0
    7.5997   -1.9927    0.0000 C   0  0  0  0  0  0  0  0  0
    6.8852   -2.4052    0.0000 C   0  0  0  0  0  0  0  0  0
    6.1707   -1.9927    0.0000 C   0  0  0  0  0  0  0  0  0
    6.1707   -1.1677    0.0000 C   0  0  0  0  0  0  0  0  0
    7.5997    0.4823    0.0000 C   0  0  0  0  0  0  0  0  0
    7.5997    1.3073    0.0000 C   0  0  0  0  0  0  0  0  0
    8.3142    1.7198    0.0000 C   0  0  0  0  0  0  0  0  0
    9.0286    1.3073    0.0000 C   0  0  0  0  0  0  0  0  0
    9.0286    0.4823    0.0000 C   0  0  0  0  0  0  0  0  0
    8.3142    0.0698    0.0000 C   0  0  0  0  0  0  0  0  0
    4.7418    1.3073    0.0000 N   0  0  0  0  0  0  0  0  0
  1  2  4  0  0  0  0
  1  5  4  0  0  0  0
  2  3  4  0  0  0  0
  3  4  4  0  0  0  0
  3  6  1  0  0  0  0
  4  5  4  0  0  0  0
  6  7  1  0  0  0  0
  7  8  1  0  0  0  0
  8  9  1  0  0  0  0
  9 10  1  0  0  0  0
 10 11  1  0  0  0  0
 10 26  2  0  0  0  0
 11 12  1  0  0  0  0
 12 13  2  0  0  0  0
 13 14  1  0  0  0  0
 13 20  1  0  0  0  0
 14 15  4  0  0  0  0
 14 19  4  0  0  0  0
 15 16  4  0  0  0  0
 16 17  4  0  0  0  0
 17 18  4  0  0  0  0
 18 19  4  0  0  0  0
 20 21  4  0  0  0  0
 20 25  4  0  0  0  0
 21 22  4  0  0  0  0
 22 23  4  0  0  0  0
 23 24  4  0  0  0  0
 24 25  4  0  0  0  0
M  STY  1   1 DAT
M  SAL   1  1   1
M  SDT   1 MRV_IMPLICIT_H                                        
M  SDD   1     0.0000    0.0000    DR    ALL  0       0  
M  SED   1 IMPL_H1
M  END
>  <Name_Molregno>
554883

>  <HISTAMINE H3>
6.5

>  <HISTAMINE H4>
6.8

$$$$
556598
  Marvin  02231216192D 0   1.00000     0.00000     0

 20 21  0  0  0  0  0  0  0  0999 V2000
   -0.1733   -2.3952    0.0000 Br  0  0  0  0  0  0  0  0  0
    0.5412   -1.9827    0.0000 C   0  0  0  0  0  0  0  0  0
    0.5412   -1.1577    0.0000 C   0  0  0  0  0  0  0  0  0
    1.2557   -0.7452    0.0000 C   0  0  0  0  0  0  0  0  0
    1.9702   -1.1577    0.0000 C   0  0  0  0  0  0  0  0  0
    1.9702   -1.9827    0.0000 C   0  0  0  0  0  0  0  0  0
    1.2557   -2.3952    0.0000 C   0  0  0  0  0  0  0  0  0
    2.6846   -0.7452    0.0000 C   0  0  0  0  0  0  0  0  0
    3.3991   -1.1577    0.0000 N   0  0  0  0  0  0  0  0  0
    4.1136   -0.7452    0.0000 C   0  0  0  0  0  0  0  0  0
    4.8280   -1.1577    0.0000 S   0  0  0  0  0  0  0  0  0
    5.5425   -0.7452    0.0000 C   0  0  0  0  0  0  0  0  0
    6.2570   -1.1577    0.0000 C   0  0  0  0  0  0  0  0  0
    6.9715   -0.7452    0.0000 C   0  0  0  0  0  0  0  0  0
    7.6859   -1.1577    0.0000 C   0  0  0  0  0  0  0  0  0
    8.4396   -0.8222    0.0000 N   0  0  0  0  0  0  0  0  0
    8.9916   -1.4353    0.0000 C   0  0  0  0  0  0  0  0  0
    8.5791   -2.1497    0.0000 N   0  0  0  0  0  0  0  0  0
    7.7722   -1.9782    0.0000 C   0  0  0  0  0  0  0  0  0
    4.1136    0.0798    0.0000 N   0  0  0  0  0  0  0  0  0
  1  2  1  0  0  0  0
  2  3  4  0  0  0  0
  2  7  4  0  0  0  0
  3  4  4  0  0  0  0
  4  5  4  0  0  0  0
  5  6  4  0  0  0  0
  5  8  1  0  0  0  0
  6  7  4  0  0  0  0
  8  9  1  0  0  0  0
  9 10  1  0  0  0  0
 10 11  1  0  0  0  0
 10 20  2  0  0  0  0
 11 12  1  0  0  0  0
 12 13  1  0  0  0  0
 13 14  1  0  0  0  0
 14 15  1  0  0  0  0
 15 16  4  0  0  0  0
 15 19  4  0  0  0  0
 16 17  4  0  0  0  0
 17 18  4  0  0  0  0
 18 19  4  0  0  0  0
M  STY  1   1 DAT
M  SAL   1  1  18
M  SDT   1 MRV_IMPLICIT_H                                        
M  SDD   1     0.0000    0.0000    DR    ALL  0       0  
M  SED   1 IMPL_H1
M  END
>  <Name_Molregno>
556598

>  <HISTAMINE H3>
8.6

>  <HISTAMINE H4>
8

$$$$
561928
  Marvin  02231216192D 0   1.00000     0.00000     0

 19 20  0  0  0  0  0  0  0  0999 V2000
   -8.3388   -1.0089    0.0000 N   0  0  0  0  0  0  0  0  0
   -7.7868   -0.3958    0.0000 C   0  0  0  0  0  0  0  0  0
   -7.0331   -0.7313    0.0000 C   0  0  0  0  0  0  0  0  0
   -7.1193   -1.5518    0.0000 N   0  0  0  0  0  0  0  0  0
   -7.9263   -1.7233    0.0000 C   0  0  0  0  0  0  0  0  0
   -6.3186   -0.3188    0.0000 C   0  0  0  0  0  0  0  0  0
   -5.6042   -0.7313    0.0000 C   0  0  0  0  0  0  0  0  0
   -4.8897   -0.3188    0.0000 C   0  0  0  0  0  0  0  0  0
   -4.1752   -0.7313    0.0000 N   0  0  0  0  0  0  0  0  0
   -3.4607   -0.3188    0.0000 C   0  0  0  0  0  0  0  0  0
   -2.7463   -0.7313    0.0000 N   0  0  0  0  0  0  0  0  0
   -2.0318   -0.3188    0.0000 C   0  0  0  0  0  0  0  0  0
   -1.3173   -0.7313    0.0000 C   0  0  0  0  0  0  0  0  0
   -0.6029   -0.3188    0.0000 C   0  0  0  0  0  0  0  0  0
    0.1116   -0.7313    0.0000 C   0  0  0  0  0  0  0  0  0
    0.1116   -1.5563    0.0000 C   0  0  0  0  0  0  0  0  0
   -0.6029   -1.9688    0.0000 C   0  0  0  0  0  0  0  0  0
   -1.3173   -1.5563    0.0000 C   0  0  0  0  0  0  0  0  0
   -3.4607    0.5062    0.0000 N   0  0  0  0  0  0  0  0  0
  1  2  4  0  0  0  0
  1  5  4  0  0  0  0
  2  3  4  0  0  0  0
  3  4  4  0  0  0  0
  3  6  1  0  0  0  0
  4  5  4  0  0  0  0
  6  7  1  0  0  0  0
  7  8  1  0  0  0  0
  8  9  1  0  0  0  0
  9 10  1  0  0  0  0
 10 11  1  0  0  0  0
 10 19  2  0  0  0  0
 11 12  1  0  0  0  0
 12 13  1  0  0  0  0
 13 14  4  0  0  0  0
 13 18  4  0  0  0  0
 14 15  4  0  0  0  0
 15 16  4  0  0  0  0
 16 17  4  0  0  0  0
 17 18  4  0  0  0  0
M  STY  1   1 DAT
M  SAL   1  1   1
M  SDT   1 MRV_IMPLICIT_H                                        
M  SDD   1     0.0000    0.0000    DR    ALL  0       0  
M  SED   1 IMPL_H1
M  END
>  <Name_Molregno>
561928

>  <HISTAMINE H3>
7.1

>  <HISTAMINE H4>
7.6

$$$$
561954
  Marvin  02231216192D 0   1.00000     0.00000     0

 22 23  0  0  0  0  0  0  0  0999 V2000
   -2.5479    0.5836    0.0000 S   0  0  0  0  0  0  0  0  0
   -3.2624    0.1711    0.0000 C   0  0  0  0  0  0  0  0  0
   -3.9769    0.5836    0.0000 C   0  0  0  0  0  0  0  0  0
   -4.6913    0.1711    0.0000 C   0  0  0  0  0  0  0  0  0
   -5.4058    0.5836    0.0000 C   0  0  0  0  0  0  0  0  0
   -6.1595    0.2481    0.0000 N   0  0  0  0  0  0  0  0  0
   -6.7115    0.8611    0.0000 C   0  0  0  0  0  0  0  0  0
   -6.2990    1.5756    0.0000 N   0  0  0  0  0  0  0  0  0
   -5.4920    1.4041    0.0000 C   0  0  0  0  0  0  0  0  0
   -1.8334    0.1711    0.0000 C   0  0  0  0  0  0  0  0  0
   -1.1190    0.5836    0.0000 N   0  0  0  0  0  0  0  0  0
   -0.4045    0.1711    0.0000 C   0  0  0  0  0  0  0  0  0
    0.3100    0.5836    0.0000 C   0  0  0  0  0  0  0  0  0
    1.0244    0.1711    0.0000 C   0  0  0  0  0  0  0  0  0
    1.7389    0.5836    0.0000 C   0  0  0  0  0  0  0  0  0
    2.4534    0.1711    0.0000 C   0  0  0  0  0  0  0  0  0
    3.1679    0.5836    0.0000 C   0  0  0  0  0  0  0  0  0
    3.8823    0.1711    0.0000 C   0  0  0  0  0  0  0  0  0
    3.8823   -0.6539    0.0000 C   0  0  0  0  0  0  0  0  0
    3.1679   -1.0664    0.0000 C   0  0  0  0  0  0  0  0  0
    2.4534   -0.6539    0.0000 C   0  0  0  0  0  0  0  0  0
   -1.8334   -0.6539    0.0000 N   0  0  0  0  0  0  0  0  0
  1  2  1  0  0  0  0
  1 10  1  0  0  0  0
  2  3  1  0  0  0  0
  3  4  1  0  0  0  0
  4  5  1  0  0  0  0
  5  6  4  0  0  0  0
  5  9  4  0  0  0  0
  6  7  4  0  0  0  0
  7  8  4  0  0  0  0
  8  9  4  0  0  0  0
 10 11  1  0  0  0  0
 10 22  2  0  0  0  0
 11 12  1  0  0  0  0
 12 13  1  0  0  0  0
 13 14  1  0  0  0  0
 14 15  1  0  0  0  0
 15 16  1  0  0  0  0
 16 17  4  0  0  0  0
 16 21  4  0  0  0  0
 17 18  4  0  0  0  0
 18 19  4  0  0  0  0
 19 20  4  0  0  0  0
 20 21  4  0  0  0  0
M  STY  1   1 DAT
M  SAL   1  1   8
M  SDT   1 MRV_IMPLICIT_H                                        
M  SDD   1     0.0000    0.0000    DR    ALL  0       0  
M  SED   1 IMPL_H1
M  END
>  <Name_Molregno>
561954

>  <HISTAMINE H3>
7.7

>  <HISTAMINE H4>
7.2

$$$$
591110
  Marvin  02231216192D 0   1.00000     0.00000     0

 27 31  0  0  1  0  0  0  0  0999 V2000
    0.4188    1.2437    0.0000 O   0  0  0  0  0  0  0  0  0
   -0.3658    0.9887    0.0000 C   0  0  0  0  0  0  0  0  0
   -0.3658    0.1637    0.0000 C   0  0  0  0  0  0  0  0  0
    0.4188   -0.0912    0.0000 O   0  0  0  0  0  0  0  0  0
    0.9037    0.5762    0.0000 C   0  0  0  0  0  0  0  0  0
   -1.0803   -0.2488    0.0000 C   0  0  0  0  0  0  0  0  0
   -1.7947    0.1637    0.0000 C   0  0  0  0  0  0  0  0  0
   -2.5092   -0.2488    0.0000 C   0  0  0  0  0  0  0  0  0
   -3.2237    0.1637    0.0000 C   0  0  0  0  0  0  0  0  0
   -3.9382   -0.2488    0.0000 N   0  0  0  0  0  0  0  0  0
   -4.6526    0.1637    0.0000 C   0  0  0  0  0  0  0  0  0
   -4.6526    0.9887    0.0000 C   0  0  0  0  0  0  0  0  0
   -3.9382    1.4012    0.0000 C   0  0  0  0  0  0  0  0  0
   -3.9382    2.2262    0.0000 C   0  0  0  0  0  0  0  0  0
   -3.2237    2.6387    0.0000 C   0  0  0  0  0  0  0  0  0
   -3.2237    3.4637    0.0000 C   0  0  0  0  0  0  0  0  0
   -3.9382    3.8762    0.0000 O   0  0  0  0  0  0  0  0  0
   -2.5092    3.8762    0.0000 C   0  0  0  0  0  0  0  0  0
   -2.5092    2.2262    0.0000 C   0  0  0  0  0  0  0  0  0
   -2.5092    1.4012    0.0000 C   0  0  0  0  0  0  0  0  0
   -3.2237    0.9887    0.0000 C   0  0  0  0  0  0  0  0  0
   -1.7947    0.9887    0.0000 C   0  0  0  0  0  0  0  0  0
   -1.0803    1.4012    0.0000 C   0  0  0  0  0  0  0  0  0
   -1.7947    2.6387    0.0000 C   0  0  0  0  0  0  0  0  0
   -1.0803    2.2262    0.0000 O   0  0  0  0  0  0  0  0  0
   -1.7947    3.4637    0.0000 C   0  0  0  0  0  0  0  0  0
   -3.9382   -1.0738    0.0000 C   0  0  0  0  0  0  0  0  0
  1  2  1  0  0  0  0
  1  5  1  0  0  0  0
  2  3  4  0  0  0  0
  2 23  4  0  0  0  0
  3  4  1  0  0  0  0
  3  6  4  0  0  0  0
  4  5  1  0  0  0  0
  6  7  4  0  0  0  0
  7  8  1  0  0  0  0
  7 22  4  0  0  0  0
  8  9  1  0  0  0  0
  9 10  1  0  0  0  0
  9 21  1  0  0  0  0
 10 11  1  0  0  0  0
 10 27  1  0  0  0  0
 11 12  1  0  0  0  0
 12 13  1  0  0  0  0
 13 14  4  0  0  0  0
 13 21  4  0  0  0  0
 14 15  4  0  0  0  0
 15 16  1  0  0  0  0
 15 19  4  0  0  0  0
 16 17  2  0  0  0  0
 16 18  1  0  0  0  0
 19 20  4  0  0  0  0
 19 24  1  0  0  0  0
 20 21  4  0  0  0  0
 20 22  1  0  0  0  0
 22 23  4  0  0  0  0
 24 25  2  0  0  0  0
 24 26  1  0  0  0  0
M  END
>  <Name_Molregno>
591110

>  <5-HT1B>
7

>  <5-HT1D>
7.31

>  <5-HT1E>
5

>  <5-HT2A>
6.08

>  <5-HT2C>
5.97

>  <5-HT3>
5

>  <5-HT5>
5.65

>  <5-HT6>
6.59

>  <5-HT7>
7.17

>  <Alpha-1A>
8.7

>  <Alpha-1B>
5.92

>  <Alpha-2A>
5.89

>  <Alpha-2B>
6.6

>  <Alpha-2C>
6.74

>  <Beta-1>
5.07

>  <Beta-2>
5

>  <DOPAMINE D1>
6.05

>  <DOPAMINE D2>
6.07

>  <DOPAMINE D3>
6.51

>  <DOPAMINE D4>
6.58

>  <DOPAMINE D5>
5.62

>  <Dopamine transporter>
5

>  <HISTAMINE H1>
5

>  <HISTAMINE H2>
6.17

>  <HISTAMINE H3>
5

>  <HISTAMINE H4>
5

>  <Muscarinic acetylcholine receptor M1>
5

>  <Muscarinic acetylcholine receptor M2>
5

>  <Muscarinic acetylcholine receptor M3>
5

>  <Muscarinic acetylcholine receptor M4>
5

>  <Norepinephrine transporter>
5

>  <Serotonin transporter>
6.61

$$$$
594448
  Marvin  02231216192D 0   1.00000     0.00000     0

 24 27  0  0  1  0  0  0  0  0999 V2000
   -0.1249   -0.5370    0.0000 O   0  0  0  0  0  0  0  0  0
    0.6852   -0.6929    0.0000 C   0  0  0  0  0  0  0  0  0
   -0.3950    0.2426    0.0000 C   0  0  0  0  0  0  0  0  0
   -1.2051    0.3985    0.0000 C   0  0  0  0  0  0  0  0  0
   -1.4751    1.1780    0.0000 C   0  0  0  0  0  0  0  0  0
   -2.2853    1.3340    0.0000 C   0  0  0  0  0  0  0  0  0
   -2.8254    0.7103    0.0000 C   0  0  0  0  0  0  0  0  0
   -2.5553   -0.0692    0.0000 N   0  0  0  0  0  0  0  0  0
   -1.7452   -0.2251    0.0000 C   0  0  0  0  0  0  0  0  0
   -3.0954   -0.6929    0.0000 C   0  0  0  0  0  0  0  0  0
   -3.9055   -0.5370    0.0000 C   0  0  0  0  0  0  0  0  0
   -4.1756    0.2426    0.0000 C   0  0  0  0  0  0  0  0  0
   -4.9857    0.3985    0.0000 C   0  0  0  0  0  0  0  0  0
   -5.2558    1.1780    0.0000 C   0  0  0  0  0  0  0  0  0
   -6.0659    1.3340    0.0000 O   0  0  0  0  0  0  0  0  0
   -6.6060    0.7103    0.0000 C   0  0  0  0  0  0  0  0  0
   -4.7157    1.8017    0.0000 C   0  0  0  0  0  0  0  0  0
   -4.9857    2.5812    0.0000 O   0  0  0  0  0  0  0  0  0
   -3.9055    1.6458    0.0000 C   0  0  0  0  0  0  0  0  0
   -3.6355    0.8662    0.0000 C   0  0  0  0  0  0  0  0  0
   -0.9351    1.8017    0.0000 C   0  0  0  0  0  0  0  0  0
   -0.1249    1.6458    0.0000 C   0  0  0  0  0  0  0  0  0
    0.1451    0.8662    0.0000 C   0  0  0  0  0  0  0  0  0
    0.9553    0.7103    0.0000 O   0  0  0  0  0  0  0  0  0
  1  2  1  0  0  0  0
  1  3  1  0  0  0  0
  3  4  4  0  0  0  0
  3 23  4  0  0  0  0
  4  5  4  0  0  0  0
  4  9  1  0  0  0  0
  5  6  1  0  0  0  0
  5 21  4  0  0  0  0
  6  7  1  0  0  0  0
  7  8  1  0  0  0  0
  7 20  1  0  0  0  0
  8  9  1  0  0  0  0
  8 10  1  0  0  0  0
 10 11  1  0  0  0  0
 11 12  1  0  0  0  0
 12 13  4  0  0  0  0
 12 20  4  0  0  0  0
 13 14  4  0  0  0  0
 14 15  1  0  0  0  0
 14 17  4  0  0  0  0
 15 16  1  0  0  0  0
 17 18  1  0  0  0  0
 17 19  4  0  0  0  0
 19 20  4  0  0  0  0
 21 22  4  0  0  0  0
 22 23  4  0  0  0  0
 23 24  1  0  0  0  0
M  END
>  <Name_Molregno>
594448

>  <5-HT1A>
6.84

>  <5-HT1B>
5.16

>  <5-HT1D>
5

>  <5-HT1E>
5

>  <5-HT2A>
5

>  <5-HT3>
5

>  <5-HT5>
5

>  <5-HT6>
5

>  <5-HT7>
5

>  <Alpha-1A>
5

>  <Alpha-1B>
5

>  <Alpha-2A>
5

>  <Alpha-2B>
5.16

>  <Alpha-2C>
6.67

>  <Beta-1>
5

>  <Beta-2>
5

>  <DOPAMINE D1>
8.23

>  <DOPAMINE D2>
6.01

>  <DOPAMINE D4>
5.43

>  <DOPAMINE D5>
8.36

>  <Dopamine transporter>
5

>  <HISTAMINE H1>
5

>  <HISTAMINE H2>
5

>  <HISTAMINE H4>
5

>  <Muscarinic acetylcholine receptor M2>
5

>  <Muscarinic acetylcholine receptor M5>
5

>  <Norepinephrine transporter>
5

>  <Serotonin transporter>
5

$$$$
595585
  Marvin  02231216192D 0   1.00000     0.00000     0

 24 27  0  0  0  0  0  0  0  0999 V2000
    0.0845    1.0267    0.0000 N   0  0  0  0  0  0  0  0  0
   -0.6299    0.6142    0.0000 C   0  0  0  0  0  0  0  0  0
   -0.6299   -0.2108    0.0000 N   0  0  0  0  0  0  0  0  0
    0.0845   -0.6233    0.0000 C   0  0  0  0  0  0  0  0  0
    0.0845   -1.4483    0.0000 C   0  0  0  0  0  0  0  0  0
   -0.6299   -1.8608    0.0000 N   0  0  0  0  0  0  0  0  0
   -1.3444   -1.4483    0.0000 C   0  0  0  0  0  0  0  0  0
   -1.3444   -0.6233    0.0000 C   0  0  0  0  0  0  0  0  0
   -0.6299   -2.6858    0.0000 C   0  0  0  0  0  0  0  0  0
   -1.3444    1.0267    0.0000 C   0  0  0  0  0  0  0  0  0
   -2.1290    0.7717    0.0000 N   0  0  0  0  0  0  0  0  0
   -2.6140    1.4392    0.0000 C   0  0  0  0  0  0  0  0  0
   -2.1290    2.1066    0.0000 N   0  0  0  0  0  0  0  0  0
   -1.3444    1.8517    0.0000 C   0  0  0  0  0  0  0  0  0
   -0.6299    2.2642    0.0000 N   0  0  0  0  0  0  0  0  0
    0.0845    1.8517    0.0000 C   0  0  0  0  0  0  0  0  0
    0.7990    2.2642    0.0000 N   0  0  0  0  0  0  0  0  0
   -2.3840    2.8912    0.0000 C   0  0  0  0  0  0  0  0  0
   -1.8319    3.5043    0.0000 C   0  0  0  0  0  0  0  0  0
   -2.0869    4.2890    0.0000 C   0  0  0  0  0  0  0  0  0
   -1.5348    4.9020    0.0000 C   0  0  0  0  0  0  0  0  0
   -0.7279    4.7305    0.0000 C   0  0  0  0  0  0  0  0  0
   -0.4729    3.9459    0.0000 C   0  0  0  0  0  0  0  0  0
   -1.0250    3.3328    0.0000 C   0  0  0  0  0  0  0  0  0
  1  2  4  0  0  0  0
  1 16  4  0  0  0  0
  2  3  1  0  0  0  0
  2 10  4  0  0  0  0
  3  4  1  0  0  0  0
  3  8  1  0  0  0  0
  4  5  1  0  0  0  0
  5  6  1  0  0  0  0
  6  7  1  0  0  0  0
  6  9  1  0  0  0  0
  7  8  1  0  0  0  0
 10 11  4  0  0  0  0
 10 14  4  0  0  0  0
 11 12  4  0  0  0  0
 12 13  4  0  0  0  0
 13 14  4  0  0  0  0
 13 18  1  0  0  0  0
 14 15  4  0  0  0  0
 15 16  4  0  0  0  0
 16 17  1  0  0  0  0
 18 19  1  0  0  0  0
 19 20  4  0  0  0  0
 19 24  4  0  0  0  0
 20 21  4  0  0  0  0
 21 22  4  0  0  0  0
 22 23  4  0  0  0  0
 23 24  4  0  0  0  0
M  END
>  <Name_Molregno>
595585

>  <HISTAMINE H4>
5.09

$$$$
595586
  Marvin  02231216192D 0   1.00000     0.00000     0

 20 22  0  0  0  0  0  0  0  0999 V2000
    0.6652   -0.4413    0.0000 N   0  0  0  0  0  0  0  0  0
    0.4103   -1.2260    0.0000 N   0  0  0  0  0  0  0  0  0
   -0.4147   -1.2260    0.0000 N   0  0  0  0  0  0  0  0  0
   -0.6697   -0.4413    0.0000 C   0  0  0  0  0  0  0  0  0
   -0.0022    0.0436    0.0000 C   0  0  0  0  0  0  0  0  0
   -0.0022    0.8686    0.0000 C   0  0  0  0  0  0  0  0  0
    0.7123    1.2811    0.0000 N   0  0  0  0  0  0  0  0  0
    0.7123    2.1061    0.0000 C   0  0  0  0  0  0  0  0  0
    1.4267    2.5186    0.0000 C   0  0  0  0  0  0  0  0  0
    2.1412    2.1061    0.0000 N   0  0  0  0  0  0  0  0  0
    2.1412    1.2811    0.0000 C   0  0  0  0  0  0  0  0  0
    1.4267    0.8686    0.0000 C   0  0  0  0  0  0  0  0  0
    2.8557    2.5186    0.0000 C   0  0  0  0  0  0  0  0  0
   -0.8996   -1.8934    0.0000 C   0  0  0  0  0  0  0  0  0
   -1.7201   -1.8072    0.0000 C   0  0  0  0  0  0  0  0  0
   -2.2050   -2.4746    0.0000 C   0  0  0  0  0  0  0  0  0
   -3.0255   -2.3884    0.0000 C   0  0  0  0  0  0  0  0  0
   -3.3611   -1.6347    0.0000 C   0  0  0  0  0  0  0  0  0
   -2.8762   -0.9672    0.0000 C   0  0  0  0  0  0  0  0  0
   -2.0557   -1.0535    0.0000 C   0  0  0  0  0  0  0  0  0
  1  2  4  0  0  0  0
  1  5  4  0  0  0  0
  2  3  4  0  0  0  0
  3  4  4  0  0  0  0
  3 14  1  0  0  0  0
  4  5  4  0  0  0  0
  5  6  1  0  0  0  0
  6  7  1  0  0  0  0
  7  8  1  0  0  0  0
  7 12  1  0  0  0  0
  8  9  1  0  0  0  0
  9 10  1  0  0  0  0
 10 11  1  0  0  0  0
 10 13  1  0  0  0  0
 11 12  1  0  0  0  0
 14 15  1  0  0  0  0
 15 16  4  0  0  0  0
 15 20  4  0  0  0  0
 16 17  4  0  0  0  0
 17 18  4  0  0  0  0
 18 19  4  0  0  0  0
 19 20  4  0  0  0  0
M  END
>  <Name_Molregno>
595586

>  <HISTAMINE H4>
4.46

$$$$
595587
  Marvin  02231216192D 0   1.00000     0.00000     0

 21 23  0  0  0  0  0  0  0  0999 V2000
    1.3439   -1.2903    0.0000 N   0  0  0  0  0  0  0  0  0
    1.3439   -2.1153    0.0000 C   0  0  0  0  0  0  0  0  0
    0.6295   -2.5278    0.0000 N   0  0  0  0  0  0  0  0  0
   -0.0850   -2.1153    0.0000 C   0  0  0  0  0  0  0  0  0
   -0.7995   -2.5278    0.0000 N   0  0  0  0  0  0  0  0  0
   -0.7995   -3.3528    0.0000 C   0  0  0  0  0  0  0  0  0
   -1.5139   -3.7653    0.0000 C   0  0  0  0  0  0  0  0  0
   -1.5139   -4.5903    0.0000 C   0  0  0  0  0  0  0  0  0
   -2.2284   -5.0028    0.0000 C   0  0  0  0  0  0  0  0  0
   -2.9429   -4.5903    0.0000 C   0  0  0  0  0  0  0  0  0
   -2.9429   -3.7653    0.0000 C   0  0  0  0  0  0  0  0  0
   -2.2284   -3.3528    0.0000 C   0  0  0  0  0  0  0  0  0
   -0.0850   -1.2903    0.0000 C   0  0  0  0  0  0  0  0  0
    0.6295   -0.8778    0.0000 C   0  0  0  0  0  0  0  0  0
    0.6295   -0.0528    0.0000 N   0  0  0  0  0  0  0  0  0
   -0.0850    0.3597    0.0000 C   0  0  0  0  0  0  0  0  0
   -0.0850    1.1847    0.0000 C   0  0  0  0  0  0  0  0  0
    0.6295    1.5972    0.0000 N   0  0  0  0  0  0  0  0  0
    1.3439    1.1847    0.0000 C   0  0  0  0  0  0  0  0  0
    1.3439    0.3597    0.0000 C   0  0  0  0  0  0  0  0  0
    0.6295    2.4222    0.0000 C   0  0  0  0  0  0  0  0  0
  1  2  4  0  0  0  0
  1 14  4  0  0  0  0
  2  3  4  0  0  0  0
  3  4  4  0  0  0  0
  4  5  1  0  0  0  0
  4 13  4  0  0  0  0
  5  6  1  0  0  0  0
  6  7  1  0  0  0  0
  7  8  4  0  0  0  0
  7 12  4  0  0  0  0
  8  9  4  0  0  0  0
  9 10  4  0  0  0  0
 10 11  4  0  0  0  0
 11 12  4  0  0  0  0
 13 14  4  0  0  0  0
 14 15  1  0  0  0  0
 15 16  1  0  0  0  0
 15 20  1  0  0  0  0
 16 17  1  0  0  0  0
 17 18  1  0  0  0  0
 18 19  1  0  0  0  0
 18 21  1  0  0  0  0
 19 20  1  0  0  0  0
M  END
>  <Name_Molregno>
595587

>  <HISTAMINE H4>
6.38

$$$$
595595
  Marvin  02231216192D 0   1.00000     0.00000     0

 24 26  0  0  0  0  0  0  0  0999 V2000
    0.4034    0.5918    0.0000 Cl  0  0  0  0  0  0  0  0  0
    0.4034   -0.2332    0.0000 C   0  0  0  0  0  0  0  0  0
    1.1178   -0.6457    0.0000 C   0  0  0  0  0  0  0  0  0
    1.1178   -1.4707    0.0000 C   0  0  0  0  0  0  0  0  0
    0.4034   -1.8832    0.0000 C   0  0  0  0  0  0  0  0  0
   -0.3111   -1.4707    0.0000 C   0  0  0  0  0  0  0  0  0
   -1.0256   -1.8832    0.0000 Cl  0  0  0  0  0  0  0  0  0
   -0.3111   -0.6457    0.0000 C   0  0  0  0  0  0  0  0  0
   -1.0256   -0.2332    0.0000 C   0  0  0  0  0  0  0  0  0
   -1.0256    0.5918    0.0000 N   0  0  0  0  0  0  0  0  0
   -1.7401    1.0043    0.0000 C   0  0  0  0  0  0  0  0  0
   -2.4545    0.5918    0.0000 N   0  0  0  0  0  0  0  0  0
   -3.1690    1.0043    0.0000 C   0  0  0  0  0  0  0  0  0
   -3.1690    1.8293    0.0000 N   0  0  0  0  0  0  0  0  0
   -2.4545    2.2418    0.0000 C   0  0  0  0  0  0  0  0  0
   -2.4545    3.0668    0.0000 N   0  0  0  0  0  0  0  0  0
   -3.1690    3.4793    0.0000 C   0  0  0  0  0  0  0  0  0
   -3.1690    4.3043    0.0000 C   0  0  0  0  0  0  0  0  0
   -2.4545    4.7168    0.0000 N   0  0  0  0  0  0  0  0  0
   -1.7401    4.3043    0.0000 C   0  0  0  0  0  0  0  0  0
   -1.7401    3.4793    0.0000 C   0  0  0  0  0  0  0  0  0
   -2.4545    5.5418    0.0000 C   0  0  0  0  0  0  0  0  0
   -1.7401    1.8293    0.0000 C   0  0  0  0  0  0  0  0  0
   -3.8835    0.5918    0.0000 N   0  0  0  0  0  0  0  0  0
  1  2  1  0  0  0  0
  2  3  4  0  0  0  0
  2  8  4  0  0  0  0
  3  4  4  0  0  0  0
  4  5  4  0  0  0  0
  5  6  4  0  0  0  0
  6  7  1  0  0  0  0
  6  8  4  0  0  0  0
  8  9  1  0  0  0  0
  9 10  1  0  0  0  0
 10 11  1  0  0  0  0
 11 12  4  0  0  0  0
 11 23  4  0  0  0  0
 12 13  4  0  0  0  0
 13 14  4  0  0  0  0
 13 24  1  0  0  0  0
 14 15  4  0  0  0  0
 15 16  1  0  0  0  0
 15 23  4  0  0  0  0
 16 17  1  0  0  0  0
 16 21  1  0  0  0  0
 17 18  1  0  0  0  0
 18 19  1  0  0  0  0
 19 20  1  0  0  0  0
 19 22  1  0  0  0  0
 20 21  1  0  0  0  0
M  END
>  <Name_Molregno>
595595

>  <HISTAMINE H1>
6

>  <HISTAMINE H2>
6

>  <HISTAMINE H3>
6.29

>  <HISTAMINE H4>
7.93

$$$$
595596
  Marvin  02231216192D 0   1.00000     0.00000     0

 26 28  0  0  0  0  0  0  0  0999 V2000
    3.7633    2.1784    0.0000 N   0  0  0  0  0  0  0  0  0
    3.7633    1.3534    0.0000 C   0  0  0  0  0  0  0  0  0
    4.4778    0.9409    0.0000 N   0  0  0  0  0  0  0  0  0
    5.1923    1.3534    0.0000 C   0  0  0  0  0  0  0  0  0
    5.9067    0.9409    0.0000 C   0  0  0  0  0  0  0  0  0
    5.9067    0.1159    0.0000 N   0  0  0  0  0  0  0  0  0
    5.1923   -0.2966    0.0000 C   0  0  0  0  0  0  0  0  0
    4.4778    0.1159    0.0000 C   0  0  0  0  0  0  0  0  0
    6.6212   -0.2966    0.0000 C   0  0  0  0  0  0  0  0  0
    3.0488    0.9409    0.0000 C   0  0  0  0  0  0  0  0  0
    2.3344    1.3534    0.0000 C   0  0  0  0  0  0  0  0  0
    2.3344    2.1784    0.0000 N   0  0  0  0  0  0  0  0  0
    3.0488    2.5909    0.0000 C   0  0  0  0  0  0  0  0  0
    3.0488    3.4159    0.0000 N   0  0  0  0  0  0  0  0  0
    1.6199    0.9409    0.0000 N   0  0  0  0  0  0  0  0  0
    1.6199    0.1159    0.0000 C   0  0  0  0  0  0  0  0  0
    0.9054   -0.2966    0.0000 C   0  0  0  0  0  0  0  0  0
    0.9054   -1.1216    0.0000 C   0  0  0  0  0  0  0  0  0
    0.1910   -1.5341    0.0000 C   0  0  0  0  0  0  0  0  0
   -0.5235   -1.1216    0.0000 C   0  0  0  0  0  0  0  0  0
   -0.5235   -0.2966    0.0000 C   0  0  0  0  0  0  0  0  0
    0.1910    0.1159    0.0000 C   0  0  0  0  0  0  0  0  0
   -1.2380   -1.5341    0.0000 C   0  0  0  0  0  0  0  0  0
   -1.9525   -1.9466    0.0000 C   0  0  0  0  0  0  0  0  0
   -1.6505   -0.8197    0.0000 C   0  0  0  0  0  0  0  0  0
   -0.8255   -2.2486    0.0000 C   0  0  0  0  0  0  0  0  0
  1  2  4  0  0  0  0
  1 13  4  0  0  0  0
  2  3  1  0  0  0  0
  2 10  4  0  0  0  0
  3  4  1  0  0  0  0
  3  8  1  0  0  0  0
  4  5  1  0  0  0  0
  5  6  1  0  0  0  0
  6  7  1  0  0  0  0
  6  9  1  0  0  0  0
  7  8  1  0  0  0  0
 10 11  4  0  0  0  0
 11 12  4  0  0  0  0
 11 15  1  0  0  0  0
 12 13  4  0  0  0  0
 13 14  1  0  0  0  0
 15 16  1  0  0  0  0
 16 17  1  0  0  0  0
 17 18  4  0  0  0  0
 17 22  4  0  0  0  0
 18 19  4  0  0  0  0
 19 20  4  0  0  0  0
 20 21  4  0  0  0  0
 20 23  1  0  0  0  0
 21 22  4  0  0  0  0
 23 24  1  0  0  0  0
 23 25  1  0  0  0  0
 23 26  1  0  0  0  0
M  END
>  <Name_Molregno>
595596

>  <HISTAMINE H4>
5.47

$$$$
595612
  Marvin  02231216192D 0   1.00000     0.00000     0

 25 27  0  0  0  0  0  0  0  0999 V2000
    3.4732    2.1404    0.0000 N   0  0  0  0  0  0  0  0  0
    3.4732    1.3154    0.0000 C   0  0  0  0  0  0  0  0  0
    4.1877    0.9029    0.0000 N   0  0  0  0  0  0  0  0  0
    4.9021    1.3154    0.0000 C   0  0  0  0  0  0  0  0  0
    5.6166    0.9029    0.0000 C   0  0  0  0  0  0  0  0  0
    5.6166    0.0779    0.0000 N   0  0  0  0  0  0  0  0  0
    4.9021   -0.3346    0.0000 C   0  0  0  0  0  0  0  0  0
    4.1877    0.0779    0.0000 C   0  0  0  0  0  0  0  0  0
    6.3311   -0.3346    0.0000 C   0  0  0  0  0  0  0  0  0
    2.7587    0.9029    0.0000 C   0  0  0  0  0  0  0  0  0
    2.0442    1.3154    0.0000 C   0  0  0  0  0  0  0  0  0
    2.0442    2.1404    0.0000 N   0  0  0  0  0  0  0  0  0
    2.7587    2.5529    0.0000 C   0  0  0  0  0  0  0  0  0
    2.7587    3.3779    0.0000 N   0  0  0  0  0  0  0  0  0
    1.3298    0.9029    0.0000 N   0  0  0  0  0  0  0  0  0
    1.3298    0.0779    0.0000 C   0  0  0  0  0  0  0  0  0
    0.6153   -0.3346    0.0000 C   0  0  0  0  0  0  0  0  0
    0.6153   -1.1596    0.0000 C   0  0  0  0  0  0  0  0  0
   -0.0992   -1.5721    0.0000 C   0  0  0  0  0  0  0  0  0
   -0.8136   -1.1596    0.0000 C   0  0  0  0  0  0  0  0  0
   -0.8136   -0.3346    0.0000 C   0  0  0  0  0  0  0  0  0
   -0.0992    0.0779    0.0000 C   0  0  0  0  0  0  0  0  0
   -1.5281   -1.5721    0.0000 C   0  0  0  0  0  0  0  0  0
   -1.5281   -2.3971    0.0000 C   0  0  0  0  0  0  0  0  0
   -2.2426   -1.1596    0.0000 C   0  0  0  0  0  0  0  0  0
  1  2  4  0  0  0  0
  1 13  4  0  0  0  0
  2  3  1  0  0  0  0
  2 10  4  0  0  0  0
  3  4  1  0  0  0  0
  3  8  1  0  0  0  0
  4  5  1  0  0  0  0
  5  6  1  0  0  0  0
  6  7  1  0  0  0  0
  6  9  1  0  0  0  0
  7  8  1  0  0  0  0
 10 11  4  0  0  0  0
 11 12  4  0  0  0  0
 11 15  1  0  0  0  0
 12 13  4  0  0  0  0
 13 14  1  0  0  0  0
 15 16  1  0  0  0  0
 16 17  1  0  0  0  0
 17 18  4  0  0  0  0
 17 22  4  0  0  0  0
 18 19  4  0  0  0  0
 19 20  4  0  0  0  0
 20 21  4  0  0  0  0
 20 23  1  0  0  0  0
 21 22  4  0  0  0  0
 23 24  1  0  0  0  0
 23 25  1  0  0  0  0
M  END
>  <Name_Molregno>
595612

>  <HISTAMINE H4>
5.66

$$$$
595613
  Marvin  02231216192D 0   1.00000     0.00000     0

 28 31  0  0  0  0  0  0  0  0999 V2000
    4.5549    2.2947    0.0000 N   0  0  0  0  0  0  0  0  0
    4.5549    1.4697    0.0000 C   0  0  0  0  0  0  0  0  0
    5.2693    1.0572    0.0000 N   0  0  0  0  0  0  0  0  0
    5.9838    1.4697    0.0000 C   0  0  0  0  0  0  0  0  0
    6.6983    1.0572    0.0000 C   0  0  0  0  0  0  0  0  0
    6.6983    0.2322    0.0000 N   0  0  0  0  0  0  0  0  0
    5.9838   -0.1803    0.0000 C   0  0  0  0  0  0  0  0  0
    5.2693    0.2322    0.0000 C   0  0  0  0  0  0  0  0  0
    7.4128   -0.1803    0.0000 C   0  0  0  0  0  0  0  0  0
    3.8404    1.0572    0.0000 C   0  0  0  0  0  0  0  0  0
    3.1259    1.4697    0.0000 C   0  0  0  0  0  0  0  0  0
    3.1259    2.2947    0.0000 N   0  0  0  0  0  0  0  0  0
    3.8404    2.7072    0.0000 C   0  0  0  0  0  0  0  0  0
    3.8404    3.5322    0.0000 N   0  0  0  0  0  0  0  0  0
    2.4115    1.0572    0.0000 N   0  0  0  0  0  0  0  0  0
    2.4115    0.2322    0.0000 C   0  0  0  0  0  0  0  0  0
    1.6970   -0.1803    0.0000 C   0  0  0  0  0  0  0  0  0
    1.6970   -1.0053    0.0000 C   0  0  0  0  0  0  0  0  0
    0.9825   -1.4178    0.0000 C   0  0  0  0  0  0  0  0  0
    0.2680   -1.0053    0.0000 C   0  0  0  0  0  0  0  0  0
    0.2680   -0.1803    0.0000 C   0  0  0  0  0  0  0  0  0
    0.9825    0.2322    0.0000 C   0  0  0  0  0  0  0  0  0
   -0.4464   -1.4178    0.0000 C   0  0  0  0  0  0  0  0  0
   -0.4464   -2.2428    0.0000 C   0  0  0  0  0  0  0  0  0
   -1.1609   -2.6553    0.0000 C   0  0  0  0  0  0  0  0  0
   -1.8754   -2.2428    0.0000 C   0  0  0  0  0  0  0  0  0
   -1.8754   -1.4178    0.0000 C   0  0  0  0  0  0  0  0  0
   -1.1609   -1.0053    0.0000 C   0  0  0  0  0  0  0  0  0
  1  2  4  0  0  0  0
  1 13  4  0  0  0  0
  2  3  1  0  0  0  0
  2 10  4  0  0  0  0
  3  4  1  0  0  0  0
  3  8  1  0  0  0  0
  4  5  1  0  0  0  0
  5  6  1  0  0  0  0
  6  7  1  0  0  0  0
  6  9  1  0  0  0  0
  7  8  1  0  0  0  0
 10 11  4  0  0  0  0
 11 12  4  0  0  0  0
 11 15  1  0  0  0  0
 12 13  4  0  0  0  0
 13 14  1  0  0  0  0
 15 16  1  0  0  0  0
 16 17  1  0  0  0  0
 17 18  4  0  0  0  0
 17 22  4  0  0  0  0
 18 19  4  0  0  0  0
 19 20  4  0  0  0  0
 20 21  4  0  0  0  0
 20 23  1  0  0  0  0
 21 22  4  0  0  0  0
 23 24  4  0  0  0  0
 23 28  4  0  0  0  0
 24 25  4  0  0  0  0
 25 26  4  0  0  0  0
 26 27  4  0  0  0  0
 27 28  4  0  0  0  0
M  END
>  <Name_Molregno>
595613

>  <HISTAMINE H4>
6.15

$$$$
595625
  Marvin  02231216192D 0   1.00000     0.00000     0

 25 27  0  0  0  0  0  0  0  0999 V2000
    4.9343    5.1846    0.0000 O   0  0  0  0  0  0  0  0  0
    5.6487    4.7721    0.0000 C   0  0  0  0  0  0  0  0  0
    6.3632    5.1846    0.0000 O   0  0  0  0  0  0  0  0  0
    5.6487    3.9471    0.0000 C   0  0  0  0  0  0  0  0  0
    6.3632    3.5346    0.0000 C   0  0  0  0  0  0  0  0  0
    6.3632    2.7096    0.0000 C   0  0  0  0  0  0  0  0  0
    5.6487    2.2971    0.0000 C   0  0  0  0  0  0  0  0  0
    4.9343    2.7096    0.0000 C   0  0  0  0  0  0  0  0  0
    4.9343    3.5346    0.0000 C   0  0  0  0  0  0  0  0  0
    5.6487    1.4721    0.0000 C   0  0  0  0  0  0  0  0  0
    4.9343    1.0596    0.0000 N   0  0  0  0  0  0  0  0  0
    4.9343    0.2346    0.0000 C   0  0  0  0  0  0  0  0  0
    5.6487   -0.1779    0.0000 N   0  0  0  0  0  0  0  0  0
    5.6487   -1.0029    0.0000 C   0  0  0  0  0  0  0  0  0
    4.9343   -1.4154    0.0000 N   0  0  0  0  0  0  0  0  0
    4.2198   -1.0029    0.0000 C   0  0  0  0  0  0  0  0  0
    3.5053   -1.4154    0.0000 N   0  0  0  0  0  0  0  0  0
    3.5053   -2.2404    0.0000 C   0  0  0  0  0  0  0  0  0
    2.7908   -2.6529    0.0000 C   0  0  0  0  0  0  0  0  0
    2.0764   -2.2404    0.0000 N   0  0  0  0  0  0  0  0  0
    2.0764   -1.4154    0.0000 C   0  0  0  0  0  0  0  0  0
    2.7908   -1.0029    0.0000 C   0  0  0  0  0  0  0  0  0
    1.3619   -2.6529    0.0000 C   0  0  0  0  0  0  0  0  0
    4.2198   -0.1779    0.0000 C   0  0  0  0  0  0  0  0  0
    6.3632   -1.4154    0.0000 N   0  0  0  0  0  0  0  0  0
  1  2  1  0  0  0  0
  2  3  2  0  0  0  0
  2  4  1  0  0  0  0
  4  5  4  0  0  0  0
  4  9  4  0  0  0  0
  5  6  4  0  0  0  0
  6  7  4  0  0  0  0
  7  8  4  0  0  0  0
  7 10  1  0  0  0  0
  8  9  4  0  0  0  0
 10 11  1  0  0  0  0
 11 12  1  0  0  0  0
 12 13  4  0  0  0  0
 12 24  4  0  0  0  0
 13 14  4  0  0  0  0
 14 15  4  0  0  0  0
 14 25  1  0  0  0  0
 15 16  4  0  0  0  0
 16 17  1  0  0  0  0
 16 24  4  0  0  0  0
 17 18  1  0  0  0  0
 17 22  1  0  0  0  0
 18 19  1  0  0  0  0
 19 20  1  0  0  0  0
 20 21  1  0  0  0  0
 20 23  1  0  0  0  0
 21 22  1  0  0  0  0
M  END
>  <Name_Molregno>
595625

>  <HISTAMINE H4>
3.42

$$$$
595626
  Marvin  02231216192D 0   1.00000     0.00000     0

 24 27  0  0  0  0  0  0  0  0999 V2000
   -0.2266    2.4147    0.0000 N   0  0  0  0  0  0  0  0  0
   -0.2266    1.5897    0.0000 C   0  0  0  0  0  0  0  0  0
    0.4879    1.1772    0.0000 N   0  0  0  0  0  0  0  0  0
    0.4879    0.3522    0.0000 C   0  0  0  0  0  0  0  0  0
    1.2024   -0.0603    0.0000 C   0  0  0  0  0  0  0  0  0
    1.9168    0.3522    0.0000 C   0  0  0  0  0  0  0  0  0
    1.9168    1.1772    0.0000 C   0  0  0  0  0  0  0  0  0
    1.2024    1.5897    0.0000 C   0  0  0  0  0  0  0  0  0
    2.6313    1.5897    0.0000 C   0  0  0  0  0  0  0  0  0
    3.3458    1.1772    0.0000 C   0  0  0  0  0  0  0  0  0
    3.3458    0.3522    0.0000 C   0  0  0  0  0  0  0  0  0
    2.6313   -0.0603    0.0000 C   0  0  0  0  0  0  0  0  0
   -0.9410    1.1772    0.0000 C   0  0  0  0  0  0  0  0  0
   -1.6555    1.5897    0.0000 C   0  0  0  0  0  0  0  0  0
   -1.6555    2.4147    0.0000 N   0  0  0  0  0  0  0  0  0
   -0.9410    2.8272    0.0000 C   0  0  0  0  0  0  0  0  0
   -0.9410    3.6522    0.0000 N   0  0  0  0  0  0  0  0  0
   -2.3700    1.1772    0.0000 N   0  0  0  0  0  0  0  0  0
   -2.3700    0.3522    0.0000 C   0  0  0  0  0  0  0  0  0
   -3.0845   -0.0603    0.0000 C   0  0  0  0  0  0  0  0  0
   -3.7989    0.3522    0.0000 N   0  0  0  0  0  0  0  0  0
   -3.7989    1.1772    0.0000 C   0  0  0  0  0  0  0  0  0
   -3.0845    1.5897    0.0000 C   0  0  0  0  0  0  0  0  0
   -4.5134   -0.0603    0.0000 C   0  0  0  0  0  0  0  0  0
  1  2  4  0  0  0  0
  1 16  4  0  0  0  0
  2  3  1  0  0  0  0
  2 13  4  0  0  0  0
  3  4  1  0  0  0  0
  3  8  1  0  0  0  0
  4  5  1  0  0  0  0
  5  6  1  0  0  0  0
  6  7  4  0  0  0  0
  6 12  4  0  0  0  0
  7  8  1  0  0  0  0
  7  9  4  0  0  0  0
  9 10  4  0  0  0  0
 10 11  4  0  0  0  0
 11 12  4  0  0  0  0
 13 14  4  0  0  0  0
 14 15  4  0  0  0  0
 14 18  1  0  0  0  0
 15 16  4  0  0  0  0
 16 17  1  0  0  0  0
 18 19  1  0  0  0  0
 18 23  1  0  0  0  0
 19 20  1  0  0  0  0
 20 21  1  0  0  0  0
 21 22  1  0  0  0  0
 21 24  1  0  0  0  0
 22 23  1  0  0  0  0
M  END
>  <Name_Molregno>
595626

>  <HISTAMINE H4>
6.84

$$$$
595627
  Marvin  02231216192D 0   1.00000     0.00000     0

 23 26  0  0  0  0  0  0  0  0999 V2000
   -0.0185    2.7005    0.0000 N   0  0  0  0  0  0  0  0  0
    0.3940    1.9860    0.0000 C   0  0  0  0  0  0  0  0  0
    1.2190    1.9860    0.0000 N   0  0  0  0  0  0  0  0  0
    1.7039    1.3186    0.0000 C   0  0  0  0  0  0  0  0  0
    2.4885    1.5735    0.0000 C   0  0  0  0  0  0  0  0  0
    2.4885    2.3985    0.0000 C   0  0  0  0  0  0  0  0  0
    1.7039    2.6535    0.0000 C   0  0  0  0  0  0  0  0  0
    3.2030    2.8110    0.0000 C   0  0  0  0  0  0  0  0  0
    3.9175    2.3985    0.0000 C   0  0  0  0  0  0  0  0  0
    3.9175    1.5735    0.0000 C   0  0  0  0  0  0  0  0  0
    3.2030    1.1610    0.0000 C   0  0  0  0  0  0  0  0  0
   -0.0185    1.2715    0.0000 C   0  0  0  0  0  0  0  0  0
   -0.8435    1.2715    0.0000 C   0  0  0  0  0  0  0  0  0
   -1.2560    1.9860    0.0000 N   0  0  0  0  0  0  0  0  0
   -0.8435    2.7005    0.0000 C   0  0  0  0  0  0  0  0  0
   -1.2560    3.4150    0.0000 N   0  0  0  0  0  0  0  0  0
   -1.2560    0.5571    0.0000 N   0  0  0  0  0  0  0  0  0
   -0.8435   -0.1574    0.0000 C   0  0  0  0  0  0  0  0  0
   -1.2560   -0.8719    0.0000 C   0  0  0  0  0  0  0  0  0
   -2.0810   -0.8719    0.0000 N   0  0  0  0  0  0  0  0  0
   -2.4935   -0.1574    0.0000 C   0  0  0  0  0  0  0  0  0
   -2.0810    0.5571    0.0000 C   0  0  0  0  0  0  0  0  0
   -2.4935   -1.5863    0.0000 C   0  0  0  0  0  0  0  0  0
  1  2  4  0  0  0  0
  1 15  4  0  0  0  0
  2  3  1  0  0  0  0
  2 12  4  0  0  0  0
  3  4  1  0  0  0  0
  3  7  1  0  0  0  0
  4  5  1  0  0  0  0
  5  6  4  0  0  0  0
  5 11  4  0  0  0  0
  6  7  1  0  0  0  0
  6  8  4  0  0  0  0
  8  9  4  0  0  0  0
  9 10  4  0  0  0  0
 10 11  4  0  0  0  0
 12 13  4  0  0  0  0
 13 14  4  0  0  0  0
 13 17  1  0  0  0  0
 14 15  4  0  0  0  0
 15 16  1  0  0  0  0
 17 18  1  0  0  0  0
 17 22  1  0  0  0  0
 18 19  1  0  0  0  0
 19 20  1  0  0  0  0
 20 21  1  0  0  0  0
 20 23  1  0  0  0  0
 21 22  1  0  0  0  0
M  END
>  <Name_Molregno>
595627

>  <HISTAMINE H4>
6.61

$$$$
595644
  Marvin  02231216192D 0   1.00000     0.00000     0

 22 24  0  0  0  0  0  0  0  0999 V2000
   -1.4674   -1.0036    0.0000 O   0  0  0  0  0  0  0  0  0
   -2.1819   -1.4161    0.0000 C   0  0  0  0  0  0  0  0  0
   -2.1819   -2.2411    0.0000 C   0  0  0  0  0  0  0  0  0
   -1.4674   -2.6536    0.0000 C   0  0  0  0  0  0  0  0  0
   -1.4674   -3.4786    0.0000 C   0  0  0  0  0  0  0  0  0
   -2.1819   -3.8911    0.0000 C   0  0  0  0  0  0  0  0  0
   -2.8963   -3.4786    0.0000 C   0  0  0  0  0  0  0  0  0
   -2.8963   -2.6536    0.0000 C   0  0  0  0  0  0  0  0  0
   -1.4674   -0.1786    0.0000 C   0  0  0  0  0  0  0  0  0
   -2.1819    0.2339    0.0000 N   0  0  0  0  0  0  0  0  0
   -2.1819    1.0589    0.0000 C   0  0  0  0  0  0  0  0  0
   -1.4674    1.4714    0.0000 N   0  0  0  0  0  0  0  0  0
   -0.7529    1.0589    0.0000 C   0  0  0  0  0  0  0  0  0
   -0.0385    1.4714    0.0000 N   0  0  0  0  0  0  0  0  0
   -0.0385    2.2964    0.0000 C   0  0  0  0  0  0  0  0  0
    0.6760    2.7089    0.0000 C   0  0  0  0  0  0  0  0  0
    1.3905    2.2964    0.0000 N   0  0  0  0  0  0  0  0  0
    1.3905    1.4714    0.0000 C   0  0  0  0  0  0  0  0  0
    0.6760    1.0589    0.0000 C   0  0  0  0  0  0  0  0  0
    2.1049    2.7089    0.0000 C   0  0  0  0  0  0  0  0  0
   -0.7529    0.2339    0.0000 C   0  0  0  0  0  0  0  0  0
   -2.8963    1.4714    0.0000 N   0  0  0  0  0  0  0  0  0
  1  2  1  0  0  0  0
  1  9  1  0  0  0  0
  2  3  1  0  0  0  0
  3  4  4  0  0  0  0
  3  8  4  0  0  0  0
  4  5  4  0  0  0  0
  5  6  4  0  0  0  0
  6  7  4  0  0  0  0
  7  8  4  0  0  0  0
  9 10  4  0  0  0  0
  9 21  4  0  0  0  0
 10 11  4  0  0  0  0
 11 12  4  0  0  0  0
 11 22  1  0  0  0  0
 12 13  4  0  0  0  0
 13 14  1  0  0  0  0
 13 21  4  0  0  0  0
 14 15  1  0  0  0  0
 14 19  1  0  0  0  0
 15 16  1  0  0  0  0
 16 17  1  0  0  0  0
 17 18  1  0  0  0  0
 17 20  1  0  0  0  0
 18 19  1  0  0  0  0
M  END
>  <Name_Molregno>
595644

>  <HISTAMINE H4>
5.6

$$$$
595658
  Marvin  02231216192D 0   1.00000     0.00000     0

 22 24  0  0  0  0  0  0  0  0999 V2000
   -1.4674   -1.0036    0.0000 S   0  0  0  0  0  0  0  0  0
   -2.1819   -1.4161    0.0000 C   0  0  0  0  0  0  0  0  0
   -2.1819   -2.2411    0.0000 C   0  0  0  0  0  0  0  0  0
   -1.4674   -2.6536    0.0000 C   0  0  0  0  0  0  0  0  0
   -1.4674   -3.4786    0.0000 C   0  0  0  0  0  0  0  0  0
   -2.1819   -3.8911    0.0000 C   0  0  0  0  0  0  0  0  0
   -2.8963   -3.4786    0.0000 C   0  0  0  0  0  0  0  0  0
   -2.8963   -2.6536    0.0000 C   0  0  0  0  0  0  0  0  0
   -1.4674   -0.1786    0.0000 C   0  0  0  0  0  0  0  0  0
   -2.1819    0.2339    0.0000 N   0  0  0  0  0  0  0  0  0
   -2.1819    1.0589    0.0000 C   0  0  0  0  0  0  0  0  0
   -1.4674    1.4714    0.0000 N   0  0  0  0  0  0  0  0  0
   -0.7529    1.0589    0.0000 C   0  0  0  0  0  0  0  0  0
   -0.0385    1.4714    0.0000 N   0  0  0  0  0  0  0  0  0
   -0.0385    2.2964    0.0000 C   0  0  0  0  0  0  0  0  0
    0.6760    2.7089    0.0000 C   0  0  0  0  0  0  0  0  0
    1.3905    2.2964    0.0000 N   0  0  0  0  0  0  0  0  0
    1.3905    1.4714    0.0000 C   0  0  0  0  0  0  0  0  0
    0.6760    1.0589    0.0000 C   0  0  0  0  0  0  0  0  0
    2.1049    2.7089    0.0000 C   0  0  0  0  0  0  0  0  0
   -0.7529    0.2339    0.0000 C   0  0  0  0  0  0  0  0  0
   -2.8963    1.4714    0.0000 N   0  0  0  0  0  0  0  0  0
  1  2  1  0  0  0  0
  1  9  1  0  0  0  0
  2  3  1  0  0  0  0
  3  4  4  0  0  0  0
  3  8  4  0  0  0  0
  4  5  4  0  0  0  0
  5  6  4  0  0  0  0
  6  7  4  0  0  0  0
  7  8  4  0  0  0  0
  9 10  4  0  0  0  0
  9 21  4  0  0  0  0
 10 11  4  0  0  0  0
 11 12  4  0  0  0  0
 11 22  1  0  0  0  0
 12 13  4  0  0  0  0
 13 14  1  0  0  0  0
 13 21  4  0  0  0  0
 14 15  1  0  0  0  0
 14 19  1  0  0  0  0
 15 16  1  0  0  0  0
 16 17  1  0  0  0  0
 17 18  1  0  0  0  0
 17 20  1  0  0  0  0
 18 19  1  0  0  0  0
M  END
>  <Name_Molregno>
595658

>  <HISTAMINE H4>
4.86

$$$$
595659
  Marvin  02231216192D 0   1.00000     0.00000     0

 23 25  0  0  0  0  0  0  0  0999 V2000
    5.4481    5.5471    0.0000 Cl  0  0  0  0  0  0  0  0  0
    5.4481    4.7221    0.0000 C   0  0  0  0  0  0  0  0  0
    6.1626    4.3096    0.0000 C   0  0  0  0  0  0  0  0  0
    6.1626    3.4846    0.0000 C   0  0  0  0  0  0  0  0  0
    5.4481    3.0721    0.0000 C   0  0  0  0  0  0  0  0  0
    4.7336    3.4846    0.0000 C   0  0  0  0  0  0  0  0  0
    4.7336    4.3096    0.0000 C   0  0  0  0  0  0  0  0  0
    5.4481    2.2471    0.0000 C   0  0  0  0  0  0  0  0  0
    4.7336    1.8346    0.0000 N   0  0  0  0  0  0  0  0  0
    4.7336    1.0096    0.0000 C   0  0  0  0  0  0  0  0  0
    5.4481    0.5971    0.0000 N   0  0  0  0  0  0  0  0  0
    5.4481   -0.2279    0.0000 C   0  0  0  0  0  0  0  0  0
    4.7336   -0.6404    0.0000 N   0  0  0  0  0  0  0  0  0
    4.0191   -0.2279    0.0000 C   0  0  0  0  0  0  0  0  0
    3.3047   -0.6404    0.0000 N   0  0  0  0  0  0  0  0  0
    3.3047   -1.4654    0.0000 C   0  0  0  0  0  0  0  0  0
    2.5902   -1.8779    0.0000 C   0  0  0  0  0  0  0  0  0
    1.8757   -1.4654    0.0000 N   0  0  0  0  0  0  0  0  0
    1.8757   -0.6404    0.0000 C   0  0  0  0  0  0  0  0  0
    2.5902   -0.2279    0.0000 C   0  0  0  0  0  0  0  0  0
    1.1613   -1.8779    0.0000 C   0  0  0  0  0  0  0  0  0
    4.0191    0.5971    0.0000 C   0  0  0  0  0  0  0  0  0
    6.1626   -0.6404    0.0000 N   0  0  0  0  0  0  0  0  0
  1  2  1  0  0  0  0
  2  3  4  0  0  0  0
  2  7  4  0  0  0  0
  3  4  4  0  0  0  0
  4  5  4  0  0  0  0
  5  6  4  0  0  0  0
  5  8  1  0  0  0  0
  6  7  4  0  0  0  0
  8  9  1  0  0  0  0
  9 10  1  0  0  0  0
 10 11  4  0  0  0  0
 10 22  4  0  0  0  0
 11 12  4  0  0  0  0
 12 13  4  0  0  0  0
 12 23  1  0  0  0  0
 13 14  4  0  0  0  0
 14 15  1  0  0  0  0
 14 22  4  0  0  0  0
 15 16  1  0  0  0  0
 15 20  1  0  0  0  0
 16 17  1  0  0  0  0
 17 18  1  0  0  0  0
 18 19  1  0  0  0  0
 18 21  1  0  0  0  0
 19 20  1  0  0  0  0
M  END
>  <Name_Molregno>
595659

>  <HISTAMINE H4>
7.15

$$$$
595682
  Marvin  02231216192D 0   1.00000     0.00000     0

 24 26  0  0  0  0  0  0  0  0999 V2000
   -3.0272    5.2859    0.0000 O   0  0  0  0  0  0  0  0  0
   -3.7416    5.6984    0.0000 C   0  0  0  0  0  0  0  0  0
   -3.0272    4.4609    0.0000 C   0  0  0  0  0  0  0  0  0
   -2.3127    4.0484    0.0000 C   0  0  0  0  0  0  0  0  0
   -2.3127    3.2234    0.0000 C   0  0  0  0  0  0  0  0  0
   -3.0272    2.8109    0.0000 C   0  0  0  0  0  0  0  0  0
   -3.7416    3.2234    0.0000 C   0  0  0  0  0  0  0  0  0
   -3.7416    4.0484    0.0000 C   0  0  0  0  0  0  0  0  0
   -3.0272    1.9859    0.0000 C   0  0  0  0  0  0  0  0  0
   -3.7416    1.5734    0.0000 N   0  0  0  0  0  0  0  0  0
   -3.7416    0.7484    0.0000 C   0  0  0  0  0  0  0  0  0
   -3.0272    0.3359    0.0000 N   0  0  0  0  0  0  0  0  0
   -3.0272   -0.4891    0.0000 C   0  0  0  0  0  0  0  0  0
   -3.7416   -0.9016    0.0000 N   0  0  0  0  0  0  0  0  0
   -4.4561   -0.4891    0.0000 C   0  0  0  0  0  0  0  0  0
   -5.1706   -0.9016    0.0000 N   0  0  0  0  0  0  0  0  0
   -5.1706   -1.7266    0.0000 C   0  0  0  0  0  0  0  0  0
   -5.8850   -2.1391    0.0000 C   0  0  0  0  0  0  0  0  0
   -6.5995   -1.7266    0.0000 N   0  0  0  0  0  0  0  0  0
   -6.5995   -0.9016    0.0000 C   0  0  0  0  0  0  0  0  0
   -5.8850   -0.4891    0.0000 C   0  0  0  0  0  0  0  0  0
   -7.3140   -2.1391    0.0000 C   0  0  0  0  0  0  0  0  0
   -4.4561    0.3359    0.0000 C   0  0  0  0  0  0  0  0  0
   -2.3127   -0.9016    0.0000 N   0  0  0  0  0  0  0  0  0
  1  2  1  0  0  0  0
  1  3  1  0  0  0  0
  3  4  4  0  0  0  0
  3  8  4  0  0  0  0
  4  5  4  0  0  0  0
  5  6  4  0  0  0  0
  6  7  4  0  0  0  0
  6  9  1  0  0  0  0
  7  8  4  0  0  0  0
  9 10  1  0  0  0  0
 10 11  1  0  0  0  0
 11 12  4  0  0  0  0
 11 23  4  0  0  0  0
 12 13  4  0  0  0  0
 13 14  4  0  0  0  0
 13 24  1  0  0  0  0
 14 15  4  0  0  0  0
 15 16  1  0  0  0  0
 15 23  4  0  0  0  0
 16 17  1  0  0  0  0
 16 21  1  0  0  0  0
 17 18  1  0  0  0  0
 18 19  1  0  0  0  0
 19 20  1  0  0  0  0
 19 22  1  0  0  0  0
 20 21  1  0  0  0  0
M  END
>  <Name_Molregno>
595682

>  <HISTAMINE H4>
6.27

$$$$
595683
  Marvin  02231216192D 0   1.00000     0.00000     0

 23 25  0  0  0  0  0  0  0  0999 V2000
    5.4481    5.5471    0.0000 O   0  0  0  0  0  0  0  0  0
    5.4481    4.7221    0.0000 C   0  0  0  0  0  0  0  0  0
    6.1626    4.3096    0.0000 C   0  0  0  0  0  0  0  0  0
    6.1626    3.4846    0.0000 C   0  0  0  0  0  0  0  0  0
    5.4481    3.0721    0.0000 C   0  0  0  0  0  0  0  0  0
    4.7336    3.4846    0.0000 C   0  0  0  0  0  0  0  0  0
    4.7336    4.3096    0.0000 C   0  0  0  0  0  0  0  0  0
    5.4481    2.2471    0.0000 C   0  0  0  0  0  0  0  0  0
    4.7336    1.8346    0.0000 N   0  0  0  0  0  0  0  0  0
    4.7336    1.0096    0.0000 C   0  0  0  0  0  0  0  0  0
    5.4481    0.5971    0.0000 N   0  0  0  0  0  0  0  0  0
    5.4481   -0.2279    0.0000 C   0  0  0  0  0  0  0  0  0
    4.7336   -0.6404    0.0000 N   0  0  0  0  0  0  0  0  0
    4.0191   -0.2279    0.0000 C   0  0  0  0  0  0  0  0  0
    3.3047   -0.6404    0.0000 N   0  0  0  0  0  0  0  0  0
    3.3047   -1.4654    0.0000 C   0  0  0  0  0  0  0  0  0
    2.5902   -1.8779    0.0000 C   0  0  0  0  0  0  0  0  0
    1.8757   -1.4654    0.0000 N   0  0  0  0  0  0  0  0  0
    1.8757   -0.6404    0.0000 C   0  0  0  0  0  0  0  0  0
    2.5902   -0.2279    0.0000 C   0  0  0  0  0  0  0  0  0
    1.1613   -1.8779    0.0000 C   0  0  0  0  0  0  0  0  0
    4.0191    0.5971    0.0000 C   0  0  0  0  0  0  0  0  0
    6.1626   -0.6404    0.0000 N   0  0  0  0  0  0  0  0  0
  1  2  1  0  0  0  0
  2  3  4  0  0  0  0
  2  7  4  0  0  0  0
  3  4  4  0  0  0  0
  4  5  4  0  0  0  0
  5  6  4  0  0  0  0
  5  8  1  0  0  0  0
  6  7  4  0  0  0  0
  8  9  1  0  0  0  0
  9 10  1  0  0  0  0
 10 11  4  0  0  0  0
 10 22  4  0  0  0  0
 11 12  4  0  0  0  0
 12 13  4  0  0  0  0
 12 23  1  0  0  0  0
 13 14  4  0  0  0  0
 14 15  1  0  0  0  0
 14 22  4  0  0  0  0
 15 16  1  0  0  0  0
 15 20  1  0  0  0  0
 16 17  1  0  0  0  0
 17 18  1  0  0  0  0
 18 19  1  0  0  0  0
 18 21  1  0  0  0  0
 19 20  1  0  0  0  0
M  END
>  <Name_Molregno>
595683

>  <HISTAMINE H4>
6.63

$$$$
595715
  Marvin  02231216192D 0   1.00000     0.00000     0

 24 26  0  0  0  0  0  0  0  0999 V2000
    2.3300    3.4677    0.0000 Cl  0  0  0  0  0  0  0  0  0
    2.3300    2.6427    0.0000 C   0  0  0  0  0  0  0  0  0
    3.0445    2.2302    0.0000 C   0  0  0  0  0  0  0  0  0
    3.0445    1.4052    0.0000 C   0  0  0  0  0  0  0  0  0
    2.3300    0.9927    0.0000 C   0  0  0  0  0  0  0  0  0
    1.6156    1.4052    0.0000 C   0  0  0  0  0  0  0  0  0
    1.6156    2.2302    0.0000 C   0  0  0  0  0  0  0  0  0
    0.9011    2.6427    0.0000 Cl  0  0  0  0  0  0  0  0  0
    3.7590    0.9927    0.0000 C   0  0  0  0  0  0  0  0  0
    3.7590    0.1677    0.0000 N   0  0  0  0  0  0  0  0  0
    4.4734   -0.2448    0.0000 C   0  0  0  0  0  0  0  0  0
    5.1879    0.1677    0.0000 N   0  0  0  0  0  0  0  0  0
    5.9024   -0.2448    0.0000 C   0  0  0  0  0  0  0  0  0
    5.9024   -1.0698    0.0000 N   0  0  0  0  0  0  0  0  0
    5.1879   -1.4823    0.0000 C   0  0  0  0  0  0  0  0  0
    5.1879   -2.3073    0.0000 N   0  0  0  0  0  0  0  0  0
    5.9024   -2.7198    0.0000 C   0  0  0  0  0  0  0  0  0
    5.9024   -3.5448    0.0000 C   0  0  0  0  0  0  0  0  0
    5.1879   -3.9573    0.0000 N   0  0  0  0  0  0  0  0  0
    4.4734   -3.5448    0.0000 C   0  0  0  0  0  0  0  0  0
    4.4734   -2.7198    0.0000 C   0  0  0  0  0  0  0  0  0
    5.1879   -4.7823    0.0000 C   0  0  0  0  0  0  0  0  0
    4.4734   -1.0698    0.0000 C   0  0  0  0  0  0  0  0  0
    6.6169    0.1677    0.0000 N   0  0  0  0  0  0  0  0  0
  1  2  1  0  0  0  0
  2  3  4  0  0  0  0
  2  7  4  0  0  0  0
  3  4  4  0  0  0  0
  4  5  4  0  0  0  0
  4  9  1  0  0  0  0
  5  6  4  0  0  0  0
  6  7  4  0  0  0  0
  7  8  1  0  0  0  0
  9 10  1  0  0  0  0
 10 11  1  0  0  0  0
 11 12  4  0  0  0  0
 11 23  4  0  0  0  0
 12 13  4  0  0  0  0
 13 14  4  0  0  0  0
 13 24  1  0  0  0  0
 14 15  4  0  0  0  0
 15 16  1  0  0  0  0
 15 23  4  0  0  0  0
 16 17  1  0  0  0  0
 16 21  1  0  0  0  0
 17 18  1  0  0  0  0
 18 19  1  0  0  0  0
 19 20  1  0  0  0  0
 19 22  1  0  0  0  0
 20 21  1  0  0  0  0
M  END
>  <Name_Molregno>
595715

>  <HISTAMINE H4>
6.82

$$$$
595716
  Marvin  02231216192D 0   1.00000     0.00000     0

 26 28  0  0  0  0  0  0  0  0999 V2000
    5.5973    5.6771    0.0000 F   0  0  0  0  0  0  0  0  0
    5.5973    4.8521    0.0000 C   0  0  0  0  0  0  0  0  0
    4.7723    4.8521    0.0000 F   0  0  0  0  0  0  0  0  0
    6.4223    4.8521    0.0000 F   0  0  0  0  0  0  0  0  0
    5.5973    4.0271    0.0000 C   0  0  0  0  0  0  0  0  0
    6.3118    3.6146    0.0000 C   0  0  0  0  0  0  0  0  0
    6.3118    2.7896    0.0000 C   0  0  0  0  0  0  0  0  0
    5.5973    2.3771    0.0000 C   0  0  0  0  0  0  0  0  0
    4.8828    2.7896    0.0000 C   0  0  0  0  0  0  0  0  0
    4.8828    3.6146    0.0000 C   0  0  0  0  0  0  0  0  0
    5.5973    1.5521    0.0000 C   0  0  0  0  0  0  0  0  0
    4.8828    1.1396    0.0000 N   0  0  0  0  0  0  0  0  0
    4.8828    0.3146    0.0000 C   0  0  0  0  0  0  0  0  0
    5.5973   -0.0979    0.0000 N   0  0  0  0  0  0  0  0  0
    5.5973   -0.9229    0.0000 C   0  0  0  0  0  0  0  0  0
    4.8828   -1.3354    0.0000 N   0  0  0  0  0  0  0  0  0
    4.1684   -0.9229    0.0000 C   0  0  0  0  0  0  0  0  0
    3.4539   -1.3354    0.0000 N   0  0  0  0  0  0  0  0  0
    3.4539   -2.1604    0.0000 C   0  0  0  0  0  0  0  0  0
    2.7394   -2.5729    0.0000 C   0  0  0  0  0  0  0  0  0
    2.0250   -2.1604    0.0000 N   0  0  0  0  0  0  0  0  0
    2.0250   -1.3354    0.0000 C   0  0  0  0  0  0  0  0  0
    2.7394   -0.9229    0.0000 C   0  0  0  0  0  0  0  0  0
    1.3105   -2.5729    0.0000 C   0  0  0  0  0  0  0  0  0
    4.1684   -0.0979    0.0000 C   0  0  0  0  0  0  0  0  0
    6.3118   -1.3354    0.0000 N   0  0  0  0  0  0  0  0  0
  1  2  1  0  0  0  0
  2  3  1  0  0  0  0
  2  4  1  0  0  0  0
  2  5  1  0  0  0  0
  5  6  4  0  0  0  0
  5 10  4  0  0  0  0
  6  7  4  0  0  0  0
  7  8  4  0  0  0  0
  8  9  4  0  0  0  0
  8 11  1  0  0  0  0
  9 10  4  0  0  0  0
 11 12  1  0  0  0  0
 12 13  1  0  0  0  0
 13 14  4  0  0  0  0
 13 25  4  0  0  0  0
 14 15  4  0  0  0  0
 15 16  4  0  0  0  0
 15 26  1  0  0  0  0
 16 17  4  0  0  0  0
 17 18  1  0  0  0  0
 17 25  4  0  0  0  0
 18 19  1  0  0  0  0
 18 23  1  0  0  0  0
 19 20  1  0  0  0  0
 20 21  1  0  0  0  0
 21 22  1  0  0  0  0
 21 24  1  0  0  0  0
 22 23  1  0  0  0  0
M  END
>  <Name_Molregno>
595716

>  <HISTAMINE H4>
5.92

$$$$
595729
  Marvin  02231216192D 0   1.00000     0.00000     0

 23 25  0  0  0  0  0  0  0  0999 V2000
    2.7516    2.0394    0.0000 N   0  0  0  0  0  0  0  0  0
    2.7516    1.2144    0.0000 C   0  0  0  0  0  0  0  0  0
    3.4660    0.8019    0.0000 N   0  0  0  0  0  0  0  0  0
    4.1805    1.2144    0.0000 C   0  0  0  0  0  0  0  0  0
    4.8950    0.8019    0.0000 C   0  0  0  0  0  0  0  0  0
    4.8950   -0.0231    0.0000 N   0  0  0  0  0  0  0  0  0
    4.1805   -0.4356    0.0000 C   0  0  0  0  0  0  0  0  0
    3.4660   -0.0231    0.0000 C   0  0  0  0  0  0  0  0  0
    5.6095   -0.4356    0.0000 C   0  0  0  0  0  0  0  0  0
    2.0371    0.8019    0.0000 C   0  0  0  0  0  0  0  0  0
    1.3226    1.2144    0.0000 C   0  0  0  0  0  0  0  0  0
    1.3226    2.0394    0.0000 N   0  0  0  0  0  0  0  0  0
    2.0371    2.4519    0.0000 C   0  0  0  0  0  0  0  0  0
    2.0371    3.2769    0.0000 N   0  0  0  0  0  0  0  0  0
    0.6082    0.8019    0.0000 N   0  0  0  0  0  0  0  0  0
    0.6082   -0.0231    0.0000 C   0  0  0  0  0  0  0  0  0
   -0.1063   -0.4356    0.0000 C   0  0  0  0  0  0  0  0  0
   -0.1063   -1.2606    0.0000 C   0  0  0  0  0  0  0  0  0
   -0.8208   -1.6731    0.0000 C   0  0  0  0  0  0  0  0  0
   -1.5353   -1.2606    0.0000 C   0  0  0  0  0  0  0  0  0
   -1.5353   -0.4356    0.0000 C   0  0  0  0  0  0  0  0  0
   -0.8208   -0.0231    0.0000 C   0  0  0  0  0  0  0  0  0
   -2.2497   -1.6731    0.0000 C   0  0  0  0  0  0  0  0  0
  1  2  4  0  0  0  0
  1 13  4  0  0  0  0
  2  3  1  0  0  0  0
  2 10  4  0  0  0  0
  3  4  1  0  0  0  0
  3  8  1  0  0  0  0
  4  5  1  0  0  0  0
  5  6  1  0  0  0  0
  6  7  1  0  0  0  0
  6  9  1  0  0  0  0
  7  8  1  0  0  0  0
 10 11  4  0  0  0  0
 11 12  4  0  0  0  0
 11 15  1  0  0  0  0
 12 13  4  0  0  0  0
 13 14  1  0  0  0  0
 15 16  1  0  0  0  0
 16 17  1  0  0  0  0
 17 18  4  0  0  0  0
 17 22  4  0  0  0  0
 18 19  4  0  0  0  0
 19 20  4  0  0  0  0
 20 21  4  0  0  0  0
 20 23  1  0  0  0  0
 21 22  4  0  0  0  0
M  END
>  <Name_Molregno>
595729

>  <HISTAMINE H4>
6.69

$$$$
595730
  Marvin  02231216192D 0   1.00000     0.00000     0

 23 25  0  0  0  0  0  0  0  0999 V2000
    2.3715    3.6807    0.0000 Cl  0  0  0  0  0  0  0  0  0
    2.3715    2.8557    0.0000 C   0  0  0  0  0  0  0  0  0
    3.0860    2.4432    0.0000 C   0  0  0  0  0  0  0  0  0
    3.0860    1.6182    0.0000 C   0  0  0  0  0  0  0  0  0
    2.3715    1.2057    0.0000 C   0  0  0  0  0  0  0  0  0
    1.6570    1.6182    0.0000 C   0  0  0  0  0  0  0  0  0
    1.6570    2.4432    0.0000 C   0  0  0  0  0  0  0  0  0
    3.8004    1.2057    0.0000 C   0  0  0  0  0  0  0  0  0
    3.8004    0.3807    0.0000 N   0  0  0  0  0  0  0  0  0
    4.5149   -0.0318    0.0000 C   0  0  0  0  0  0  0  0  0
    5.2294    0.3807    0.0000 N   0  0  0  0  0  0  0  0  0
    5.9438   -0.0318    0.0000 C   0  0  0  0  0  0  0  0  0
    5.9438   -0.8568    0.0000 N   0  0  0  0  0  0  0  0  0
    5.2294   -1.2693    0.0000 C   0  0  0  0  0  0  0  0  0
    5.2294   -2.0943    0.0000 N   0  0  0  0  0  0  0  0  0
    5.9438   -2.5068    0.0000 C   0  0  0  0  0  0  0  0  0
    5.9438   -3.3318    0.0000 C   0  0  0  0  0  0  0  0  0
    5.2294   -3.7443    0.0000 N   0  0  0  0  0  0  0  0  0
    4.5149   -3.3318    0.0000 C   0  0  0  0  0  0  0  0  0
    4.5149   -2.5068    0.0000 C   0  0  0  0  0  0  0  0  0
    5.2294   -4.5693    0.0000 C   0  0  0  0  0  0  0  0  0
    4.5149   -0.8568    0.0000 C   0  0  0  0  0  0  0  0  0
    6.6583    0.3807    0.0000 N   0  0  0  0  0  0  0  0  0
  1  2  1  0  0  0  0
  2  3  4  0  0  0  0
  2  7  4  0  0  0  0
  3  4  4  0  0  0  0
  4  5  4  0  0  0  0
  4  8  1  0  0  0  0
  5  6  4  0  0  0  0
  6  7  4  0  0  0  0
  8  9  1  0  0  0  0
  9 10  1  0  0  0  0
 10 11  4  0  0  0  0
 10 22  4  0  0  0  0
 11 12  4  0  0  0  0
 12 13  4  0  0  0  0
 12 23  1  0  0  0  0
 13 14  4  0  0  0  0
 14 15  1  0  0  0  0
 14 22  4  0  0  0  0
 15 16  1  0  0  0  0
 15 20  1  0  0  0  0
 16 17  1  0  0  0  0
 17 18  1  0  0  0  0
 18 19  1  0  0  0  0
 18 21  1  0  0  0  0
 19 20  1  0  0  0  0
M  END
>  <Name_Molregno>
595730

>  <HISTAMINE H4>
6.54

$$$$
595746
  Marvin  02231216192D 0   1.00000     0.00000     0

 25 27  0  0  0  0  0  0  0  0999 V2000
    2.1337    3.8876    0.0000 O   0  5  0  0  0  0  0  0  0
    2.8482    3.4751    0.0000 N   0  3  0  0  0  0  0  0  0
    3.5626    3.8876    0.0000 O   0  5  0  0  0  0  0  0  0
    2.8482    2.6501    0.0000 C   0  0  0  0  0  0  0  0  0
    3.5626    2.2376    0.0000 C   0  0  0  0  0  0  0  0  0
    3.5626    1.4126    0.0000 C   0  0  0  0  0  0  0  0  0
    2.8482    1.0001    0.0000 C   0  0  0  0  0  0  0  0  0
    2.1337    1.4126    0.0000 C   0  0  0  0  0  0  0  0  0
    2.1337    2.2376    0.0000 C   0  0  0  0  0  0  0  0  0
    4.2771    1.0001    0.0000 C   0  0  0  0  0  0  0  0  0
    4.2771    0.1751    0.0000 N   0  0  0  0  0  0  0  0  0
    4.9916   -0.2374    0.0000 C   0  0  0  0  0  0  0  0  0
    5.7061    0.1751    0.0000 N   0  0  0  0  0  0  0  0  0
    6.4205   -0.2374    0.0000 C   0  0  0  0  0  0  0  0  0
    6.4205   -1.0624    0.0000 N   0  0  0  0  0  0  0  0  0
    5.7061   -1.4749    0.0000 C   0  0  0  0  0  0  0  0  0
    5.7061   -2.2999    0.0000 N   0  0  0  0  0  0  0  0  0
    6.4205   -2.7124    0.0000 C   0  0  0  0  0  0  0  0  0
    6.4205   -3.5374    0.0000 C   0  0  0  0  0  0  0  0  0
    5.7061   -3.9499    0.0000 N   0  0  0  0  0  0  0  0  0
    4.9916   -3.5374    0.0000 C   0  0  0  0  0  0  0  0  0
    4.9916   -2.7124    0.0000 C   0  0  0  0  0  0  0  0  0
    5.7061   -4.7749    0.0000 C   0  0  0  0  0  0  0  0  0
    4.9916   -1.0624    0.0000 C   0  0  0  0  0  0  0  0  0
    7.1350    0.1751    0.0000 N   0  0  0  0  0  0  0  0  0
  1  2  1  0  0  0  0
  2  3  1  0  0  0  0
  2  4  1  0  0  0  0
  4  5  4  0  0  0  0
  4  9  4  0  0  0  0
  5  6  4  0  0  0  0
  6  7  4  0  0  0  0
  6 10  1  0  0  0  0
  7  8  4  0  0  0  0
  8  9  4  0  0  0  0
 10 11  1  0  0  0  0
 11 12  1  0  0  0  0
 12 13  4  0  0  0  0
 12 24  4  0  0  0  0
 13 14  4  0  0  0  0
 14 15  4  0  0  0  0
 14 25  1  0  0  0  0
 15 16  4  0  0  0  0
 16 17  1  0  0  0  0
 16 24  4  0  0  0  0
 17 18  1  0  0  0  0
 17 22  1  0  0  0  0
 18 19  1  0  0  0  0
 19 20  1  0  0  0  0
 20 21  1  0  0  0  0
 20 23  1  0  0  0  0
 21 22  1  0  0  0  0
M  CHG  3   1  -1   2   1   3  -1
M  END
>  <Name_Molregno>
595746

>  <HISTAMINE H4>
6.27

$$$$
595747
  Marvin  02231216192D 0   1.00000     0.00000     0

 23 25  0  0  0  0  0  0  0  0999 V2000
    1.5305    3.2912    0.0000 N   0  0  0  0  0  0  0  0  0
    1.5305    2.4662    0.0000 C   0  0  0  0  0  0  0  0  0
    2.2450    2.0537    0.0000 N   0  0  0  0  0  0  0  0  0
    2.9594    2.4662    0.0000 C   0  0  0  0  0  0  0  0  0
    3.6739    2.0537    0.0000 C   0  0  0  0  0  0  0  0  0
    3.6739    1.2287    0.0000 N   0  0  0  0  0  0  0  0  0
    2.9594    0.8162    0.0000 C   0  0  0  0  0  0  0  0  0
    2.2450    1.2287    0.0000 C   0  0  0  0  0  0  0  0  0
    4.3884    0.8162    0.0000 C   0  0  0  0  0  0  0  0  0
    0.8160    2.0537    0.0000 C   0  0  0  0  0  0  0  0  0
    0.1015    2.4662    0.0000 C   0  0  0  0  0  0  0  0  0
    0.1015    3.2912    0.0000 N   0  0  0  0  0  0  0  0  0
    0.8160    3.7037    0.0000 C   0  0  0  0  0  0  0  0  0
    0.8160    4.5287    0.0000 N   0  0  0  0  0  0  0  0  0
   -0.6129    2.0537    0.0000 N   0  0  0  0  0  0  0  0  0
   -0.6129    1.2287    0.0000 C   0  0  0  0  0  0  0  0  0
   -1.3274    0.8162    0.0000 C   0  0  0  0  0  0  0  0  0
   -1.3274   -0.0088    0.0000 C   0  0  0  0  0  0  0  0  0
   -2.0419   -0.4213    0.0000 C   0  0  0  0  0  0  0  0  0
   -2.7563   -0.0088    0.0000 C   0  0  0  0  0  0  0  0  0
   -2.7563    0.8162    0.0000 C   0  0  0  0  0  0  0  0  0
   -2.0419    1.2287    0.0000 C   0  0  0  0  0  0  0  0  0
   -2.0419   -1.2463    0.0000 C   0  0  0  0  0  0  0  0  0
  1  2  4  0  0  0  0
  1 13  4  0  0  0  0
  2  3  1  0  0  0  0
  2 10  4  0  0  0  0
  3  4  1  0  0  0  0
  3  8  1  0  0  0  0
  4  5  1  0  0  0  0
  5  6  1  0  0  0  0
  6  7  1  0  0  0  0
  6  9  1  0  0  0  0
  7  8  1  0  0  0  0
 10 11  4  0  0  0  0
 11 12  4  0  0  0  0
 11 15  1  0  0  0  0
 12 13  4  0  0  0  0
 13 14  1  0  0  0  0
 15 16  1  0  0  0  0
 16 17  1  0  0  0  0
 17 18  4  0  0  0  0
 17 22  4  0  0  0  0
 18 19  4  0  0  0  0
 19 20  4  0  0  0  0
 19 23  1  0  0  0  0
 20 21  4  0  0  0  0
 21 22  4  0  0  0  0
M  END
>  <Name_Molregno>
595747

>  <HISTAMINE H4>
6.55

$$$$
595768
  Marvin  02231216192D 0   1.00000     0.00000     0

 23 25  0  0  0  0  0  0  0  0999 V2000
    4.8973   -1.8913    0.0000 Cl  0  0  0  0  0  0  0  0  0
    4.8973   -2.7163    0.0000 C   0  0  0  0  0  0  0  0  0
    5.6117   -3.1288    0.0000 C   0  0  0  0  0  0  0  0  0
    5.6117   -3.9538    0.0000 C   0  0  0  0  0  0  0  0  0
    4.8973   -4.3663    0.0000 C   0  0  0  0  0  0  0  0  0
    4.1828   -3.9538    0.0000 C   0  0  0  0  0  0  0  0  0
    4.1828   -3.1288    0.0000 C   0  0  0  0  0  0  0  0  0
    3.4683   -2.7163    0.0000 C   0  0  0  0  0  0  0  0  0
    3.4683   -1.8913    0.0000 N   0  0  0  0  0  0  0  0  0
    2.7539   -1.4788    0.0000 C   0  0  0  0  0  0  0  0  0
    2.0394   -1.8913    0.0000 N   0  0  0  0  0  0  0  0  0
    1.3249   -1.4788    0.0000 C   0  0  0  0  0  0  0  0  0
    1.3249   -0.6538    0.0000 N   0  0  0  0  0  0  0  0  0
    2.0394   -0.2413    0.0000 C   0  0  0  0  0  0  0  0  0
    2.0394    0.5837    0.0000 N   0  0  0  0  0  0  0  0  0
    1.3249    0.9962    0.0000 C   0  0  0  0  0  0  0  0  0
    1.3249    1.8212    0.0000 C   0  0  0  0  0  0  0  0  0
    2.0394    2.2337    0.0000 N   0  0  0  0  0  0  0  0  0
    2.7539    1.8212    0.0000 C   0  0  0  0  0  0  0  0  0
    2.7539    0.9962    0.0000 C   0  0  0  0  0  0  0  0  0
    2.0394    3.0587    0.0000 C   0  0  0  0  0  0  0  0  0
    2.7539   -0.6538    0.0000 C   0  0  0  0  0  0  0  0  0
    0.6104   -1.8913    0.0000 N   0  0  0  0  0  0  0  0  0
  1  2  1  0  0  0  0
  2  3  4  0  0  0  0
  2  7  4  0  0  0  0
  3  4  4  0  0  0  0
  4  5  4  0  0  0  0
  5  6  4  0  0  0  0
  6  7  4  0  0  0  0
  7  8  1  0  0  0  0
  8  9  1  0  0  0  0
  9 10  1  0  0  0  0
 10 11  4  0  0  0  0
 10 22  4  0  0  0  0
 11 12  4  0  0  0  0
 12 13  4  0  0  0  0
 12 23  1  0  0  0  0
 13 14  4  0  0  0  0
 14 15  1  0  0  0  0
 14 22  4  0  0  0  0
 15 16  1  0  0  0  0
 15 20  1  0  0  0  0
 16 17  1  0  0  0  0
 17 18  1  0  0  0  0
 18 19  1  0  0  0  0
 18 21  1  0  0  0  0
 19 20  1  0  0  0  0
M  END
>  <Name_Molregno>
595768

>  <HISTAMINE H1>
6

>  <HISTAMINE H2>
6

>  <HISTAMINE H3>
6.46

>  <HISTAMINE H4>
7.75

$$$$
595781
  Marvin  02231216192D 0   1.00000     0.00000     0

 24 27  0  0  0  0  0  0  0  0999 V2000
    0.5156    2.9919    0.0000 Cl  0  0  0  0  0  0  0  0  0
    1.3226    2.8203    0.0000 C   0  0  0  0  0  0  0  0  0
    1.8746    3.4334    0.0000 C   0  0  0  0  0  0  0  0  0
    2.6816    3.2619    0.0000 C   0  0  0  0  0  0  0  0  0
    2.9365    2.4773    0.0000 C   0  0  0  0  0  0  0  0  0
    2.3845    1.8642    0.0000 C   0  0  0  0  0  0  0  0  0
    1.5775    2.0357    0.0000 C   0  0  0  0  0  0  0  0  0
    3.7435    2.3058    0.0000 C   0  0  0  0  0  0  0  0  0
    3.9984    1.5211    0.0000 N   0  0  0  0  0  0  0  0  0
    3.5135    0.8537    0.0000 N   0  0  0  0  0  0  0  0  0
    3.9984    0.1863    0.0000 N   0  0  0  0  0  0  0  0  0
    4.7831    0.4412    0.0000 C   0  0  0  0  0  0  0  0  0
    4.7831    1.2662    0.0000 C   0  0  0  0  0  0  0  0  0
    5.4975    1.6787    0.0000 N   0  0  0  0  0  0  0  0  0
    6.2120    1.2662    0.0000 C   0  0  0  0  0  0  0  0  0
    6.2120    0.4412    0.0000 N   0  0  0  0  0  0  0  0  0
    5.4975    0.0287    0.0000 C   0  0  0  0  0  0  0  0  0
    5.4975   -0.7963    0.0000 N   0  0  0  0  0  0  0  0  0
    6.2120   -1.2088    0.0000 C   0  0  0  0  0  0  0  0  0
    6.2120   -2.0338    0.0000 C   0  0  0  0  0  0  0  0  0
    5.4975   -2.4463    0.0000 N   0  0  0  0  0  0  0  0  0
    4.7831   -2.0338    0.0000 C   0  0  0  0  0  0  0  0  0
    4.7831   -1.2088    0.0000 C   0  0  0  0  0  0  0  0  0
    5.4975   -3.2713    0.0000 C   0  0  0  0  0  0  0  0  0
  1  2  1  0  0  0  0
  2  3  4  0  0  0  0
  2  7  4  0  0  0  0
  3  4  4  0  0  0  0
  4  5  4  0  0  0  0
  5  6  4  0  0  0  0
  5  8  1  0  0  0  0
  6  7  4  0  0  0  0
  8  9  1  0  0  0  0
  9 10  4  0  0  0  0
  9 13  4  0  0  0  0
 10 11  4  0  0  0  0
 11 12  4  0  0  0  0
 12 13  4  0  0  0  0
 12 17  4  0  0  0  0
 13 14  4  0  0  0  0
 14 15  4  0  0  0  0
 15 16  4  0  0  0  0
 16 17  4  0  0  0  0
 17 18  1  0  0  0  0
 18 19  1  0  0  0  0
 18 23  1  0  0  0  0
 19 20  1  0  0  0  0
 20 21  1  0  0  0  0
 21 22  1  0  0  0  0
 21 24  1  0  0  0  0
 22 23  1  0  0  0  0
M  END
>  <Name_Molregno>
595781

>  <HISTAMINE H4>
5.46

$$$$
595782
  Marvin  02231216192D 0   1.00000     0.00000     0

 18 20  0  0  0  0  0  0  0  0999 V2000
    0.9455    1.4938    0.0000 S   0  0  0  0  0  0  0  0  0
    1.7301    1.2388    0.0000 C   0  0  0  0  0  0  0  0  0
    2.4446    1.6513    0.0000 N   0  0  0  0  0  0  0  0  0
    3.1591    1.2388    0.0000 C   0  0  0  0  0  0  0  0  0
    3.1591    0.4138    0.0000 N   0  0  0  0  0  0  0  0  0
    2.4446    0.0013    0.0000 C   0  0  0  0  0  0  0  0  0
    2.4446   -0.8237    0.0000 N   0  0  0  0  0  0  0  0  0
    3.1591   -1.2362    0.0000 C   0  0  0  0  0  0  0  0  0
    3.1591   -2.0612    0.0000 C   0  0  0  0  0  0  0  0  0
    2.4446   -2.4737    0.0000 N   0  0  0  0  0  0  0  0  0
    1.7301   -2.0612    0.0000 C   0  0  0  0  0  0  0  0  0
    1.7301   -1.2362    0.0000 C   0  0  0  0  0  0  0  0  0
    2.4446   -3.2987    0.0000 C   0  0  0  0  0  0  0  0  0
    1.7301    0.4138    0.0000 C   0  0  0  0  0  0  0  0  0
    0.9455    0.1589    0.0000 C   0  0  0  0  0  0  0  0  0
    0.4606    0.8263    0.0000 C   0  0  0  0  0  0  0  0  0
   -0.3644    0.8263    0.0000 C   0  0  0  0  0  0  0  0  0
   -0.7769    0.1119    0.0000 C   0  0  0  0  0  0  0  0  0
  1  2  4  0  0  0  0
  1 16  4  0  0  0  0
  2  3  4  0  0  0  0
  2 14  4  0  0  0  0
  3  4  4  0  0  0  0
  4  5  4  0  0  0  0
  5  6  4  0  0  0  0
  6  7  1  0  0  0  0
  6 14  4  0  0  0  0
  7  8  1  0  0  0  0
  7 12  1  0  0  0  0
  8  9  1  0  0  0  0
  9 10  1  0  0  0  0
 10 11  1  0  0  0  0
 10 13  1  0  0  0  0
 11 12  1  0  0  0  0
 14 15  4  0  0  0  0
 15 16  4  0  0  0  0
 16 17  1  0  0  0  0
 17 18  1  0  0  0  0
M  END
>  <Name_Molregno>
595782

>  <HISTAMINE H4>
5.18

$$$$
595783
  Marvin  02231216192D 0   1.00000     0.00000     0

 23 25  0  0  0  0  0  0  0  0999 V2000
    1.4919    3.0883    0.0000 N   0  0  0  0  0  0  0  0  0
    1.4919    2.2633    0.0000 C   0  0  0  0  0  0  0  0  0
    2.2064    1.8508    0.0000 N   0  0  0  0  0  0  0  0  0
    2.9209    2.2633    0.0000 C   0  0  0  0  0  0  0  0  0
    3.6353    1.8508    0.0000 C   0  0  0  0  0  0  0  0  0
    3.6353    1.0258    0.0000 N   0  0  0  0  0  0  0  0  0
    2.9209    0.6133    0.0000 C   0  0  0  0  0  0  0  0  0
    2.2064    1.0258    0.0000 C   0  0  0  0  0  0  0  0  0
    4.3498    0.6133    0.0000 C   0  0  0  0  0  0  0  0  0
    0.7775    1.8508    0.0000 C   0  0  0  0  0  0  0  0  0
    0.0630    2.2633    0.0000 C   0  0  0  0  0  0  0  0  0
    0.0630    3.0883    0.0000 N   0  0  0  0  0  0  0  0  0
    0.7775    3.5008    0.0000 C   0  0  0  0  0  0  0  0  0
    0.7775    4.3258    0.0000 N   0  0  0  0  0  0  0  0  0
   -0.6515    1.8508    0.0000 N   0  0  0  0  0  0  0  0  0
   -0.6515    1.0258    0.0000 C   0  0  0  0  0  0  0  0  0
   -1.3659    0.6133    0.0000 C   0  0  0  0  0  0  0  0  0
   -1.3659   -0.2117    0.0000 C   0  0  0  0  0  0  0  0  0
   -2.0804   -0.6242    0.0000 C   0  0  0  0  0  0  0  0  0
   -2.7949   -0.2117    0.0000 C   0  0  0  0  0  0  0  0  0
   -2.7949    0.6133    0.0000 C   0  0  0  0  0  0  0  0  0
   -2.0804    1.0258    0.0000 C   0  0  0  0  0  0  0  0  0
   -2.0804    1.8508    0.0000 C   0  0  0  0  0  0  0  0  0
  1  2  4  0  0  0  0
  1 13  4  0  0  0  0
  2  3  1  0  0  0  0
  2 10  4  0  0  0  0
  3  4  1  0  0  0  0
  3  8  1  0  0  0  0
  4  5  1  0  0  0  0
  5  6  1  0  0  0  0
  6  7  1  0  0  0  0
  6  9  1  0  0  0  0
  7  8  1  0  0  0  0
 10 11  4  0  0  0  0
 11 12  4  0  0  0  0
 11 15  1  0  0  0  0
 12 13  4  0  0  0  0
 13 14  1  0  0  0  0
 15 16  1  0  0  0  0
 16 17  1  0  0  0  0
 17 18  4  0  0  0  0
 17 22  4  0  0  0  0
 18 19  4  0  0  0  0
 19 20  4  0  0  0  0
 20 21  4  0  0  0  0
 21 22  4  0  0  0  0
 22 23  1  0  0  0  0
M  END
>  <Name_Molregno>
595783

>  <HISTAMINE H1>
6

>  <HISTAMINE H2>
6

>  <HISTAMINE H3>
6.35

>  <HISTAMINE H4>
7.62

$$$$
595784
  Marvin  02231216192D 0   1.00000     0.00000     0

 24 26  0  0  0  0  0  0  0  0999 V2000
    3.1584    2.1030    0.0000 N   0  0  0  0  0  0  0  0  0
    3.1584    1.2780    0.0000 C   0  0  0  0  0  0  0  0  0
    3.8729    0.8655    0.0000 N   0  0  0  0  0  0  0  0  0
    4.5874    1.2780    0.0000 C   0  0  0  0  0  0  0  0  0
    5.3018    0.8655    0.0000 C   0  0  0  0  0  0  0  0  0
    5.3018    0.0405    0.0000 N   0  0  0  0  0  0  0  0  0
    4.5874   -0.3720    0.0000 C   0  0  0  0  0  0  0  0  0
    3.8729    0.0405    0.0000 C   0  0  0  0  0  0  0  0  0
    6.0163   -0.3720    0.0000 C   0  0  0  0  0  0  0  0  0
    2.4440    0.8655    0.0000 C   0  0  0  0  0  0  0  0  0
    1.7295    1.2780    0.0000 C   0  0  0  0  0  0  0  0  0
    1.7295    2.1030    0.0000 N   0  0  0  0  0  0  0  0  0
    2.4440    2.5155    0.0000 C   0  0  0  0  0  0  0  0  0
    2.4440    3.3405    0.0000 N   0  0  0  0  0  0  0  0  0
    1.0150    0.8655    0.0000 N   0  0  0  0  0  0  0  0  0
    1.0150    0.0405    0.0000 C   0  0  0  0  0  0  0  0  0
    0.3005   -0.3720    0.0000 C   0  0  0  0  0  0  0  0  0
    0.3005   -1.1970    0.0000 C   0  0  0  0  0  0  0  0  0
   -0.4139   -1.6095    0.0000 C   0  0  0  0  0  0  0  0  0
   -1.1284   -1.1970    0.0000 C   0  0  0  0  0  0  0  0  0
   -1.1284   -0.3720    0.0000 C   0  0  0  0  0  0  0  0  0
   -0.4139    0.0405    0.0000 C   0  0  0  0  0  0  0  0  0
   -1.8429   -1.6095    0.0000 C   0  0  0  0  0  0  0  0  0
   -2.5573   -2.0220    0.0000 N   0  0  0  0  0  0  0  0  0
  1  2  4  0  0  0  0
  1 13  4  0  0  0  0
  2  3  1  0  0  0  0
  2 10  4  0  0  0  0
  3  4  1  0  0  0  0
  3  8  1  0  0  0  0
  4  5  1  0  0  0  0
  5  6  1  0  0  0  0
  6  7  1  0  0  0  0
  6  9  1  0  0  0  0
  7  8  1  0  0  0  0
 10 11  4  0  0  0  0
 11 12  4  0  0  0  0
 11 15  1  0  0  0  0
 12 13  4  0  0  0  0
 13 14  1  0  0  0  0
 15 16  1  0  0  0  0
 16 17  1  0  0  0  0
 17 18  4  0  0  0  0
 17 22  4  0  0  0  0
 18 19  4  0  0  0  0
 19 20  4  0  0  0  0
 20 21  4  0  0  0  0
 20 23  1  0  0  0  0
 21 22  4  0  0  0  0
 23 24  3  0  0  0  0
M  END
>  <Name_Molregno>
595784

>  <HISTAMINE H4>
6.47

$$$$
595785
  Marvin  02231216192D 0   1.00000     0.00000     0

 23 25  0  0  0  0  0  0  0  0999 V2000
    5.4481    5.5471    0.0000 F   0  0  0  0  0  0  0  0  0
    5.4481    4.7221    0.0000 C   0  0  0  0  0  0  0  0  0
    6.1626    4.3096    0.0000 C   0  0  0  0  0  0  0  0  0
    6.1626    3.4846    0.0000 C   0  0  0  0  0  0  0  0  0
    5.4481    3.0721    0.0000 C   0  0  0  0  0  0  0  0  0
    4.7336    3.4846    0.0000 C   0  0  0  0  0  0  0  0  0
    4.7336    4.3096    0.0000 C   0  0  0  0  0  0  0  0  0
    5.4481    2.2471    0.0000 C   0  0  0  0  0  0  0  0  0
    4.7336    1.8346    0.0000 N   0  0  0  0  0  0  0  0  0
    4.7336    1.0096    0.0000 C   0  0  0  0  0  0  0  0  0
    5.4481    0.5971    0.0000 N   0  0  0  0  0  0  0  0  0
    5.4481   -0.2279    0.0000 C   0  0  0  0  0  0  0  0  0
    4.7336   -0.6404    0.0000 N   0  0  0  0  0  0  0  0  0
    4.0191   -0.2279    0.0000 C   0  0  0  0  0  0  0  0  0
    3.3047   -0.6404    0.0000 N   0  0  0  0  0  0  0  0  0
    3.3047   -1.4654    0.0000 C   0  0  0  0  0  0  0  0  0
    2.5902   -1.8779    0.0000 C   0  0  0  0  0  0  0  0  0
    1.8757   -1.4654    0.0000 N   0  0  0  0  0  0  0  0  0
    1.8757   -0.6404    0.0000 C   0  0  0  0  0  0  0  0  0
    2.5902   -0.2279    0.0000 C   0  0  0  0  0  0  0  0  0
    1.1613   -1.8779    0.0000 C   0  0  0  0  0  0  0  0  0
    4.0191    0.5971    0.0000 C   0  0  0  0  0  0  0  0  0
    6.1626   -0.6404    0.0000 N   0  0  0  0  0  0  0  0  0
  1  2  1  0  0  0  0
  2  3  4  0  0  0  0
  2  7  4  0  0  0  0
  3  4  4  0  0  0  0
  4  5  4  0  0  0  0
  5  6  4  0  0  0  0
  5  8  1  0  0  0  0
  6  7  4  0  0  0  0
  8  9  1  0  0  0  0
  9 10  1  0  0  0  0
 10 11  4  0  0  0  0
 10 22  4  0  0  0  0
 11 12  4  0  0  0  0
 12 13  4  0  0  0  0
 12 23  1  0  0  0  0
 13 14  4  0  0  0  0
 14 15  1  0  0  0  0
 14 22  4  0  0  0  0
 15 16  1  0  0  0  0
 15 20  1  0  0  0  0
 16 17  1  0  0  0  0
 17 18  1  0  0  0  0
 18 19  1  0  0  0  0
 18 21  1  0  0  0  0
 19 20  1  0  0  0  0
M  END
>  <Name_Molregno>
595785

>  <HISTAMINE H1>
6

>  <HISTAMINE H2>
6

>  <HISTAMINE H3>
6.49

>  <HISTAMINE H4>
7.36

$$$$
595797
  Marvin  02231216192D 0   1.00000     0.00000     0

 16 18  0  0  0  0  0  0  0  0999 V2000
    0.8254    2.5912    0.0000 N   0  0  0  0  0  0  0  0  0
    1.6101    2.3362    0.0000 C   0  0  0  0  0  0  0  0  0
    2.3245    2.7487    0.0000 N   0  0  0  0  0  0  0  0  0
    3.0390    2.3362    0.0000 C   0  0  0  0  0  0  0  0  0
    3.0390    1.5112    0.0000 N   0  0  0  0  0  0  0  0  0
    2.3245    1.0987    0.0000 C   0  0  0  0  0  0  0  0  0
    2.3245    0.2737    0.0000 N   0  0  0  0  0  0  0  0  0
    3.0390   -0.1388    0.0000 C   0  0  0  0  0  0  0  0  0
    3.0390   -0.9638    0.0000 C   0  0  0  0  0  0  0  0  0
    2.3245   -1.3763    0.0000 N   0  0  0  0  0  0  0  0  0
    1.6101   -0.9638    0.0000 C   0  0  0  0  0  0  0  0  0
    1.6101   -0.1388    0.0000 C   0  0  0  0  0  0  0  0  0
    2.3245   -2.2013    0.0000 C   0  0  0  0  0  0  0  0  0
    1.6101    1.5112    0.0000 C   0  0  0  0  0  0  0  0  0
    0.8254    1.2563    0.0000 N   0  0  0  0  0  0  0  0  0
    0.3405    1.9237    0.0000 C   0  0  0  0  0  0  0  0  0
  1  2  4  0  0  0  0
  1 16  4  0  0  0  0
  2  3  4  0  0  0  0
  2 14  4  0  0  0  0
  3  4  4  0  0  0  0
  4  5  4  0  0  0  0
  5  6  4  0  0  0  0
  6  7  1  0  0  0  0
  6 14  4  0  0  0  0
  7  8  1  0  0  0  0
  7 12  1  0  0  0  0
  8  9  1  0  0  0  0
  9 10  1  0  0  0  0
 10 11  1  0  0  0  0
 10 13  1  0  0  0  0
 11 12  1  0  0  0  0
 14 15  4  0  0  0  0
 15 16  4  0  0  0  0
M  STY  1   1 DAT
M  SAL   1  1   1
M  SDT   1 MRV_IMPLICIT_H                                        
M  SDD   1     0.0000    0.0000    DR    ALL  0       0  
M  SED   1 IMPL_H1
M  END
>  <Name_Molregno>
595797

>  <HISTAMINE H4>
4.74

$$$$
595798
  Marvin  02231216192D 0   1.00000     0.00000     0

 23 26  0  0  0  0  0  0  0  0999 V2000
    0.2344   -0.6936    0.0000 N   0  0  0  0  0  0  0  0  0
    0.2344   -1.5186    0.0000 C   0  0  0  0  0  0  0  0  0
   -0.4801   -1.9311    0.0000 N   0  0  0  0  0  0  0  0  0
   -1.1946   -1.5186    0.0000 C   0  0  0  0  0  0  0  0  0
   -1.9792   -1.7736    0.0000 N   0  0  0  0  0  0  0  0  0
   -2.4641   -1.1061    0.0000 C   0  0  0  0  0  0  0  0  0
   -1.9792   -0.4387    0.0000 N   0  0  0  0  0  0  0  0  0
   -1.1946   -0.6936    0.0000 C   0  0  0  0  0  0  0  0  0
   -0.4801   -0.2811    0.0000 C   0  0  0  0  0  0  0  0  0
   -0.4801    0.5439    0.0000 N   0  0  0  0  0  0  0  0  0
   -1.1946    0.9564    0.0000 C   0  0  0  0  0  0  0  0  0
   -1.1946    1.7814    0.0000 C   0  0  0  0  0  0  0  0  0
   -0.4801    2.1939    0.0000 N   0  0  0  0  0  0  0  0  0
    0.2344    1.7814    0.0000 C   0  0  0  0  0  0  0  0  0
    0.2344    0.9564    0.0000 C   0  0  0  0  0  0  0  0  0
   -0.4801    3.0189    0.0000 C   0  0  0  0  0  0  0  0  0
   -2.2341   -2.5582    0.0000 C   0  0  0  0  0  0  0  0  0
   -3.0411   -2.7297    0.0000 C   0  0  0  0  0  0  0  0  0
   -3.2960   -3.5143    0.0000 C   0  0  0  0  0  0  0  0  0
   -4.1030   -3.6859    0.0000 C   0  0  0  0  0  0  0  0  0
   -4.6550   -3.0728    0.0000 C   0  0  0  0  0  0  0  0  0
   -4.4001   -2.2882    0.0000 C   0  0  0  0  0  0  0  0  0
   -3.5931   -2.1166    0.0000 C   0  0  0  0  0  0  0  0  0
  1  2  4  0  0  0  0
  1  9  4  0  0  0  0
  2  3  4  0  0  0  0
  3  4  4  0  0  0  0
  4  5  4  0  0  0  0
  4  8  4  0  0  0  0
  5  6  4  0  0  0  0
  5 17  1  0  0  0  0
  6  7  4  0  0  0  0
  7  8  4  0  0  0  0
  8  9  4  0  0  0  0
  9 10  1  0  0  0  0
 10 11  1  0  0  0  0
 10 15  1  0  0  0  0
 11 12  1  0  0  0  0
 12 13  1  0  0  0  0
 13 14  1  0  0  0  0
 13 16  1  0  0  0  0
 14 15  1  0  0  0  0
 17 18  1  0  0  0  0
 18 19  4  0  0  0  0
 18 23  4  0  0  0  0
 19 20  4  0  0  0  0
 20 21  4  0  0  0  0
 21 22  4  0  0  0  0
 22 23  4  0  0  0  0
M  END
>  <Name_Molregno>
595798

>  <HISTAMINE H4>
4.84

$$$$
595799
  Marvin  02231216192D 0   1.00000     0.00000     0

 17 19  0  0  0  0  0  0  0  0999 V2000
    0.7619    2.2087    0.0000 N   0  0  0  0  0  0  0  0  0
    1.5466    1.9538    0.0000 C   0  0  0  0  0  0  0  0  0
    2.2610    2.3663    0.0000 N   0  0  0  0  0  0  0  0  0
    2.9755    1.9537    0.0000 C   0  0  0  0  0  0  0  0  0
    2.9755    1.1287    0.0000 N   0  0  0  0  0  0  0  0  0
    2.2610    0.7163    0.0000 C   0  0  0  0  0  0  0  0  0
    2.2610   -0.1087    0.0000 N   0  0  0  0  0  0  0  0  0
    2.9755   -0.5213    0.0000 C   0  0  0  0  0  0  0  0  0
    2.9755   -1.3463    0.0000 C   0  0  0  0  0  0  0  0  0
    2.2610   -1.7588    0.0000 N   0  0  0  0  0  0  0  0  0
    1.5466   -1.3462    0.0000 C   0  0  0  0  0  0  0  0  0
    1.5466   -0.5213    0.0000 C   0  0  0  0  0  0  0  0  0
    2.2610   -2.5838    0.0000 C   0  0  0  0  0  0  0  0  0
    1.5466    1.1288    0.0000 C   0  0  0  0  0  0  0  0  0
    0.7619    0.8738    0.0000 N   0  0  0  0  0  0  0  0  0
    0.2770    1.5413    0.0000 C   0  0  0  0  0  0  0  0  0
    3.6900    2.3662    0.0000 N   0  0  0  0  0  0  0  0  0
  1  2  4  0  0  0  0
  1 16  4  0  0  0  0
  2  3  4  0  0  0  0
  2 14  4  0  0  0  0
  3  4  4  0  0  0  0
  4  5  4  0  0  0  0
  4 17  1  0  0  0  0
  5  6  4  0  0  0  0
  6  7  1  0  0  0  0
  6 14  4  0  0  0  0
  7  8  1  0  0  0  0
  7 12  1  0  0  0  0
  8  9  1  0  0  0  0
  9 10  1  0  0  0  0
 10 11  1  0  0  0  0
 10 13  1  0  0  0  0
 11 12  1  0  0  0  0
 14 15  4  0  0  0  0
 15 16  4  0  0  0  0
M  STY  1   1 DAT
M  SAL   1  1   1
M  SDT   1 MRV_IMPLICIT_H                                        
M  SDD   1     0.0000    0.0000    DR    ALL  0       0  
M  SED   1 IMPL_H1
M  END
>  <Name_Molregno>
595799

>  <HISTAMINE H4>
4.81

$$$$
597402
  Marvin  02231216192D 0   1.00000     0.00000     0

 29 31  0  0  0  0  0  0  0  0999 V2000
    1.9519   -4.9542    0.0000 Cl  0  0  0  0  0  0  0  0  0
    1.1269   -4.9542    0.0000 C   0  0  0  0  0  0  0  0  0
    0.7144   -4.2398    0.0000 C   0  0  0  0  0  0  0  0  0
   -0.1106   -4.2398    0.0000 C   0  0  0  0  0  0  0  0  0
   -0.5231   -4.9542    0.0000 C   0  0  0  0  0  0  0  0  0
   -1.3481   -4.9542    0.0000 N   0  0  0  0  0  0  0  0  0
   -1.7606   -4.2398    0.0000 C   0  0  0  0  0  0  0  0  0
   -1.3481   -3.5253    0.0000 N   0  0  0  0  0  0  0  0  0
   -0.5231   -3.5253    0.0000 C   0  0  0  0  0  0  0  0  0
   -0.1106   -2.8108    0.0000 N   0  0  0  0  0  0  0  0  0
    0.7144   -2.8108    0.0000 C   0  0  0  0  0  0  0  0  0
    1.1269   -2.0963    0.0000 C   0  0  0  0  0  0  0  0  0
    1.9519   -2.0963    0.0000 S   0  0  0  0  0  0  0  0  0
    1.9519   -1.2713    0.0000 O   0  0  0  0  0  0  0  0  0
    1.9519   -2.9213    0.0000 O   0  0  0  0  0  0  0  0  0
    2.7769   -2.0963    0.0000 N   0  0  0  0  0  0  0  0  0
    3.1894   -1.3819    0.0000 C   0  0  0  0  0  0  0  0  0
    4.0144   -1.3819    0.0000 C   0  0  0  0  0  0  0  0  0
    3.1894   -2.8108    0.0000 C   0  0  0  0  0  0  0  0  0
    2.7769   -3.5253    0.0000 C   0  0  0  0  0  0  0  0  0
   -2.5856   -4.2398    0.0000 N   0  0  0  0  0  0  0  0  0
   -2.9981   -4.9542    0.0000 C   0  0  0  0  0  0  0  0  0
   -3.8231   -4.9542    0.0000 C   0  0  0  0  0  0  0  0  0
   -4.2356   -4.2398    0.0000 N   0  0  0  0  0  0  0  0  0
   -3.8231   -3.5253    0.0000 C   0  0  0  0  0  0  0  0  0
   -2.9981   -3.5253    0.0000 C   0  0  0  0  0  0  0  0  0
   -5.0606   -4.2398    0.0000 C   0  0  0  0  0  0  0  0  0
   -0.1106   -5.6687    0.0000 C   0  0  0  0  0  0  0  0  0
    0.7144   -5.6687    0.0000 C   0  0  0  0  0  0  0  0  0
  1  2  1  0  0  0  0
  2  3  4  0  0  0  0
  2 29  4  0  0  0  0
  3  4  4  0  0  0  0
  4  5  4  0  0  0  0
  4  9  4  0  0  0  0
  5  6  4  0  0  0  0
  5 28  4  0  0  0  0
  6  7  4  0  0  0  0
  7  8  4  0  0  0  0
  7 21  1  0  0  0  0
  8  9  4  0  0  0  0
  9 10  1  0  0  0  0
 10 11  1  0  0  0  0
 11 12  1  0  0  0  0
 12 13  1  0  0  0  0
 13 14  2  0  0  0  0
 13 15  2  0  0  0  0
 13 16  1  0  0  0  0
 16 17  1  0  0  0  0
 16 19  1  0  0  0  0
 17 18  1  0  0  0  0
 19 20  1  0  0  0  0
 21 22  1  0  0  0  0
 21 26  1  0  0  0  0
 22 23  1  0  0  0  0
 23 24  1  0  0  0  0
 24 25  1  0  0  0  0
 24 27  1  0  0  0  0
 25 26  1  0  0  0  0
 28 29  4  0  0  0  0
M  END
>  <Name_Molregno>
597402

>  <HISTAMINE H4>
8.12

$$$$
597434
  Marvin  02231216192D 0   1.00000     0.00000     0

 27 29  0  0  0  0  0  0  0  0999 V2000
    2.0660   -5.2189    0.0000 Cl  0  0  0  0  0  0  0  0  0
    1.2652   -5.0207    0.0000 C   0  0  0  0  0  0  0  0  0
    1.0364   -4.2281    0.0000 C   0  0  0  0  0  0  0  0  0
    0.2355   -4.0299    0.0000 C   0  0  0  0  0  0  0  0  0
   -0.3365   -4.6244    0.0000 C   0  0  0  0  0  0  0  0  0
   -1.1374   -4.4262    0.0000 N   0  0  0  0  0  0  0  0  0
   -1.3662   -3.6336    0.0000 C   0  0  0  0  0  0  0  0  0
   -0.7941   -3.0391    0.0000 N   0  0  0  0  0  0  0  0  0
    0.0067   -3.2373    0.0000 C   0  0  0  0  0  0  0  0  0
    0.5787   -2.6428    0.0000 N   0  0  0  0  0  0  0  0  0
    1.3796   -2.8410    0.0000 C   0  0  0  0  0  0  0  0  0
    1.9516   -2.2465    0.0000 C   0  0  0  0  0  0  0  0  0
    2.7525   -2.4446    0.0000 S   0  0  0  0  0  0  0  0  0
    2.9506   -1.6438    0.0000 O   0  0  0  0  0  0  0  0  0
    2.5543   -3.2455    0.0000 O   0  0  0  0  0  0  0  0  0
    3.5533   -2.6428    0.0000 N   0  0  0  0  0  0  0  0  0
    4.1254   -2.0483    0.0000 C   0  0  0  0  0  0  0  0  0
    3.7821   -3.4354    0.0000 C   0  0  0  0  0  0  0  0  0
   -2.1670   -3.4354    0.0000 N   0  0  0  0  0  0  0  0  0
   -2.7391   -4.0299    0.0000 C   0  0  0  0  0  0  0  0  0
   -3.5399   -3.8317    0.0000 C   0  0  0  0  0  0  0  0  0
   -3.7687   -3.0391    0.0000 N   0  0  0  0  0  0  0  0  0
   -3.1967   -2.4446    0.0000 C   0  0  0  0  0  0  0  0  0
   -2.3958   -2.6428    0.0000 C   0  0  0  0  0  0  0  0  0
   -4.5696   -2.8410    0.0000 C   0  0  0  0  0  0  0  0  0
   -0.1077   -5.4170    0.0000 C   0  0  0  0  0  0  0  0  0
    0.6932   -5.6152    0.0000 C   0  0  0  0  0  0  0  0  0
  1  2  1  0  0  0  0
  2  3  4  0  0  0  0
  2 27  4  0  0  0  0
  3  4  4  0  0  0  0
  4  5  4  0  0  0  0
  4  9  4  0  0  0  0
  5  6  4  0  0  0  0
  5 26  4  0  0  0  0
  6  7  4  0  0  0  0
  7  8  4  0  0  0  0
  7 19  1  0  0  0  0
  8  9  4  0  0  0  0
  9 10  1  0  0  0  0
 10 11  1  0  0  0  0
 11 12  1  0  0  0  0
 12 13  1  0  0  0  0
 13 14  2  0  0  0  0
 13 15  2  0  0  0  0
 13 16  1  0  0  0  0
 16 17  1  0  0  0  0
 16 18  1  0  0  0  0
 19 20  1  0  0  0  0
 19 24  1  0  0  0  0
 20 21  1  0  0  0  0
 21 22  1  0  0  0  0
 22 23  1  0  0  0  0
 22 25  1  0  0  0  0
 23 24  1  0  0  0  0
 26 27  4  0  0  0  0
M  END
>  <Name_Molregno>
597434

>  <HISTAMINE H4>
7.9

$$$$
597435
  Marvin  02231216192D 0   1.00000     0.00000     0

 26 28  0  0  0  0  0  0  0  0999 V2000
    1.9155   -5.1377    0.0000 Cl  0  0  0  0  0  0  0  0  0
    1.1147   -4.9396    0.0000 C   0  0  0  0  0  0  0  0  0
    0.8859   -4.1469    0.0000 C   0  0  0  0  0  0  0  0  0
    0.0850   -3.9488    0.0000 C   0  0  0  0  0  0  0  0  0
   -0.4870   -4.5433    0.0000 C   0  0  0  0  0  0  0  0  0
   -1.2879   -4.3451    0.0000 N   0  0  0  0  0  0  0  0  0
   -1.5167   -3.5525    0.0000 C   0  0  0  0  0  0  0  0  0
   -0.9447   -2.9580    0.0000 N   0  0  0  0  0  0  0  0  0
   -0.1438   -3.1561    0.0000 C   0  0  0  0  0  0  0  0  0
    0.4282   -2.5617    0.0000 N   0  0  0  0  0  0  0  0  0
    1.2291   -2.7598    0.0000 C   0  0  0  0  0  0  0  0  0
    1.8011   -2.1654    0.0000 C   0  0  0  0  0  0  0  0  0
    2.6020   -2.3635    0.0000 S   0  0  0  0  0  0  0  0  0
    2.8001   -1.5627    0.0000 O   0  0  0  0  0  0  0  0  0
    2.4038   -3.1644    0.0000 O   0  0  0  0  0  0  0  0  0
    3.4028   -2.5617    0.0000 N   0  0  0  0  0  0  0  0  0
    3.9748   -1.9672    0.0000 C   0  0  0  0  0  0  0  0  0
   -2.3175   -3.3543    0.0000 N   0  0  0  0  0  0  0  0  0
   -2.8896   -3.9488    0.0000 C   0  0  0  0  0  0  0  0  0
   -3.6904   -3.7506    0.0000 C   0  0  0  0  0  0  0  0  0
   -3.9192   -2.9580    0.0000 N   0  0  0  0  0  0  0  0  0
   -3.3472   -2.3635    0.0000 C   0  0  0  0  0  0  0  0  0
   -2.5464   -2.5617    0.0000 C   0  0  0  0  0  0  0  0  0
   -4.7201   -2.7598    0.0000 C   0  0  0  0  0  0  0  0  0
   -0.2582   -5.3359    0.0000 C   0  0  0  0  0  0  0  0  0
    0.5426   -5.5340    0.0000 C   0  0  0  0  0  0  0  0  0
  1  2  1  0  0  0  0
  2  3  4  0  0  0  0
  2 26  4  0  0  0  0
  3  4  4  0  0  0  0
  4  5  4  0  0  0  0
  4  9  4  0  0  0  0
  5  6  4  0  0  0  0
  5 25  4  0  0  0  0
  6  7  4  0  0  0  0
  7  8  4  0  0  0  0
  7 18  1  0  0  0  0
  8  9  4  0  0  0  0
  9 10  1  0  0  0  0
 10 11  1  0  0  0  0
 11 12  1  0  0  0  0
 12 13  1  0  0  0  0
 13 14  2  0  0  0  0
 13 15  2  0  0  0  0
 13 16  1  0  0  0  0
 16 17  1  0  0  0  0
 18 19  1  0  0  0  0
 18 23  1  0  0  0  0
 19 20  1  0  0  0  0
 20 21  1  0  0  0  0
 21 22  1  0  0  0  0
 21 24  1  0  0  0  0
 22 23  1  0  0  0  0
 25 26  4  0  0  0  0
M  END
>  <Name_Molregno>
597435

>  <HISTAMINE H4>
8.37

$$$$
597436
  Marvin  02231216192D 0   1.00000     0.00000     0

 29 32  0  0  0  0  0  0  0  0999 V2000
   -2.5789   -3.5066    0.0000 Cl  0  0  0  0  0  0  0  0  0
   -1.8644   -3.0941    0.0000 C   0  0  0  0  0  0  0  0  0
   -1.1499   -3.5066    0.0000 C   0  0  0  0  0  0  0  0  0
   -0.4355   -3.0941    0.0000 C   0  0  0  0  0  0  0  0  0
   -0.4355   -2.2691    0.0000 C   0  0  0  0  0  0  0  0  0
    0.2790   -1.8566    0.0000 N   0  0  0  0  0  0  0  0  0
    0.9935   -2.2691    0.0000 C   0  0  0  0  0  0  0  0  0
    0.9935   -3.0941    0.0000 N   0  0  0  0  0  0  0  0  0
    0.2790   -3.5066    0.0000 C   0  0  0  0  0  0  0  0  0
    0.2790   -4.3316    0.0000 N   0  0  0  0  0  0  0  0  0
   -0.4355   -4.7441    0.0000 C   0  0  0  0  0  0  0  0  0
   -0.4355   -5.5691    0.0000 C   0  0  0  0  0  0  0  0  0
   -1.1499   -5.9816    0.0000 S   0  0  0  0  0  0  0  0  0
   -0.7374   -6.6961    0.0000 O   0  0  0  0  0  0  0  0  0
   -1.5624   -5.2672    0.0000 O   0  0  0  0  0  0  0  0  0
   -1.8644   -6.3941    0.0000 N   0  0  0  0  0  0  0  0  0
   -1.9506   -7.2146    0.0000 C   0  0  0  0  0  0  0  0  0
   -2.7576   -7.3861    0.0000 C   0  0  0  0  0  0  0  0  0
   -3.1701   -6.6717    0.0000 C   0  0  0  0  0  0  0  0  0
   -2.6181   -6.0586    0.0000 C   0  0  0  0  0  0  0  0  0
    1.7080   -1.8566    0.0000 N   0  0  0  0  0  0  0  0  0
    1.7080   -1.0316    0.0000 C   0  0  0  0  0  0  0  0  0
    2.4224   -0.6191    0.0000 C   0  0  0  0  0  0  0  0  0
    3.1369   -1.0316    0.0000 N   0  0  0  0  0  0  0  0  0
    3.1369   -1.8566    0.0000 C   0  0  0  0  0  0  0  0  0
    2.4224   -2.2691    0.0000 C   0  0  0  0  0  0  0  0  0
    3.8514   -0.6191    0.0000 C   0  0  0  0  0  0  0  0  0
   -1.1499   -1.8566    0.0000 C   0  0  0  0  0  0  0  0  0
   -1.8644   -2.2691    0.0000 C   0  0  0  0  0  0  0  0  0
  1  2  1  0  0  0  0
  2  3  4  0  0  0  0
  2 29  4  0  0  0  0
  3  4  4  0  0  0  0
  4  5  4  0  0  0  0
  4  9  4  0  0  0  0
  5  6  4  0  0  0  0
  5 28  4  0  0  0  0
  6  7  4  0  0  0  0
  7  8  4  0  0  0  0
  7 21  1  0  0  0  0
  8  9  4  0  0  0  0
  9 10  1  0  0  0  0
 10 11  1  0  0  0  0
 11 12  1  0  0  0  0
 12 13  1  0  0  0  0
 13 14  2  0  0  0  0
 13 15  2  0  0  0  0
 13 16  1  0  0  0  0
 16 17  1  0  0  0  0
 16 20  1  0  0  0  0
 17 18  1  0  0  0  0
 18 19  1  0  0  0  0
 19 20  1  0  0  0  0
 21 22  1  0  0  0  0
 21 26  1  0  0  0  0
 22 23  1  0  0  0  0
 23 24  1  0  0  0  0
 24 25  1  0  0  0  0
 24 27  1  0  0  0  0
 25 26  1  0  0  0  0
 28 29  4  0  0  0  0
M  END
>  <Name_Molregno>
597436

>  <HISTAMINE H4>
7.75

$$$$
597437
  Marvin  02231216192D 0   1.00000     0.00000     0

 31 34  0  0  1  0  0  0  0  0999 V2000
   -2.6378   -3.4401    0.0000 Cl  0  0  0  0  0  0  0  0  0
   -1.9233   -3.0276    0.0000 C   0  0  0  0  0  0  0  0  0
   -1.2089   -3.4401    0.0000 C   0  0  0  0  0  0  0  0  0
   -0.4944   -3.0276    0.0000 C   0  0  0  0  0  0  0  0  0
   -0.4944   -2.2026    0.0000 C   0  0  0  0  0  0  0  0  0
    0.2201   -1.7901    0.0000 N   0  0  0  0  0  0  0  0  0
    0.9345   -2.2026    0.0000 C   0  0  0  0  0  0  0  0  0
    0.9345   -3.0276    0.0000 N   0  0  0  0  0  0  0  0  0
    0.2201   -3.4401    0.0000 C   0  0  0  0  0  0  0  0  0
    0.2201   -4.2651    0.0000 N   0  0  0  0  0  0  0  0  0
   -0.4944   -4.6776    0.0000 C   0  0  0  0  0  0  0  0  0
   -0.4944   -5.5026    0.0000 C   0  0  0  0  0  0  0  0  0
   -1.2089   -5.9151    0.0000 S   0  0  0  0  0  0  0  0  0
   -0.7964   -6.6296    0.0000 O   0  0  0  0  0  0  0  0  0
   -1.6214   -5.2007    0.0000 O   0  0  0  0  0  0  0  0  0
   -1.9233   -6.3276    0.0000 N   0  0  0  0  0  0  0  0  0
   -1.9233   -7.1526    0.0000 C   0  0  0  0  0  0  0  0  0
   -2.6378   -7.5651    0.0000 C   0  0  0  0  0  0  0  0  0
   -3.3523   -7.1526    0.0000 C   0  0  0  0  0  0  0  0  0
   -3.3523   -6.3276    0.0000 C   0  0  0  0  0  0  0  0  0
   -2.6378   -5.9151    0.0000 C   0  0  0  0  0  0  0  0  0
   -2.6378   -5.0901    0.0000 C   0  0  0  0  0  0  0  0  0
    1.6490   -1.7901    0.0000 N   0  0  0  0  0  0  0  0  0
    1.6490   -0.9651    0.0000 C   0  0  0  0  0  0  0  0  0
    2.3635   -0.5526    0.0000 C   0  0  0  0  0  0  0  0  0
    3.0779   -0.9651    0.0000 N   0  0  0  0  0  0  0  0  0
    3.0779   -1.7901    0.0000 C   0  0  0  0  0  0  0  0  0
    2.3635   -2.2026    0.0000 C   0  0  0  0  0  0  0  0  0
    3.7924   -0.5526    0.0000 C   0  0  0  0  0  0  0  0  0
   -1.2089   -1.7901    0.0000 C   0  0  0  0  0  0  0  0  0
   -1.9233   -2.2026    0.0000 C   0  0  0  0  0  0  0  0  0
  1  2  1  0  0  0  0
  2  3  4  0  0  0  0
  2 31  4  0  0  0  0
  3  4  4  0  0  0  0
  4  5  4  0  0  0  0
  4  9  4  0  0  0  0
  5  6  4  0  0  0  0
  5 30  4  0  0  0  0
  6  7  4  0  0  0  0
  7  8  4  0  0  0  0
  7 23  1  0  0  0  0
  8  9  4  0  0  0  0
  9 10  1  0  0  0  0
 10 11  1  0  0  0  0
 11 12  1  0  0  0  0
 12 13  1  0  0  0  0
 13 14  2  0  0  0  0
 13 15  2  0  0  0  0
 13 16  1  0  0  0  0
 16 17  1  0  0  0  0
 16 21  1  0  0  0  0
 17 18  1  0  0  0  0
 18 19  1  0  0  0  0
 19 20  1  0  0  0  0
 20 21  1  0  0  0  0
 21 22  1  0  0  0  0
 23 24  1  0  0  0  0
 23 28  1  0  0  0  0
 24 25  1  0  0  0  0
 25 26  1  0  0  0  0
 26 27  1  0  0  0  0
 26 29  1  0  0  0  0
 27 28  1  0  0  0  0
 30 31  4  0  0  0  0
M  END
>  <Name_Molregno>
597437

>  <HISTAMINE H4>
8

$$$$
597438
  Marvin  02231216192D 0   1.00000     0.00000     0

 30 33  0  0  0  0  0  0  0  0999 V2000
   -2.5456   -3.4747    0.0000 Cl  0  0  0  0  0  0  0  0  0
   -1.8311   -3.0622    0.0000 C   0  0  0  0  0  0  0  0  0
   -1.1166   -3.4748    0.0000 C   0  0  0  0  0  0  0  0  0
   -0.4022   -3.0623    0.0000 C   0  0  0  0  0  0  0  0  0
   -0.4022   -2.2373    0.0000 C   0  0  0  0  0  0  0  0  0
    0.3123   -1.8247    0.0000 N   0  0  0  0  0  0  0  0  0
    1.0268   -2.2372    0.0000 C   0  0  0  0  0  0  0  0  0
    1.0268   -3.0622    0.0000 N   0  0  0  0  0  0  0  0  0
    0.3123   -3.4747    0.0000 C   0  0  0  0  0  0  0  0  0
    0.3123   -4.2997    0.0000 N   0  0  0  0  0  0  0  0  0
   -0.4022   -4.7123    0.0000 C   0  0  0  0  0  0  0  0  0
   -0.4022   -5.5372    0.0000 C   0  0  0  0  0  0  0  0  0
   -1.1166   -5.9498    0.0000 S   0  0  0  0  0  0  0  0  0
   -0.7041   -6.6642    0.0000 O   0  0  0  0  0  0  0  0  0
   -1.5291   -5.2353    0.0000 O   0  0  0  0  0  0  0  0  0
   -1.8311   -6.3623    0.0000 N   0  0  0  0  0  0  0  0  0
   -1.8311   -7.1873    0.0000 C   0  0  0  0  0  0  0  0  0
   -2.5456   -7.5998    0.0000 C   0  0  0  0  0  0  0  0  0
   -3.2600   -7.1873    0.0000 O   0  0  0  0  0  0  0  0  0
   -3.2600   -6.3623    0.0000 C   0  0  0  0  0  0  0  0  0
   -2.5456   -5.9498    0.0000 C   0  0  0  0  0  0  0  0  0
    1.7413   -1.8248    0.0000 N   0  0  0  0  0  0  0  0  0
    1.7413   -0.9997    0.0000 C   0  0  0  0  0  0  0  0  0
    2.4557   -0.5872    0.0000 C   0  0  0  0  0  0  0  0  0
    3.1702   -0.9998    0.0000 N   0  0  0  0  0  0  0  0  0
    3.1702   -1.8248    0.0000 C   0  0  0  0  0  0  0  0  0
    2.4557   -2.2373    0.0000 C   0  0  0  0  0  0  0  0  0
    3.8847   -0.5873    0.0000 C   0  0  0  0  0  0  0  0  0
   -1.1166   -1.8247    0.0000 C   0  0  0  0  0  0  0  0  0
   -1.8311   -2.2372    0.0000 C   0  0  0  0  0  0  0  0  0
  1  2  1  0  0  0  0
  2  3  4  0  0  0  0
  2 30  4  0  0  0  0
  3  4  4  0  0  0  0
  4  5  4  0  0  0  0
  4  9  4  0  0  0  0
  5  6  4  0  0  0  0
  5 29  4  0  0  0  0
  6  7  4  0  0  0  0
  7  8  4  0  0  0  0
  7 22  1  0  0  0  0
  8  9  4  0  0  0  0
  9 10  1  0  0  0  0
 10 11  1  0  0  0  0
 11 12  1  0  0  0  0
 12 13  1  0  0  0  0
 13 14  2  0  0  0  0
 13 15  2  0  0  0  0
 13 16  1  0  0  0  0
 16 17  1  0  0  0  0
 16 21  1  0  0  0  0
 17 18  1  0  0  0  0
 18 19  1  0  0  0  0
 19 20  1  0  0  0  0
 20 21  1  0  0  0  0
 22 23  1  0  0  0  0
 22 27  1  0  0  0  0
 23 24  1  0  0  0  0
 24 25  1  0  0  0  0
 25 26  1  0  0  0  0
 25 28  1  0  0  0  0
 26 27  1  0  0  0  0
 29 30  4  0  0  0  0
M  END
>  <Name_Molregno>
597438

>  <HISTAMINE H4>
8.03

$$$$
597471
  Marvin  02231216192D 0   1.00000     0.00000     0

 32 35  0  0  0  0  0  0  0  0999 V2000
    0.6257   -5.7761    0.0000 Cl  0  0  0  0  0  0  0  0  0
   -0.1752   -5.5780    0.0000 C   0  0  0  0  0  0  0  0  0
   -0.4040   -4.7853    0.0000 C   0  0  0  0  0  0  0  0  0
   -1.2048   -4.5872    0.0000 C   0  0  0  0  0  0  0  0  0
   -1.7769   -5.1816    0.0000 C   0  0  0  0  0  0  0  0  0
   -2.5777   -4.9835    0.0000 N   0  0  0  0  0  0  0  0  0
   -2.8065   -4.1909    0.0000 C   0  0  0  0  0  0  0  0  0
   -2.2345   -3.5964    0.0000 N   0  0  0  0  0  0  0  0  0
   -1.4337   -3.7945    0.0000 C   0  0  0  0  0  0  0  0  0
   -0.8616   -3.2001    0.0000 N   0  0  0  0  0  0  0  0  0
   -0.0608   -3.3982    0.0000 C   0  0  0  0  0  0  0  0  0
    0.5113   -2.8037    0.0000 C   0  0  0  0  0  0  0  0  0
    1.3121   -3.0019    0.0000 S   0  0  0  0  0  0  0  0  0
    1.5103   -2.2011    0.0000 O   0  0  0  0  0  0  0  0  0
    1.1139   -3.8028    0.0000 O   0  0  0  0  0  0  0  0  0
    2.1130   -3.2001    0.0000 N   0  0  0  0  0  0  0  0  0
    2.3418   -3.9927    0.0000 C   0  0  0  0  0  0  0  0  0
    2.6850   -2.6056    0.0000 C   0  0  0  0  0  0  0  0  0
    2.4562   -1.8130    0.0000 C   0  0  0  0  0  0  0  0  0
    3.0282   -1.2185    0.0000 C   0  0  0  0  0  0  0  0  0
    3.8291   -1.4166    0.0000 C   0  0  0  0  0  0  0  0  0
    4.0579   -2.2093    0.0000 C   0  0  0  0  0  0  0  0  0
    3.4858   -2.8037    0.0000 C   0  0  0  0  0  0  0  0  0
   -3.6074   -3.9927    0.0000 N   0  0  0  0  0  0  0  0  0
   -4.1794   -4.5872    0.0000 C   0  0  0  0  0  0  0  0  0
   -4.9803   -4.3890    0.0000 C   0  0  0  0  0  0  0  0  0
   -5.2091   -3.5964    0.0000 N   0  0  0  0  0  0  0  0  0
   -4.6371   -3.0019    0.0000 C   0  0  0  0  0  0  0  0  0
   -3.8362   -3.2001    0.0000 C   0  0  0  0  0  0  0  0  0
   -6.0099   -3.3982    0.0000 C   0  0  0  0  0  0  0  0  0
   -1.5481   -5.9743    0.0000 C   0  0  0  0  0  0  0  0  0
   -0.7472   -6.1724    0.0000 C   0  0  0  0  0  0  0  0  0
  1  2  1  0  0  0  0
  2  3  4  0  0  0  0
  2 32  4  0  0  0  0
  3  4  4  0  0  0  0
  4  5  4  0  0  0  0
  4  9  4  0  0  0  0
  5  6  4  0  0  0  0
  5 31  4  0  0  0  0
  6  7  4  0  0  0  0
  7  8  4  0  0  0  0
  7 24  1  0  0  0  0
  8  9  4  0  0  0  0
  9 10  1  0  0  0  0
 10 11  1  0  0  0  0
 11 12  1  0  0  0  0
 12 13  1  0  0  0  0
 13 14  2  0  0  0  0
 13 15  2  0  0  0  0
 13 16  1  0  0  0  0
 16 17  1  0  0  0  0
 16 18  1  0  0  0  0
 18 19  4  0  0  0  0
 18 23  4  0  0  0  0
 19 20  4  0  0  0  0
 20 21  4  0  0  0  0
 21 22  4  0  0  0  0
 22 23  4  0  0  0  0
 24 25  1  0  0  0  0
 24 29  1  0  0  0  0
 25 26  1  0  0  0  0
 26 27  1  0  0  0  0
 27 28  1  0  0  0  0
 27 30  1  0  0  0  0
 28 29  1  0  0  0  0
 31 32  4  0  0  0  0
M  END
>  <Name_Molregno>
597471

>  <HISTAMINE H4>
8.27

$$$$
597472
  Marvin  02231216192D 0   1.00000     0.00000     0

 31 34  0  0  0  0  0  0  0  0999 V2000
    1.9003   -5.7192    0.0000 Cl  0  0  0  0  0  0  0  0  0
    1.0995   -5.5210    0.0000 C   0  0  0  0  0  0  0  0  0
    0.8706   -4.7284    0.0000 C   0  0  0  0  0  0  0  0  0
    0.0698   -4.5302    0.0000 C   0  0  0  0  0  0  0  0  0
   -0.5022   -5.1247    0.0000 C   0  0  0  0  0  0  0  0  0
   -1.3031   -4.9266    0.0000 N   0  0  0  0  0  0  0  0  0
   -1.5319   -4.1339    0.0000 C   0  0  0  0  0  0  0  0  0
   -0.9599   -3.5395    0.0000 N   0  0  0  0  0  0  0  0  0
   -0.1590   -3.7376    0.0000 C   0  0  0  0  0  0  0  0  0
    0.4130   -3.1431    0.0000 N   0  0  0  0  0  0  0  0  0
    1.2139   -3.3413    0.0000 C   0  0  0  0  0  0  0  0  0
    1.7859   -2.7468    0.0000 C   0  0  0  0  0  0  0  0  0
    2.5867   -2.9450    0.0000 S   0  0  0  0  0  0  0  0  0
    2.7849   -2.1441    0.0000 O   0  0  0  0  0  0  0  0  0
    2.3886   -3.7458    0.0000 O   0  0  0  0  0  0  0  0  0
    3.3876   -3.1431    0.0000 N   0  0  0  0  0  0  0  0  0
    3.9596   -2.5487    0.0000 C   0  0  0  0  0  0  0  0  0
    3.7308   -1.7560    0.0000 C   0  0  0  0  0  0  0  0  0
    4.3029   -1.1616    0.0000 C   0  0  0  0  0  0  0  0  0
    5.1037   -1.3597    0.0000 C   0  0  0  0  0  0  0  0  0
    5.3325   -2.1523    0.0000 C   0  0  0  0  0  0  0  0  0
    4.7605   -2.7468    0.0000 C   0  0  0  0  0  0  0  0  0
   -2.3328   -3.9358    0.0000 N   0  0  0  0  0  0  0  0  0
   -2.9048   -4.5302    0.0000 C   0  0  0  0  0  0  0  0  0
   -3.7056   -4.3321    0.0000 C   0  0  0  0  0  0  0  0  0
   -3.9344   -3.5395    0.0000 N   0  0  0  0  0  0  0  0  0
   -3.3624   -2.9450    0.0000 C   0  0  0  0  0  0  0  0  0
   -2.5616   -3.1431    0.0000 C   0  0  0  0  0  0  0  0  0
   -4.7353   -3.3413    0.0000 C   0  0  0  0  0  0  0  0  0
   -0.2734   -5.9174    0.0000 C   0  0  0  0  0  0  0  0  0
    0.5274   -6.1155    0.0000 C   0  0  0  0  0  0  0  0  0
  1  2  1  0  0  0  0
  2  3  4  0  0  0  0
  2 31  4  0  0  0  0
  3  4  4  0  0  0  0
  4  5  4  0  0  0  0
  4  9  4  0  0  0  0
  5  6  4  0  0  0  0
  5 30  4  0  0  0  0
  6  7  4  0  0  0  0
  7  8  4  0  0  0  0
  7 23  1  0  0  0  0
  8  9  4  0  0  0  0
  9 10  1  0  0  0  0
 10 11  1  0  0  0  0
 11 12  1  0  0  0  0
 12 13  1  0  0  0  0
 13 14  2  0  0  0  0
 13 15  2  0  0  0  0
 13 16  1  0  0  0  0
 16 17  1  0  0  0  0
 17 18  4  0  0  0  0
 17 22  4  0  0  0  0
 18 19  4  0  0  0  0
 19 20  4  0  0  0  0
 20 21  4  0  0  0  0
 21 22  4  0  0  0  0
 23 24  1  0  0  0  0
 23 28  1  0  0  0  0
 24 25  1  0  0  0  0
 25 26  1  0  0  0  0
 26 27  1  0  0  0  0
 26 29  1  0  0  0  0
 27 28  1  0  0  0  0
 30 31  4  0  0  0  0
M  END
>  <Name_Molregno>
597472

>  <HISTAMINE H4>
8.31

$$$$
597473
  Marvin  02231216192D 0   1.00000     0.00000     0

 32 35  0  0  0  0  0  0  0  0999 V2000
    0.3457   -1.5713    0.0000 I   0  0  0  0  0  0  0  0  0
    0.9177   -0.9768    0.0000 C   0  0  0  0  0  0  0  0  0
    0.6889   -0.1842    0.0000 C   0  0  0  0  0  0  0  0  0
    1.2609    0.4103    0.0000 C   0  0  0  0  0  0  0  0  0
    2.0618    0.2122    0.0000 C   0  0  0  0  0  0  0  0  0
    2.6338    0.8066    0.0000 N   0  0  0  0  0  0  0  0  0
    3.4347    0.6085    0.0000 S   0  0  0  0  0  0  0  0  0
    3.2365   -0.1924    0.0000 O   0  0  0  0  0  0  0  0  0
    3.6328    1.4093    0.0000 O   0  0  0  0  0  0  0  0  0
    4.2355    0.4103    0.0000 C   0  0  0  0  0  0  0  0  0
    4.8076    1.0048    0.0000 C   0  0  0  0  0  0  0  0  0
    5.6084    0.8066    0.0000 N   0  0  0  0  0  0  0  0  0
    6.1804    1.4011    0.0000 C   0  0  0  0  0  0  0  0  0
    6.9813    1.2029    0.0000 N   0  0  0  0  0  0  0  0  0
    7.5533    1.7974    0.0000 C   0  0  0  0  0  0  0  0  0
    7.3245    2.5901    0.0000 N   0  0  0  0  0  0  0  0  0
    6.5237    2.7882    0.0000 C   0  0  0  0  0  0  0  0  0
    5.9516    2.1937    0.0000 C   0  0  0  0  0  0  0  0  0
    5.1508    2.3919    0.0000 C   0  0  0  0  0  0  0  0  0
    4.9220    3.1845    0.0000 C   0  0  0  0  0  0  0  0  0
    4.1211    3.3827    0.0000 Cl  0  0  0  0  0  0  0  0  0
    5.4940    3.7790    0.0000 C   0  0  0  0  0  0  0  0  0
    6.2948    3.5809    0.0000 C   0  0  0  0  0  0  0  0  0
    8.3542    1.5993    0.0000 N   0  0  0  0  0  0  0  0  0
    8.9262    2.1937    0.0000 C   0  0  0  0  0  0  0  0  0
    9.7271    1.9956    0.0000 C   0  0  0  0  0  0  0  0  0
    9.9559    1.2029    0.0000 N   0  0  0  0  0  0  0  0  0
    9.3838    0.6085    0.0000 C   0  0  0  0  0  0  0  0  0
    8.5830    0.8066    0.0000 C   0  0  0  0  0  0  0  0  0
   10.7567    1.0048    0.0000 C   0  0  0  0  0  0  0  0  0
    2.2906   -0.5805    0.0000 C   0  0  0  0  0  0  0  0  0
    1.7186   -1.1750    0.0000 C   0  0  0  0  0  0  0  0  0
  1  2  1  0  0  0  0
  2  3  4  0  0  0  0
  2 32  4  0  0  0  0
  3  4  4  0  0  0  0
  4  5  4  0  0  0  0
  5  6  1  0  0  0  0
  5 31  4  0  0  0  0
  6  7  1  0  0  0  0
  7  8  2  0  0  0  0
  7  9  2  0  0  0  0
  7 10  1  0  0  0  0
 10 11  1  0  0  0  0
 11 12  1  0  0  0  0
 12 13  1  0  0  0  0
 13 14  4  0  0  0  0
 13 18  4  0  0  0  0
 14 15  4  0  0  0  0
 15 16  4  0  0  0  0
 15 24  1  0  0  0  0
 16 17  4  0  0  0  0
 17 18  4  0  0  0  0
 17 23  4  0  0  0  0
 18 19  4  0  0  0  0
 19 20  4  0  0  0  0
 20 21  1  0  0  0  0
 20 22  4  0  0  0  0
 22 23  4  0  0  0  0
 24 25  1  0  0  0  0
 24 29  1  0  0  0  0
 25 26  1  0  0  0  0
 26 27  1  0  0  0  0
 27 28  1  0  0  0  0
 27 30  1  0  0  0  0
 28 29  1  0  0  0  0
 31 32  4  0  0  0  0
M  END
>  <Name_Molregno>
597473

>  <HISTAMINE H4>
7.15

$$$$
597474
  Marvin  02231216192D 0   1.00000     0.00000     0

 27 29  0  0  0  0  0  0  0  0999 V2000
    0.5495   -6.0373    0.0000 Cl  0  0  0  0  0  0  0  0  0
   -0.0225   -5.4428    0.0000 C   0  0  0  0  0  0  0  0  0
    0.2063   -4.6502    0.0000 C   0  0  0  0  0  0  0  0  0
   -0.3657   -4.0557    0.0000 C   0  0  0  0  0  0  0  0  0
   -1.1666   -4.2539    0.0000 C   0  0  0  0  0  0  0  0  0
   -1.7386   -3.6594    0.0000 N   0  0  0  0  0  0  0  0  0
   -1.5098   -2.8668    0.0000 C   0  0  0  0  0  0  0  0  0
   -0.7089   -2.6686    0.0000 N   0  0  0  0  0  0  0  0  0
   -0.1369   -3.2631    0.0000 C   0  0  0  0  0  0  0  0  0
    0.6639   -3.0649    0.0000 N   0  0  0  0  0  0  0  0  0
    1.2360   -3.6594    0.0000 C   0  0  0  0  0  0  0  0  0
    2.0368   -3.4613    0.0000 C   0  0  0  0  0  0  0  0  0
    2.6089   -4.0557    0.0000 C   0  0  0  0  0  0  0  0  0
    3.4097   -3.8576    0.0000 S   0  0  0  0  0  0  0  0  0
    3.2116   -3.0567    0.0000 O   0  0  0  0  0  0  0  0  0
    3.6079   -4.6584    0.0000 O   0  0  0  0  0  0  0  0  0
    4.2106   -3.6594    0.0000 N   0  0  0  0  0  0  0  0  0
    4.7826   -4.2539    0.0000 C   0  0  0  0  0  0  0  0  0
   -2.0818   -2.2723    0.0000 N   0  0  0  0  0  0  0  0  0
   -2.8827   -2.4705    0.0000 C   0  0  0  0  0  0  0  0  0
   -3.4547   -1.8760    0.0000 C   0  0  0  0  0  0  0  0  0
   -3.2259   -1.0834    0.0000 N   0  0  0  0  0  0  0  0  0
   -2.4250   -0.8852    0.0000 C   0  0  0  0  0  0  0  0  0
   -1.8530   -1.4797    0.0000 C   0  0  0  0  0  0  0  0  0
   -3.7979   -0.4889    0.0000 C   0  0  0  0  0  0  0  0  0
   -1.3954   -5.0465    0.0000 C   0  0  0  0  0  0  0  0  0
   -0.8233   -5.6410    0.0000 C   0  0  0  0  0  0  0  0  0
  1  2  1  0  0  0  0
  2  3  4  0  0  0  0
  2 27  4  0  0  0  0
  3  4  4  0  0  0  0
  4  5  4  0  0  0  0
  4  9  4  0  0  0  0
  5  6  4  0  0  0  0
  5 26  4  0  0  0  0
  6  7  4  0  0  0  0
  7  8  4  0  0  0  0
  7 19  1  0  0  0  0
  8  9  4  0  0  0  0
  9 10  1  0  0  0  0
 10 11  1  0  0  0  0
 11 12  1  0  0  0  0
 12 13  1  0  0  0  0
 13 14  1  0  0  0  0
 14 15  2  0  0  0  0
 14 16  2  0  0  0  0
 14 17  1  0  0  0  0
 17 18  1  0  0  0  0
 19 20  1  0  0  0  0
 19 24  1  0  0  0  0
 20 21  1  0  0  0  0
 21 22  1  0  0  0  0
 22 23  1  0  0  0  0
 22 25  1  0  0  0  0
 23 24  1  0  0  0  0
 26 27  4  0  0  0  0
M  END
>  <Name_Molregno>
597474

>  <HISTAMINE H4>
7.48

$$$$
597475
  Marvin  02231216192D 0   1.00000     0.00000     0

 25 27  0  0  0  0  0  0  0  0999 V2000
    4.7863   -0.8843    0.0000 Cl  0  0  0  0  0  0  0  0  0
    4.0719   -0.4718    0.0000 C   0  0  0  0  0  0  0  0  0
    4.0719    0.3532    0.0000 C   0  0  0  0  0  0  0  0  0
    3.3574    0.7658    0.0000 C   0  0  0  0  0  0  0  0  0
    2.6429    0.3533    0.0000 C   0  0  0  0  0  0  0  0  0
    1.9284    0.7658    0.0000 N   0  0  0  0  0  0  0  0  0
    1.9284    1.5908    0.0000 C   0  0  0  0  0  0  0  0  0
    2.6429    2.0032    0.0000 N   0  0  0  0  0  0  0  0  0
    3.3574    1.5907    0.0000 C   0  0  0  0  0  0  0  0  0
    4.0719    2.0032    0.0000 N   0  0  0  0  0  0  0  0  0
    4.7863    1.5907    0.0000 C   0  0  0  0  0  0  0  0  0
    5.5008    2.0032    0.0000 C   0  0  0  0  0  0  0  0  0
    6.2153    1.5907    0.0000 S   0  0  0  0  0  0  0  0  0
    6.9297    1.1782    0.0000 O   0  0  0  0  0  0  0  0  0
    6.6278    2.3052    0.0000 O   0  0  0  0  0  0  0  0  0
    5.8028    0.8763    0.0000 C   0  0  0  0  0  0  0  0  0
    1.2140    2.0033    0.0000 N   0  0  0  0  0  0  0  0  0
    0.4995    1.5908    0.0000 C   0  0  0  0  0  0  0  0  0
   -0.2150    2.0033    0.0000 C   0  0  0  0  0  0  0  0  0
   -0.2150    2.8283    0.0000 N   0  0  0  0  0  0  0  0  0
    0.4995    3.2408    0.0000 C   0  0  0  0  0  0  0  0  0
    1.2140    2.8283    0.0000 C   0  0  0  0  0  0  0  0  0
   -0.9294    3.2408    0.0000 C   0  0  0  0  0  0  0  0  0
    2.6429   -0.4718    0.0000 C   0  0  0  0  0  0  0  0  0
    3.3574   -0.8843    0.0000 C   0  0  0  0  0  0  0  0  0
  1  2  1  0  0  0  0
  2  3  4  0  0  0  0
  2 25  4  0  0  0  0
  3  4  4  0  0  0  0
  4  5  4  0  0  0  0
  4  9  4  0  0  0  0
  5  6  4  0  0  0  0
  5 24  4  0  0  0  0
  6  7  4  0  0  0  0
  7  8  4  0  0  0  0
  7 17  1  0  0  0  0
  8  9  4  0  0  0  0
  9 10  1  0  0  0  0
 10 11  1  0  0  0  0
 11 12  1  0  0  0  0
 12 13  1  0  0  0  0
 13 14  2  0  0  0  0
 13 15  2  0  0  0  0
 13 16  1  0  0  0  0
 17 18  1  0  0  0  0
 17 22  1  0  0  0  0
 18 19  1  0  0  0  0
 19 20  1  0  0  0  0
 20 21  1  0  0  0  0
 20 23  1  0  0  0  0
 21 22  1  0  0  0  0
 24 25  4  0  0  0  0
M  END
>  <Name_Molregno>
597475

>  <HISTAMINE H4>
7.57

$$$$
597516
  Marvin  02231216192D 0   1.00000     0.00000     0

 25 27  0  0  0  0  0  0  0  0999 V2000
    4.7863   -0.8843    0.0000 Cl  0  0  0  0  0  0  0  0  0
    4.0719   -0.4718    0.0000 C   0  0  0  0  0  0  0  0  0
    4.0719    0.3532    0.0000 C   0  0  0  0  0  0  0  0  0
    3.3574    0.7658    0.0000 C   0  0  0  0  0  0  0  0  0
    2.6429    0.3533    0.0000 C   0  0  0  0  0  0  0  0  0
    1.9284    0.7658    0.0000 N   0  0  0  0  0  0  0  0  0
    1.9284    1.5908    0.0000 C   0  0  0  0  0  0  0  0  0
    2.6429    2.0032    0.0000 N   0  0  0  0  0  0  0  0  0
    3.3574    1.5907    0.0000 C   0  0  0  0  0  0  0  0  0
    4.0719    2.0032    0.0000 N   0  0  0  0  0  0  0  0  0
    4.7863    1.5907    0.0000 C   0  0  0  0  0  0  0  0  0
    5.5008    2.0032    0.0000 C   0  0  0  0  0  0  0  0  0
    6.2153    1.5907    0.0000 S   0  0  0  0  0  0  0  0  0
    6.9297    1.1782    0.0000 O   0  0  0  0  0  0  0  0  0
    6.6278    2.3052    0.0000 O   0  0  0  0  0  0  0  0  0
    5.8028    0.8763    0.0000 N   0  0  0  0  0  0  0  0  0
    1.2140    2.0033    0.0000 N   0  0  0  0  0  0  0  0  0
    0.4995    1.5908    0.0000 C   0  0  0  0  0  0  0  0  0
   -0.2150    2.0033    0.0000 C   0  0  0  0  0  0  0  0  0
   -0.2150    2.8283    0.0000 N   0  0  0  0  0  0  0  0  0
    0.4995    3.2408    0.0000 C   0  0  0  0  0  0  0  0  0
    1.2140    2.8283    0.0000 C   0  0  0  0  0  0  0  0  0
   -0.9294    3.2408    0.0000 C   0  0  0  0  0  0  0  0  0
    2.6429   -0.4718    0.0000 C   0  0  0  0  0  0  0  0  0
    3.3574   -0.8843    0.0000 C   0  0  0  0  0  0  0  0  0
  1  2  1  0  0  0  0
  2  3  4  0  0  0  0
  2 25  4  0  0  0  0
  3  4  4  0  0  0  0
  4  5  4  0  0  0  0
  4  9  4  0  0  0  0
  5  6  4  0  0  0  0
  5 24  4  0  0  0  0
  6  7  4  0  0  0  0
  7  8  4  0  0  0  0
  7 17  1  0  0  0  0
  8  9  4  0  0  0  0
  9 10  1  0  0  0  0
 10 11  1  0  0  0  0
 11 12  1  0  0  0  0
 12 13  1  0  0  0  0
 13 14  2  0  0  0  0
 13 15  2  0  0  0  0
 13 16  1  0  0  0  0
 17 18  1  0  0  0  0
 17 22  1  0  0  0  0
 18 19  1  0  0  0  0
 19 20  1  0  0  0  0
 20 21  1  0  0  0  0
 20 23  1  0  0  0  0
 21 22  1  0  0  0  0
 24 25  4  0  0  0  0
M  END
>  <Name_Molregno>
597516

>  <HISTAMINE H4>
8.35

$$$$
597517
  Marvin  02231216192D 0   1.00000     0.00000     0

 31 34  0  0  0  0  0  0  0  0999 V2000
    1.1788   -6.0006    0.0000 Cl  0  0  0  0  0  0  0  0  0
    0.4644   -5.5881    0.0000 C   0  0  0  0  0  0  0  0  0
    0.4644   -4.7631    0.0000 C   0  0  0  0  0  0  0  0  0
   -0.2501   -4.3506    0.0000 C   0  0  0  0  0  0  0  0  0
   -0.9646   -4.7631    0.0000 C   0  0  0  0  0  0  0  0  0
   -1.6790   -4.3506    0.0000 N   0  0  0  0  0  0  0  0  0
   -1.6790   -3.5256    0.0000 C   0  0  0  0  0  0  0  0  0
   -0.9646   -3.1131    0.0000 N   0  0  0  0  0  0  0  0  0
   -0.2501   -3.5256    0.0000 C   0  0  0  0  0  0  0  0  0
    0.4644   -3.1131    0.0000 N   0  0  0  0  0  0  0  0  0
    1.1788   -3.5256    0.0000 C   0  0  0  0  0  0  0  0  0
    1.8933   -3.1131    0.0000 C   0  0  0  0  0  0  0  0  0
    2.6078   -3.5256    0.0000 C   0  0  0  0  0  0  0  0  0
    2.6078   -4.3506    0.0000 O   0  0  0  0  0  0  0  0  0
    3.3223   -3.1131    0.0000 N   0  0  0  0  0  0  0  0  0
    3.3223   -2.2881    0.0000 C   0  0  0  0  0  0  0  0  0
    4.0367   -3.5256    0.0000 C   0  0  0  0  0  0  0  0  0
    4.7512   -3.1131    0.0000 C   0  0  0  0  0  0  0  0  0
    5.4657   -3.5256    0.0000 C   0  0  0  0  0  0  0  0  0
    5.4657   -4.3506    0.0000 C   0  0  0  0  0  0  0  0  0
    4.7512   -4.7631    0.0000 C   0  0  0  0  0  0  0  0  0
    4.0367   -4.3506    0.0000 C   0  0  0  0  0  0  0  0  0
   -2.3935   -3.1131    0.0000 N   0  0  0  0  0  0  0  0  0
   -3.1080   -3.5256    0.0000 C   0  0  0  0  0  0  0  0  0
   -3.8225   -3.1131    0.0000 C   0  0  0  0  0  0  0  0  0
   -3.8225   -2.2881    0.0000 N   0  0  0  0  0  0  0  0  0
   -3.1080   -1.8756    0.0000 C   0  0  0  0  0  0  0  0  0
   -2.3935   -2.2881    0.0000 C   0  0  0  0  0  0  0  0  0
   -4.5369   -1.8756    0.0000 C   0  0  0  0  0  0  0  0  0
   -0.9646   -5.5881    0.0000 C   0  0  0  0  0  0  0  0  0
   -0.2501   -6.0006    0.0000 C   0  0  0  0  0  0  0  0  0
  1  2  1  0  0  0  0
  2  3  4  0  0  0  0
  2 31  4  0  0  0  0
  3  4  4  0  0  0  0
  4  5  4  0  0  0  0
  4  9  4  0  0  0  0
  5  6  4  0  0  0  0
  5 30  4  0  0  0  0
  6  7  4  0  0  0  0
  7  8  4  0  0  0  0
  7 23  1  0  0  0  0
  8  9  4  0  0  0  0
  9 10  1  0  0  0  0
 10 11  1  0  0  0  0
 11 12  1  0  0  0  0
 12 13  1  0  0  0  0
 13 14  2  0  0  0  0
 13 15  1  0  0  0  0
 15 16  1  0  0  0  0
 15 17  1  0  0  0  0
 17 18  4  0  0  0  0
 17 22  4  0  0  0  0
 18 19  4  0  0  0  0
 19 20  4  0  0  0  0
 20 21  4  0  0  0  0
 21 22  4  0  0  0  0
 23 24  1  0  0  0  0
 23 28  1  0  0  0  0
 24 25  1  0  0  0  0
 25 26  1  0  0  0  0
 26 27  1  0  0  0  0
 26 29  1  0  0  0  0
 27 28  1  0  0  0  0
 30 31  4  0  0  0  0
M  END
>  <Name_Molregno>
597517

>  <HISTAMINE H4>
6.65

$$$$
597518
  Marvin  02231216192D 0   1.00000     0.00000     0

 25 27  0  0  0  0  0  0  0  0999 V2000
    1.4162   -5.6410    0.0000 Cl  0  0  0  0  0  0  0  0  0
    0.7018   -5.2285    0.0000 C   0  0  0  0  0  0  0  0  0
    0.7018   -4.4035    0.0000 C   0  0  0  0  0  0  0  0  0
   -0.0127   -3.9910    0.0000 C   0  0  0  0  0  0  0  0  0
   -0.7272   -4.4035    0.0000 C   0  0  0  0  0  0  0  0  0
   -1.4417   -3.9910    0.0000 N   0  0  0  0  0  0  0  0  0
   -1.4417   -3.1660    0.0000 C   0  0  0  0  0  0  0  0  0
   -0.7272   -2.7535    0.0000 N   0  0  0  0  0  0  0  0  0
   -0.0127   -3.1660    0.0000 C   0  0  0  0  0  0  0  0  0
    0.7018   -2.7535    0.0000 N   0  0  0  0  0  0  0  0  0
    1.4162   -3.1660    0.0000 C   0  0  0  0  0  0  0  0  0
    2.1307   -2.7535    0.0000 C   0  0  0  0  0  0  0  0  0
    2.8452   -3.1660    0.0000 N   0  0  0  0  0  0  0  0  0
    3.5596   -2.7535    0.0000 C   0  0  0  0  0  0  0  0  0
    4.2741   -3.1660    0.0000 O   0  0  0  0  0  0  0  0  0
    3.5596   -1.9285    0.0000 C   0  0  0  0  0  0  0  0  0
   -2.1561   -2.7535    0.0000 N   0  0  0  0  0  0  0  0  0
   -2.8706   -3.1660    0.0000 C   0  0  0  0  0  0  0  0  0
   -3.5851   -2.7535    0.0000 C   0  0  0  0  0  0  0  0  0
   -3.5851   -1.9285    0.0000 N   0  0  0  0  0  0  0  0  0
   -2.8706   -1.5160    0.0000 C   0  0  0  0  0  0  0  0  0
   -2.1561   -1.9285    0.0000 C   0  0  0  0  0  0  0  0  0
   -4.2995   -1.5160    0.0000 C   0  0  0  0  0  0  0  0  0
   -0.7272   -5.2285    0.0000 C   0  0  0  0  0  0  0  0  0
   -0.0127   -5.6410    0.0000 C   0  0  0  0  0  0  0  0  0
  1  2  1  0  0  0  0
  2  3  4  0  0  0  0
  2 25  4  0  0  0  0
  3  4  4  0  0  0  0
  4  5  4  0  0  0  0
  4  9  4  0  0  0  0
  5  6  4  0  0  0  0
  5 24  4  0  0  0  0
  6  7  4  0  0  0  0
  7  8  4  0  0  0  0
  7 17  1  0  0  0  0
  8  9  4  0  0  0  0
  9 10  1  0  0  0  0
 10 11  1  0  0  0  0
 11 12  1  0  0  0  0
 12 13  1  0  0  0  0
 13 14  1  0  0  0  0
 14 15  2  0  0  0  0
 14 16  1  0  0  0  0
 17 18  1  0  0  0  0
 17 22  1  0  0  0  0
 18 19  1  0  0  0  0
 19 20  1  0  0  0  0
 20 21  1  0  0  0  0
 20 23  1  0  0  0  0
 21 22  1  0  0  0  0
 24 25  4  0  0  0  0
M  END
>  <Name_Molregno>
597518

>  <HISTAMINE H4>
6.31

$$$$
597519
  Marvin  02231216192D 0   1.00000     0.00000     0

 28 31  0  0  0  0  0  0  0  0999 V2000
   -2.5771   -3.5273    0.0000 Cl  0  0  0  0  0  0  0  0  0
   -1.8626   -3.1148    0.0000 C   0  0  0  0  0  0  0  0  0
   -1.1481   -3.5273    0.0000 C   0  0  0  0  0  0  0  0  0
   -0.4336   -3.1148    0.0000 C   0  0  0  0  0  0  0  0  0
   -0.4336   -2.2898    0.0000 C   0  0  0  0  0  0  0  0  0
    0.2808   -1.8773    0.0000 N   0  0  0  0  0  0  0  0  0
    0.9953   -2.2898    0.0000 C   0  0  0  0  0  0  0  0  0
    0.9953   -3.1148    0.0000 N   0  0  0  0  0  0  0  0  0
    0.2808   -3.5273    0.0000 C   0  0  0  0  0  0  0  0  0
    0.2808   -4.3523    0.0000 N   0  0  0  0  0  0  0  0  0
   -0.4336   -4.7648    0.0000 C   0  0  0  0  0  0  0  0  0
   -0.4336   -5.5898    0.0000 C   0  0  0  0  0  0  0  0  0
   -1.1481   -6.0023    0.0000 N   0  0  0  0  0  0  0  0  0
   -1.2344   -6.8228    0.0000 C   0  0  0  0  0  0  0  0  0
   -0.6213   -7.3748    0.0000 O   0  0  0  0  0  0  0  0  0
   -2.0413   -6.9943    0.0000 C   0  0  0  0  0  0  0  0  0
   -2.4538   -6.2798    0.0000 S   0  0  0  0  0  0  0  0  0
   -1.9018   -5.6668    0.0000 C   0  0  0  0  0  0  0  0  0
   -2.0733   -4.8598    0.0000 O   0  0  0  0  0  0  0  0  0
    1.7098   -1.8773    0.0000 N   0  0  0  0  0  0  0  0  0
    1.7098   -1.0523    0.0000 C   0  0  0  0  0  0  0  0  0
    2.4242   -0.6398    0.0000 C   0  0  0  0  0  0  0  0  0
    3.1387   -1.0523    0.0000 N   0  0  0  0  0  0  0  0  0
    3.1387   -1.8773    0.0000 C   0  0  0  0  0  0  0  0  0
    2.4242   -2.2898    0.0000 C   0  0  0  0  0  0  0  0  0
    3.8532   -0.6398    0.0000 C   0  0  0  0  0  0  0  0  0
   -1.1481   -1.8773    0.0000 C   0  0  0  0  0  0  0  0  0
   -1.8626   -2.2898    0.0000 C   0  0  0  0  0  0  0  0  0
  1  2  1  0  0  0  0
  2  3  4  0  0  0  0
  2 28  4  0  0  0  0
  3  4  4  0  0  0  0
  4  5  4  0  0  0  0
  4  9  4  0  0  0  0
  5  6  4  0  0  0  0
  5 27  4  0  0  0  0
  6  7  4  0  0  0  0
  7  8  4  0  0  0  0
  7 20  1  0  0  0  0
  8  9  4  0  0  0  0
  9 10  1  0  0  0  0
 10 11  1  0  0  0  0
 11 12  1  0  0  0  0
 12 13  1  0  0  0  0
 13 14  1  0  0  0  0
 13 18  1  0  0  0  0
 14 15  2  0  0  0  0
 14 16  1  0  0  0  0
 16 17  1  0  0  0  0
 17 18  1  0  0  0  0
 18 19  2  0  0  0  0
 20 21  1  0  0  0  0
 20 25  1  0  0  0  0
 21 22  1  0  0  0  0
 22 23  1  0  0  0  0
 23 24  1  0  0  0  0
 23 26  1  0  0  0  0
 24 25  1  0  0  0  0
 27 28  4  0  0  0  0
M  END
>  <Name_Molregno>
597519

>  <HISTAMINE H4>
6.75

$$$$
597698
  Marvin  02231216192D 0   1.00000     0.00000     0

 30 33  0  0  0  0  0  0  0  0999 V2000
    1.2511   -1.3367    0.0000 Cl  0  0  0  0  0  0  0  0  0
    1.9656   -0.9242    0.0000 C   0  0  0  0  0  0  0  0  0
    2.6800   -1.3367    0.0000 C   0  0  0  0  0  0  0  0  0
    3.3945   -0.9242    0.0000 C   0  0  0  0  0  0  0  0  0
    3.3945   -0.0992    0.0000 C   0  0  0  0  0  0  0  0  0
    4.1090    0.3133    0.0000 N   0  0  0  0  0  0  0  0  0
    4.8234   -0.0992    0.0000 C   0  0  0  0  0  0  0  0  0
    4.8234   -0.9242    0.0000 N   0  0  0  0  0  0  0  0  0
    4.1090   -1.3367    0.0000 C   0  0  0  0  0  0  0  0  0
    4.1090   -2.1617    0.0000 N   0  0  0  0  0  0  0  0  0
    3.3945   -2.5742    0.0000 C   0  0  0  0  0  0  0  0  0
    3.3945   -3.3992    0.0000 C   0  0  0  0  0  0  0  0  0
    2.6800   -3.8117    0.0000 C   0  0  0  0  0  0  0  0  0
    2.6800   -4.6367    0.0000 C   0  0  0  0  0  0  0  0  0
    1.9656   -5.0492    0.0000 C   0  0  0  0  0  0  0  0  0
    1.2511   -4.6367    0.0000 C   0  0  0  0  0  0  0  0  0
    0.5366   -5.0492    0.0000 N   0  3  0  0  0  0  0  0  0
   -0.1779   -4.6367    0.0000 O   0  5  0  0  0  0  0  0  0
    0.5366   -5.8742    0.0000 O   0  5  0  0  0  0  0  0  0
    1.2511   -3.8117    0.0000 C   0  0  0  0  0  0  0  0  0
    1.9656   -3.3992    0.0000 C   0  0  0  0  0  0  0  0  0
    5.5379    0.3133    0.0000 N   0  0  0  0  0  0  0  0  0
    5.5379    1.1383    0.0000 C   0  0  0  0  0  0  0  0  0
    6.2524    1.5508    0.0000 C   0  0  0  0  0  0  0  0  0
    6.9669    1.1383    0.0000 N   0  0  0  0  0  0  0  0  0
    6.9669    0.3133    0.0000 C   0  0  0  0  0  0  0  0  0
    6.2524   -0.0992    0.0000 C   0  0  0  0  0  0  0  0  0
    7.6813    1.5508    0.0000 C   0  0  0  0  0  0  0  0  0
    2.6800    0.3133    0.0000 C   0  0  0  0  0  0  0  0  0
    1.9656   -0.0992    0.0000 C   0  0  0  0  0  0  0  0  0
  1  2  1  0  0  0  0
  2  3  4  0  0  0  0
  2 30  4  0  0  0  0
  3  4  4  0  0  0  0
  4  5  4  0  0  0  0
  4  9  4  0  0  0  0
  5  6  4  0  0  0  0
  5 29  4  0  0  0  0
  6  7  4  0  0  0  0
  7  8  4  0  0  0  0
  7 22  1  0  0  0  0
  8  9  4  0  0  0  0
  9 10  1  0  0  0  0
 10 11  1  0  0  0  0
 11 12  1  0  0  0  0
 12 13  1  0  0  0  0
 13 14  4  0  0  0  0
 13 21  4  0  0  0  0
 14 15  4  0  0  0  0
 15 16  4  0  0  0  0
 16 17  1  0  0  0  0
 16 20  4  0  0  0  0
 17 18  1  0  0  0  0
 17 19  1  0  0  0  0
 20 21  4  0  0  0  0
 22 23  1  0  0  0  0
 22 27  1  0  0  0  0
 23 24  1  0  0  0  0
 24 25  1  0  0  0  0
 25 26  1  0  0  0  0
 25 28  1  0  0  0  0
 26 27  1  0  0  0  0
 29 30  4  0  0  0  0
M  CHG  3  17   1  18  -1  19  -1
M  END
>  <Name_Molregno>
597698

>  <HISTAMINE H4>
7.3

$$$$
597786
  Marvin  02231216192D 0   1.00000     0.00000     0

 31 34  0  0  0  0  0  0  0  0999 V2000
    1.9003   -5.7192    0.0000 I   0  0  0  0  0  0  0  0  0
    1.0995   -5.5210    0.0000 C   0  0  0  0  0  0  0  0  0
    0.8706   -4.7284    0.0000 C   0  0  0  0  0  0  0  0  0
    0.0698   -4.5302    0.0000 C   0  0  0  0  0  0  0  0  0
   -0.5022   -5.1247    0.0000 C   0  0  0  0  0  0  0  0  0
   -1.3031   -4.9266    0.0000 N   0  0  0  0  0  0  0  0  0
   -1.5319   -4.1339    0.0000 C   0  0  0  0  0  0  0  0  0
   -0.9599   -3.5395    0.0000 N   0  0  0  0  0  0  0  0  0
   -0.1590   -3.7376    0.0000 C   0  0  0  0  0  0  0  0  0
    0.4130   -3.1431    0.0000 N   0  0  0  0  0  0  0  0  0
    1.2139   -3.3413    0.0000 C   0  0  0  0  0  0  0  0  0
    1.7859   -2.7468    0.0000 C   0  0  0  0  0  0  0  0  0
    2.5867   -2.9450    0.0000 S   0  0  0  0  0  0  0  0  0
    2.7849   -2.1441    0.0000 O   0  0  0  0  0  0  0  0  0
    2.3886   -3.7458    0.0000 O   0  0  0  0  0  0  0  0  0
    3.3876   -3.1431    0.0000 N   0  0  0  0  0  0  0  0  0
    3.9596   -2.5487    0.0000 C   0  0  0  0  0  0  0  0  0
    3.7308   -1.7560    0.0000 C   0  0  0  0  0  0  0  0  0
    4.3029   -1.1616    0.0000 C   0  0  0  0  0  0  0  0  0
    5.1037   -1.3597    0.0000 C   0  0  0  0  0  0  0  0  0
    5.3325   -2.1523    0.0000 C   0  0  0  0  0  0  0  0  0
    4.7605   -2.7468    0.0000 C   0  0  0  0  0  0  0  0  0
   -2.3328   -3.9358    0.0000 N   0  0  0  0  0  0  0  0  0
   -2.9048   -4.5302    0.0000 C   0  0  0  0  0  0  0  0  0
   -3.7056   -4.3321    0.0000 C   0  0  0  0  0  0  0  0  0
   -3.9344   -3.5395    0.0000 N   0  0  0  0  0  0  0  0  0
   -3.3624   -2.9450    0.0000 C   0  0  0  0  0  0  0  0  0
   -2.5616   -3.1431    0.0000 C   0  0  0  0  0  0  0  0  0
   -4.7353   -3.3413    0.0000 C   0  0  0  0  0  0  0  0  0
   -0.2734   -5.9174    0.0000 C   0  0  0  0  0  0  0  0  0
    0.5274   -6.1155    0.0000 C   0  0  0  0  0  0  0  0  0
  1  2  1  0  0  0  0
  2  3  4  0  0  0  0
  2 31  4  0  0  0  0
  3  4  4  0  0  0  0
  4  5  4  0  0  0  0
  4  9  4  0  0  0  0
  5  6  4  0  0  0  0
  5 30  4  0  0  0  0
  6  7  4  0  0  0  0
  7  8  4  0  0  0  0
  7 23  1  0  0  0  0
  8  9  4  0  0  0  0
  9 10  1  0  0  0  0
 10 11  1  0  0  0  0
 11 12  1  0  0  0  0
 12 13  1  0  0  0  0
 13 14  2  0  0  0  0
 13 15  2  0  0  0  0
 13 16  1  0  0  0  0
 16 17  1  0  0  0  0
 17 18  4  0  0  0  0
 17 22  4  0  0  0  0
 18 19  4  0  0  0  0
 19 20  4  0  0  0  0
 20 21  4  0  0  0  0
 21 22  4  0  0  0  0
 23 24  1  0  0  0  0
 23 28  1  0  0  0  0
 24 25  1  0  0  0  0
 25 26  1  0  0  0  0
 26 27  1  0  0  0  0
 26 29  1  0  0  0  0
 27 28  1  0  0  0  0
 30 31  4  0  0  0  0
M  END
>  <Name_Molregno>
597786

>  <HISTAMINE H4>
8.24

$$$$
597787
  Marvin  02231216192D 0   1.00000     0.00000     0

 32 35  0  0  0  0  0  0  0  0999 V2000
    1.1374    1.7303    0.0000 Cl  0  0  0  0  0  0  0  0  0
    0.5654    1.1358    0.0000 C   0  0  0  0  0  0  0  0  0
   -0.2355    1.3340    0.0000 C   0  0  0  0  0  0  0  0  0
   -0.8075    0.7395    0.0000 C   0  0  0  0  0  0  0  0  0
   -1.6083    0.9376    0.0000 N   0  0  0  0  0  0  0  0  0
   -1.8371    1.7303    0.0000 C   0  0  0  0  0  0  0  0  0
   -1.2651    2.3248    0.0000 N   0  0  0  0  0  0  0  0  0
   -0.4643    2.1266    0.0000 C   0  0  0  0  0  0  0  0  0
    0.1078    2.7211    0.0000 N   0  0  0  0  0  0  0  0  0
    0.9086    2.5229    0.0000 C   0  0  0  0  0  0  0  0  0
    1.4807    3.1174    0.0000 C   0  0  0  0  0  0  0  0  0
    2.2815    2.9192    0.0000 S   0  0  0  0  0  0  0  0  0
    2.4797    3.7201    0.0000 O   0  0  0  0  0  0  0  0  0
    2.0833    2.1184    0.0000 O   0  0  0  0  0  0  0  0  0
    3.0823    2.7211    0.0000 N   0  0  0  0  0  0  0  0  0
    3.6544    3.3156    0.0000 C   0  0  0  0  0  0  0  0  0
    3.4256    4.1082    0.0000 C   0  0  0  0  0  0  0  0  0
    3.9976    4.7027    0.0000 C   0  0  0  0  0  0  0  0  0
    4.7985    4.5045    0.0000 C   0  0  0  0  0  0  0  0  0
    5.0273    3.7119    0.0000 C   0  0  0  0  0  0  0  0  0
    4.4552    3.1174    0.0000 C   0  0  0  0  0  0  0  0  0
   -2.6380    1.9284    0.0000 N   0  0  0  0  0  0  0  0  0
   -3.2100    1.3340    0.0000 C   0  0  0  0  0  0  0  0  0
   -4.0109    1.5321    0.0000 C   0  0  0  0  0  0  0  0  0
   -4.2397    2.3248    0.0000 N   0  0  0  0  0  0  0  0  0
   -3.6677    2.9192    0.0000 C   0  0  0  0  0  0  0  0  0
   -2.8668    2.7211    0.0000 C   0  0  0  0  0  0  0  0  0
   -5.0405    2.5229    0.0000 C   0  0  0  0  0  0  0  0  0
   -0.5787   -0.0531    0.0000 C   0  0  0  0  0  0  0  0  0
    0.2222   -0.2513    0.0000 C   0  0  0  0  0  0  0  0  0
    0.4510   -1.0439    0.0000 Cl  0  0  0  0  0  0  0  0  0
    0.7942    0.3432    0.0000 C   0  0  0  0  0  0  0  0  0
  1  2  1  0  0  0  0
  2  3  4  0  0  0  0
  2 32  4  0  0  0  0
  3  4  4  0  0  0  0
  3  8  4  0  0  0  0
  4  5  4  0  0  0  0
  4 29  4  0  0  0  0
  5  6  4  0  0  0  0
  6  7  4  0  0  0  0
  6 22  1  0  0  0  0
  7  8  4  0  0  0  0
  8  9  1  0  0  0  0
  9 10  1  0  0  0  0
 10 11  1  0  0  0  0
 11 12  1  0  0  0  0
 12 13  2  0  0  0  0
 12 14  2  0  0  0  0
 12 15  1  0  0  0  0
 15 16  1  0  0  0  0
 16 17  4  0  0  0  0
 16 21  4  0  0  0  0
 17 18  4  0  0  0  0
 18 19  4  0  0  0  0
 19 20  4  0  0  0  0
 20 21  4  0  0  0  0
 22 23  1  0  0  0  0
 22 27  1  0  0  0  0
 23 24  1  0  0  0  0
 24 25  1  0  0  0  0
 25 26  1  0  0  0  0
 25 28  1  0  0  0  0
 26 27  1  0  0  0  0
 29 30  4  0  0  0  0
 30 31  1  0  0  0  0
 30 32  4  0  0  0  0
M  END
>  <Name_Molregno>
597787

>  <HISTAMINE H4>
6.82

$$$$
597815
  Marvin  02231216192D 0   1.00000     0.00000     0

 32 35  0  0  0  0  0  0  0  0999 V2000
    2.1989   -2.2723    0.0000 Cl  0  0  0  0  0  0  0  0  0
    2.7709   -1.6779    0.0000 C   0  0  0  0  0  0  0  0  0
    2.5421   -0.8852    0.0000 C   0  0  0  0  0  0  0  0  0
    1.7413   -0.6871    0.0000 N   0  0  0  0  0  0  0  0  0
    1.5125    0.1056    0.0000 C   0  0  0  0  0  0  0  0  0
    2.0845    0.7000    0.0000 N   0  0  0  0  0  0  0  0  0
    2.8853    0.5019    0.0000 C   0  0  0  0  0  0  0  0  0
    3.4574    1.0963    0.0000 N   0  0  0  0  0  0  0  0  0
    4.2582    0.8982    0.0000 C   0  0  0  0  0  0  0  0  0
    4.8303    1.4927    0.0000 C   0  0  0  0  0  0  0  0  0
    5.6311    1.2945    0.0000 S   0  0  0  0  0  0  0  0  0
    5.8293    2.0954    0.0000 O   0  0  0  0  0  0  0  0  0
    5.4329    0.4937    0.0000 O   0  0  0  0  0  0  0  0  0
    6.4320    1.0963    0.0000 N   0  0  0  0  0  0  0  0  0
    7.0040    1.6908    0.0000 C   0  0  0  0  0  0  0  0  0
    6.7752    2.4835    0.0000 C   0  0  0  0  0  0  0  0  0
    7.3472    3.0779    0.0000 C   0  0  0  0  0  0  0  0  0
    8.1481    2.8798    0.0000 C   0  0  0  0  0  0  0  0  0
    8.3769    2.0871    0.0000 C   0  0  0  0  0  0  0  0  0
    7.8048    1.4927    0.0000 C   0  0  0  0  0  0  0  0  0
    3.1142   -0.2908    0.0000 C   0  0  0  0  0  0  0  0  0
    3.9150   -0.4889    0.0000 C   0  0  0  0  0  0  0  0  0
    4.1438   -1.2816    0.0000 C   0  0  0  0  0  0  0  0  0
    3.5718   -1.8760    0.0000 C   0  0  0  0  0  0  0  0  0
    3.8006   -2.6687    0.0000 Cl  0  0  0  0  0  0  0  0  0
    0.7116    0.3037    0.0000 N   0  0  0  0  0  0  0  0  0
    0.1396   -0.2908    0.0000 C   0  0  0  0  0  0  0  0  0
   -0.6613   -0.0926    0.0000 C   0  0  0  0  0  0  0  0  0
   -0.8901    0.7000    0.0000 N   0  0  0  0  0  0  0  0  0
   -0.3181    1.2945    0.0000 C   0  0  0  0  0  0  0  0  0
    0.4828    1.0963    0.0000 C   0  0  0  0  0  0  0  0  0
   -1.6909    0.8982    0.0000 C   0  0  0  0  0  0  0  0  0
  1  2  1  0  0  0  0
  2  3  4  0  0  0  0
  2 24  4  0  0  0  0
  3  4  4  0  0  0  0
  3 21  4  0  0  0  0
  4  5  4  0  0  0  0
  5  6  4  0  0  0  0
  5 26  1  0  0  0  0
  6  7  4  0  0  0  0
  7  8  1  0  0  0  0
  7 21  4  0  0  0  0
  8  9  1  0  0  0  0
  9 10  1  0  0  0  0
 10 11  1  0  0  0  0
 11 12  2  0  0  0  0
 11 13  2  0  0  0  0
 11 14  1  0  0  0  0
 14 15  1  0  0  0  0
 15 16  4  0  0  0  0
 15 20  4  0  0  0  0
 16 17  4  0  0  0  0
 17 18  4  0  0  0  0
 18 19  4  0  0  0  0
 19 20  4  0  0  0  0
 21 22  4  0  0  0  0
 22 23  4  0  0  0  0
 23 24  4  0  0  0  0
 24 25  1  0  0  0  0
 26 27  1  0  0  0  0
 26 31  1  0  0  0  0
 27 28  1  0  0  0  0
 28 29  1  0  0  0  0
 29 30  1  0  0  0  0
 29 32  1  0  0  0  0
 30 31  1  0  0  0  0
M  END
>  <Name_Molregno>
597815

>  <HISTAMINE H4>
6.51

$$$$
597816
  Marvin  02231216192D 0   1.00000     0.00000     0

 32 35  0  0  0  0  0  0  0  0999 V2000
    0.7982   -5.5025    0.0000 Cl  0  0  0  0  0  0  0  0  0
   -0.0026   -5.3043    0.0000 C   0  0  0  0  0  0  0  0  0
   -0.2314   -4.5117    0.0000 C   0  0  0  0  0  0  0  0  0
   -1.0323   -4.3135    0.0000 C   0  0  0  0  0  0  0  0  0
   -1.6043   -4.9080    0.0000 C   0  0  0  0  0  0  0  0  0
   -2.4051   -4.7098    0.0000 N   0  0  0  0  0  0  0  0  0
   -2.6340   -3.9172    0.0000 C   0  0  0  0  0  0  0  0  0
   -2.0619   -3.3227    0.0000 N   0  0  0  0  0  0  0  0  0
   -1.2611   -3.5209    0.0000 C   0  0  0  0  0  0  0  0  0
   -0.6890   -2.9264    0.0000 N   0  0  0  0  0  0  0  0  0
    0.1118   -3.1245    0.0000 C   0  0  0  0  0  0  0  0  0
    0.6838   -2.5301    0.0000 C   0  0  0  0  0  0  0  0  0
    1.4847   -2.7282    0.0000 S   0  0  0  0  0  0  0  0  0
    1.6828   -1.9274    0.0000 O   0  0  0  0  0  0  0  0  0
    1.2865   -3.5291    0.0000 O   0  0  0  0  0  0  0  0  0
    2.2855   -2.9264    0.0000 N   0  0  0  0  0  0  0  0  0
    2.8576   -2.3319    0.0000 C   0  0  0  0  0  0  0  0  0
    2.6288   -1.5393    0.0000 C   0  0  0  0  0  0  0  0  0
    3.2008   -0.9448    0.0000 C   0  0  0  0  0  0  0  0  0
    4.0016   -1.1430    0.0000 C   0  0  0  0  0  0  0  0  0
    4.2305   -1.9356    0.0000 C   0  0  0  0  0  0  0  0  0
    3.6584   -2.5301    0.0000 C   0  0  0  0  0  0  0  0  0
   -3.4348   -3.7190    0.0000 N   0  0  0  0  0  0  0  0  0
   -4.0068   -4.3135    0.0000 C   0  0  0  0  0  0  0  0  0
   -4.8077   -4.1153    0.0000 C   0  0  0  0  0  0  0  0  0
   -5.0365   -3.3227    0.0000 N   0  0  0  0  0  0  0  0  0
   -4.4645   -2.7282    0.0000 C   0  0  0  0  0  0  0  0  0
   -3.6636   -2.9264    0.0000 C   0  0  0  0  0  0  0  0  0
   -5.8374   -3.1245    0.0000 C   0  0  0  0  0  0  0  0  0
   -1.3755   -5.7006    0.0000 C   0  0  0  0  0  0  0  0  0
   -0.5746   -5.8988    0.0000 C   0  0  0  0  0  0  0  0  0
   -0.3458   -6.6914    0.0000 Cl  0  0  0  0  0  0  0  0  0
  1  2  1  0  0  0  0
  2  3  4  0  0  0  0
  2 31  4  0  0  0  0
  3  4  4  0  0  0  0
  4  5  4  0  0  0  0
  4  9  4  0  0  0  0
  5  6  4  0  0  0  0
  5 30  4  0  0  0  0
  6  7  4  0  0  0  0
  7  8  4  0  0  0  0
  7 23  1  0  0  0  0
  8  9  4  0  0  0  0
  9 10  1  0  0  0  0
 10 11  1  0  0  0  0
 11 12  1  0  0  0  0
 12 13  1  0  0  0  0
 13 14  2  0  0  0  0
 13 15  2  0  0  0  0
 13 16  1  0  0  0  0
 16 17  1  0  0  0  0
 17 18  4  0  0  0  0
 17 22  4  0  0  0  0
 18 19  4  0  0  0  0
 19 20  4  0  0  0  0
 20 21  4  0  0  0  0
 21 22  4  0  0  0  0
 23 24  1  0  0  0  0
 23 28  1  0  0  0  0
 24 25  1  0  0  0  0
 25 26  1  0  0  0  0
 26 27  1  0  0  0  0
 26 29  1  0  0  0  0
 27 28  1  0  0  0  0
 30 31  4  0  0  0  0
 31 32  1  0  0  0  0
M  END
>  <Name_Molregno>
597816

>  <HISTAMINE H4>
7.72

$$$$
597817
  Marvin  02231216192D 0   1.00000     0.00000     0

 32 35  0  0  0  0  0  0  0  0999 V2000
    0.7982   -5.5025    0.0000 Br  0  0  0  0  0  0  0  0  0
   -0.0026   -5.3043    0.0000 C   0  0  0  0  0  0  0  0  0
   -0.2314   -4.5117    0.0000 C   0  0  0  0  0  0  0  0  0
   -1.0323   -4.3135    0.0000 C   0  0  0  0  0  0  0  0  0
   -1.6043   -4.9080    0.0000 C   0  0  0  0  0  0  0  0  0
   -2.4051   -4.7098    0.0000 N   0  0  0  0  0  0  0  0  0
   -2.6340   -3.9172    0.0000 C   0  0  0  0  0  0  0  0  0
   -2.0619   -3.3227    0.0000 N   0  0  0  0  0  0  0  0  0
   -1.2611   -3.5209    0.0000 C   0  0  0  0  0  0  0  0  0
   -0.6890   -2.9264    0.0000 N   0  0  0  0  0  0  0  0  0
    0.1118   -3.1245    0.0000 C   0  0  0  0  0  0  0  0  0
    0.6838   -2.5301    0.0000 C   0  0  0  0  0  0  0  0  0
    1.4847   -2.7282    0.0000 S   0  0  0  0  0  0  0  0  0
    1.6828   -1.9274    0.0000 O   0  0  0  0  0  0  0  0  0
    1.2865   -3.5291    0.0000 O   0  0  0  0  0  0  0  0  0
    2.2855   -2.9264    0.0000 N   0  0  0  0  0  0  0  0  0
    2.8576   -2.3319    0.0000 C   0  0  0  0  0  0  0  0  0
    2.6288   -1.5393    0.0000 C   0  0  0  0  0  0  0  0  0
    3.2008   -0.9448    0.0000 C   0  0  0  0  0  0  0  0  0
    4.0016   -1.1430    0.0000 C   0  0  0  0  0  0  0  0  0
    4.2305   -1.9356    0.0000 C   0  0  0  0  0  0  0  0  0
    3.6584   -2.5301    0.0000 C   0  0  0  0  0  0  0  0  0
   -3.4348   -3.7190    0.0000 N   0  0  0  0  0  0  0  0  0
   -4.0068   -4.3135    0.0000 C   0  0  0  0  0  0  0  0  0
   -4.8077   -4.1153    0.0000 C   0  0  0  0  0  0  0  0  0
   -5.0365   -3.3227    0.0000 N   0  0  0  0  0  0  0  0  0
   -4.4645   -2.7282    0.0000 C   0  0  0  0  0  0  0  0  0
   -3.6636   -2.9264    0.0000 C   0  0  0  0  0  0  0  0  0
   -5.8374   -3.1245    0.0000 C   0  0  0  0  0  0  0  0  0
   -1.3755   -5.7006    0.0000 C   0  0  0  0  0  0  0  0  0
   -0.5746   -5.8988    0.0000 C   0  0  0  0  0  0  0  0  0
   -0.3458   -6.6914    0.0000 Cl  0  0  0  0  0  0  0  0  0
  1  2  1  0  0  0  0
  2  3  4  0  0  0  0
  2 31  4  0  0  0  0
  3  4  4  0  0  0  0
  4  5  4  0  0  0  0
  4  9  4  0  0  0  0
  5  6  4  0  0  0  0
  5 30  4  0  0  0  0
  6  7  4  0  0  0  0
  7  8  4  0  0  0  0
  7 23  1  0  0  0  0
  8  9  4  0  0  0  0
  9 10  1  0  0  0  0
 10 11  1  0  0  0  0
 11 12  1  0  0  0  0
 12 13  1  0  0  0  0
 13 14  2  0  0  0  0
 13 15  2  0  0  0  0
 13 16  1  0  0  0  0
 16 17  1  0  0  0  0
 17 18  4  0  0  0  0
 17 22  4  0  0  0  0
 18 19  4  0  0  0  0
 19 20  4  0  0  0  0
 20 21  4  0  0  0  0
 21 22  4  0  0  0  0
 23 24  1  0  0  0  0
 23 28  1  0  0  0  0
 24 25  1  0  0  0  0
 25 26  1  0  0  0  0
 26 27  1  0  0  0  0
 26 29  1  0  0  0  0
 27 28  1  0  0  0  0
 30 31  4  0  0  0  0
 31 32  1  0  0  0  0
M  END
>  <Name_Molregno>
597817

>  <HISTAMINE H4>
7.81

$$$$
597818
  Marvin  02231216192D 0   1.00000     0.00000     0

 32 35  0  0  0  0  0  0  0  0999 V2000
    2.2103   -3.2095    0.0000 Cl  0  0  0  0  0  0  0  0  0
    2.7823   -2.6150    0.0000 C   0  0  0  0  0  0  0  0  0
    3.5831   -2.8132    0.0000 C   0  0  0  0  0  0  0  0  0
    4.1552   -2.2187    0.0000 C   0  0  0  0  0  0  0  0  0
    4.9560   -2.4169    0.0000 Cl  0  0  0  0  0  0  0  0  0
    3.9264   -1.4261    0.0000 C   0  0  0  0  0  0  0  0  0
    3.1255   -1.2279    0.0000 C   0  0  0  0  0  0  0  0  0
    2.5535   -1.8224    0.0000 C   0  0  0  0  0  0  0  0  0
    1.7526   -1.6242    0.0000 N   0  0  0  0  0  0  0  0  0
    1.5238   -0.8316    0.0000 C   0  0  0  0  0  0  0  0  0
    2.0958   -0.2371    0.0000 N   0  0  0  0  0  0  0  0  0
    2.8967   -0.4353    0.0000 C   0  0  0  0  0  0  0  0  0
    3.4687    0.1592    0.0000 N   0  0  0  0  0  0  0  0  0
    4.2696   -0.0390    0.0000 C   0  0  0  0  0  0  0  0  0
    4.8416    0.5555    0.0000 C   0  0  0  0  0  0  0  0  0
    5.6425    0.3574    0.0000 S   0  0  0  0  0  0  0  0  0
    5.8406    1.1582    0.0000 O   0  0  0  0  0  0  0  0  0
    5.4443   -0.4435    0.0000 O   0  0  0  0  0  0  0  0  0
    6.4433    0.1592    0.0000 N   0  0  0  0  0  0  0  0  0
    7.0153    0.7537    0.0000 C   0  0  0  0  0  0  0  0  0
    6.7865    1.5463    0.0000 C   0  0  0  0  0  0  0  0  0
    7.3586    2.1408    0.0000 C   0  0  0  0  0  0  0  0  0
    8.1594    1.9426    0.0000 C   0  0  0  0  0  0  0  0  0
    8.3882    1.1500    0.0000 C   0  0  0  0  0  0  0  0  0
    7.8162    0.5555    0.0000 C   0  0  0  0  0  0  0  0  0
    0.7230   -0.6334    0.0000 N   0  0  0  0  0  0  0  0  0
    0.1509   -1.2279    0.0000 C   0  0  0  0  0  0  0  0  0
   -0.6499   -1.0298    0.0000 C   0  0  0  0  0  0  0  0  0
   -0.8787   -0.2371    0.0000 N   0  0  0  0  0  0  0  0  0
   -0.3067    0.3574    0.0000 C   0  0  0  0  0  0  0  0  0
    0.4942    0.1592    0.0000 C   0  0  0  0  0  0  0  0  0
   -1.6796   -0.0390    0.0000 C   0  0  0  0  0  0  0  0  0
  1  2  1  0  0  0  0
  2  3  4  0  0  0  0
  2  8  4  0  0  0  0
  3  4  4  0  0  0  0
  4  5  1  0  0  0  0
  4  6  4  0  0  0  0
  6  7  4  0  0  0  0
  7  8  4  0  0  0  0
  7 12  4  0  0  0  0
  8  9  4  0  0  0  0
  9 10  4  0  0  0  0
 10 11  4  0  0  0  0
 10 26  1  0  0  0  0
 11 12  4  0  0  0  0
 12 13  1  0  0  0  0
 13 14  1  0  0  0  0
 14 15  1  0  0  0  0
 15 16  1  0  0  0  0
 16 17  2  0  0  0  0
 16 18  2  0  0  0  0
 16 19  1  0  0  0  0
 19 20  1  0  0  0  0
 20 21  4  0  0  0  0
 20 25  4  0  0  0  0
 21 22  4  0  0  0  0
 22 23  4  0  0  0  0
 23 24  4  0  0  0  0
 24 25  4  0  0  0  0
 26 27  1  0  0  0  0
 26 31  1  0  0  0  0
 27 28  1  0  0  0  0
 28 29  1  0  0  0  0
 29 30  1  0  0  0  0
 29 32  1  0  0  0  0
 30 31  1  0  0  0  0
M  END
>  <Name_Molregno>
597818

>  <HISTAMINE H4>
7.95

$$$$
597852
  Marvin  02231216192D 0   1.00000     0.00000     0

 34 37  0  0  0  0  0  0  0  0999 V2000
   -3.7052    0.0141    0.0000 S   0  0  0  0  0  0  0  0  0
   -3.9033   -0.7868    0.0000 O   0  0  0  0  0  0  0  0  0
   -3.5070    0.8149    0.0000 O   0  0  0  0  0  0  0  0  0
   -4.5060    0.2122    0.0000 N   0  0  0  0  0  0  0  0  0
   -5.0781   -0.3822    0.0000 C   0  0  0  0  0  0  0  0  0
   -4.8492   -1.1749    0.0000 C   0  0  0  0  0  0  0  0  0
   -5.4213   -1.7694    0.0000 C   0  0  0  0  0  0  0  0  0
   -6.2221   -1.5712    0.0000 C   0  0  0  0  0  0  0  0  0
   -6.4509   -0.7786    0.0000 C   0  0  0  0  0  0  0  0  0
   -5.8789   -0.1841    0.0000 C   0  0  0  0  0  0  0  0  0
   -2.9043   -0.1841    0.0000 C   0  0  0  0  0  0  0  0  0
   -2.3323    0.4104    0.0000 C   0  0  0  0  0  0  0  0  0
   -1.5314    0.2122    0.0000 N   0  0  0  0  0  0  0  0  0
   -0.9594    0.8067    0.0000 C   0  0  0  0  0  0  0  0  0
   -0.1586    0.6085    0.0000 N   0  0  0  0  0  0  0  0  0
    0.4135    1.2030    0.0000 C   0  0  0  0  0  0  0  0  0
    0.1847    1.9957    0.0000 N   0  0  0  0  0  0  0  0  0
   -0.6162    2.1938    0.0000 C   0  0  0  0  0  0  0  0  0
   -1.1882    1.5993    0.0000 C   0  0  0  0  0  0  0  0  0
   -1.9891    1.7975    0.0000 C   0  0  0  0  0  0  0  0  0
   -2.2179    2.5901    0.0000 C   0  0  0  0  0  0  0  0  0
   -1.6458    3.1846    0.0000 C   0  0  0  0  0  0  0  0  0
   -0.8450    2.9864    0.0000 C   0  0  0  0  0  0  0  0  0
   -2.5611    1.2030    0.0000 C   0  0  0  0  0  0  0  0  0
   -3.1331    0.6085    0.0000 F   0  0  0  0  0  0  0  0  0
   -3.1556    1.7751    0.0000 F   0  0  0  0  0  0  0  0  0
   -1.9666    0.6310    0.0000 F   0  0  0  0  0  0  0  0  0
    1.2143    1.0049    0.0000 N   0  0  0  0  0  0  0  0  0
    1.7864    1.5993    0.0000 C   0  0  0  0  0  0  0  0  0
    2.5872    1.4012    0.0000 C   0  0  0  0  0  0  0  0  0
    2.8160    0.6085    0.0000 N   0  0  0  0  0  0  0  0  0
    2.2440    0.0141    0.0000 C   0  0  0  0  0  0  0  0  0
    1.4431    0.2122    0.0000 C   0  0  0  0  0  0  0  0  0
    3.6169    0.4104    0.0000 C   0  0  0  0  0  0  0  0  0
  1  2  2  0  0  0  0
  1  3  2  0  0  0  0
  1  4  1  0  0  0  0
  1 11  1  0  0  0  0
  4  5  1  0  0  0  0
  5  6  4  0  0  0  0
  5 10  4  0  0  0  0
  6  7  4  0  0  0  0
  7  8  4  0  0  0  0
  8  9  4  0  0  0  0
  9 10  4  0  0  0  0
 11 12  1  0  0  0  0
 12 13  1  0  0  0  0
 13 14  1  0  0  0  0
 14 15  4  0  0  0  0
 14 19  4  0  0  0  0
 15 16  4  0  0  0  0
 16 17  4  0  0  0  0
 16 28  1  0  0  0  0
 17 18  4  0  0  0  0
 18 19  4  0  0  0  0
 18 23  4  0  0  0  0
 19 20  4  0  0  0  0
 20 21  4  0  0  0  0
 20 24  1  0  0  0  0
 21 22  4  0  0  0  0
 22 23  4  0  0  0  0
 24 25  1  0  0  0  0
 24 26  1  0  0  0  0
 24 27  1  0  0  0  0
 28 29  1  0  0  0  0
 28 33  1  0  0  0  0
 29 30  1  0  0  0  0
 30 31  1  0  0  0  0
 31 32  1  0  0  0  0
 31 34  1  0  0  0  0
 32 33  1  0  0  0  0
M  END
>  <Name_Molregno>
597852

>  <HISTAMINE H4>
8.09

$$$$
601190
  Marvin  02231216192D 0   1.00000     0.00000     0

 20 22  0  0  1  0  0  0  0  0999 V2000
   -0.0713   -2.2634    0.0000 Cl  0  0  0  0  0  0  0  0  0
    0.6432   -1.8509    0.0000 C   0  0  0  0  0  0  0  0  0
    0.6432   -1.0259    0.0000 C   0  0  0  0  0  0  0  0  0
    1.3577   -0.6134    0.0000 C   0  0  0  0  0  0  0  0  0
    2.0722   -1.0259    0.0000 C   0  0  0  0  0  0  0  0  0
    2.0722   -1.8509    0.0000 C   0  0  0  0  0  0  0  0  0
    1.3577   -2.2634    0.0000 C   0  0  0  0  0  0  0  0  0
    2.7866   -0.6134    0.0000 C   0  0  0  0  0  0  0  0  0
    3.5011   -1.0259    0.0000 N   0  0  0  0  0  0  0  0  0
    4.2156   -0.6134    0.0000 C   0  0  0  0  0  0  0  0  0
    4.9300   -1.0259    0.0000 C   0  0  0  0  0  0  0  0  0
    5.6445   -0.6134    0.0000 C   0  0  0  0  0  0  0  0  0
    6.0570    0.1011    0.0000 C   0  0  0  0  0  0  0  0  0
    6.4695   -0.6134    0.0000 C   0  0  0  0  0  0  0  0  0
    7.1840   -1.0259    0.0000 C   0  0  0  0  0  0  0  0  0
    7.9377   -0.6904    0.0000 N   0  0  0  0  0  0  0  0  0
    8.4897   -1.3034    0.0000 C   0  0  0  0  0  0  0  0  0
    8.0772   -2.0179    0.0000 N   0  0  0  0  0  0  0  0  0
    7.2702   -1.8464    0.0000 C   0  0  0  0  0  0  0  0  0
    6.6571   -2.3984    0.0000 C   0  0  0  0  0  0  0  0  0
  1  2  1  0  0  0  0
  2  3  4  0  0  0  0
  2  7  4  0  0  0  0
  3  4  4  0  0  0  0
  4  5  4  0  0  0  0
  5  6  4  0  0  0  0
  5  8  1  0  0  0  0
  6  7  4  0  0  0  0
  8  9  1  0  0  0  0
  9 10  1  0  0  0  0
 10 11  1  0  0  0  0
 11 12  1  0  0  0  0
 12 13  1  0  0  0  0
 12 14  1  0  0  0  0
 13 14  1  0  0  0  0
 14 15  1  0  0  0  0
 15 16  4  0  0  0  0
 15 19  4  0  0  0  0
 16 17  4  0  0  0  0
 17 18  4  0  0  0  0
 18 19  4  0  0  0  0
 19 20  1  0  0  0  0
M  STY  1   1 DAT
M  SAL   1  1  18
M  SDT   1 MRV_IMPLICIT_H                                        
M  SDD   1     0.0000    0.0000    DR    ALL  0       0  
M  SED   1 IMPL_H1
M  END
>  <Name_Molregno>
601190

>  <HISTAMINE H3>
7.41

>  <HISTAMINE H4>
6.83

$$$$
601255
  Marvin  02231216192D 0   1.00000     0.00000     0

 19 21  0  0  1  0  0  0  0  0999 V2000
    7.3991    2.6955    0.0000 Cl  0  0  0  0  0  0  0  0  0
    6.6846    2.2830    0.0000 C   0  0  0  0  0  0  0  0  0
    6.6846    1.4580    0.0000 C   0  0  0  0  0  0  0  0  0
    5.9702    1.0455    0.0000 C   0  0  0  0  0  0  0  0  0
    5.2557    1.4580    0.0000 C   0  0  0  0  0  0  0  0  0
    5.2557    2.2830    0.0000 C   0  0  0  0  0  0  0  0  0
    5.9702    2.6955    0.0000 C   0  0  0  0  0  0  0  0  0
    4.5412    1.0455    0.0000 C   0  0  0  0  0  0  0  0  0
    4.5412    0.2205    0.0000 N   0  0  0  0  0  0  0  0  0
    3.8268   -0.1920    0.0000 C   0  0  0  0  0  0  0  0  0
    3.8268   -1.0170    0.0000 C   0  0  0  0  0  0  0  0  0
    4.2393   -1.7315    0.0000 C   0  0  0  0  0  0  0  0  0
    3.4143   -1.7315    0.0000 C   0  0  0  0  0  0  0  0  0
    2.6998   -2.1440    0.0000 C   0  0  0  0  0  0  0  0  0
    2.6136   -2.9645    0.0000 N   0  0  0  0  0  0  0  0  0
    1.8066   -3.1360    0.0000 C   0  0  0  0  0  0  0  0  0
    1.3941   -2.4216    0.0000 N   0  0  0  0  0  0  0  0  0
    1.9461   -1.8085    0.0000 C   0  0  0  0  0  0  0  0  0
    1.7746   -1.0015    0.0000 C   0  0  0  0  0  0  0  0  0
  1  2  1  0  0  0  0
  2  3  4  0  0  0  0
  2  7  4  0  0  0  0
  3  4  4  0  0  0  0
  4  5  4  0  0  0  0
  5  6  4  0  0  0  0
  5  8  1  0  0  0  0
  6  7  4  0  0  0  0
  8  9  1  0  0  0  0
  9 10  1  0  0  0  0
 10 11  1  0  0  0  0
 11 12  1  0  0  0  0
 11 13  1  0  0  0  0
 12 13  1  0  0  0  0
 13 14  1  0  0  0  0
 14 15  4  0  0  0  0
 14 18  4  0  0  0  0
 15 16  4  0  0  0  0
 16 17  4  0  0  0  0
 17 18  4  0  0  0  0
 18 19  1  0  0  0  0
M  STY  1   1 DAT
M  SAL   1  1  17
M  SDT   1 MRV_IMPLICIT_H                                        
M  SDD   1     0.0000    0.0000    DR    ALL  0       0  
M  SED   1 IMPL_H1
M  END
>  <Name_Molregno>
601255

>  <HISTAMINE H3>
6

>  <HISTAMINE H4>
6

$$$$
608809
  Marvin  02231216192D 0   1.00000     0.00000     0

 26 29  0  0  0  0  0  0  0  0999 V2000
   -0.8351   -1.7958    0.0000 Cl  0  0  0  0  0  0  0  0  0
   -0.1206   -2.2083    0.0000 C   0  0  0  0  0  0  0  0  0
    0.5938   -1.7958    0.0000 C   0  0  0  0  0  0  0  0  0
    1.3083   -2.2083    0.0000 C   0  0  0  0  0  0  0  0  0
    2.0228   -1.7958    0.0000 N   0  0  0  0  0  0  0  0  0
    2.7372   -2.2083    0.0000 C   0  0  0  0  0  0  0  0  0
    3.4517   -1.7958    0.0000 O   0  0  0  0  0  0  0  0  0
    3.4517   -0.9708    0.0000 C   0  0  0  0  0  0  0  0  0
    4.1662   -0.5583    0.0000 C   0  0  0  0  0  0  0  0  0
    4.1662    0.2667    0.0000 C   0  0  0  0  0  0  0  0  0
    4.8807    0.6792    0.0000 C   0  0  0  0  0  0  0  0  0
    5.5951    0.2667    0.0000 C   0  0  0  0  0  0  0  0  0
    5.5951   -0.5583    0.0000 C   0  0  0  0  0  0  0  0  0
    4.8807   -0.9708    0.0000 C   0  0  0  0  0  0  0  0  0
    2.7372   -3.0333    0.0000 C   0  0  0  0  0  0  0  0  0
    2.0228   -3.4458    0.0000 N   0  0  0  0  0  0  0  0  0
    1.3083   -3.0333    0.0000 C   0  0  0  0  0  0  0  0  0
    0.5938   -3.4458    0.0000 C   0  0  0  0  0  0  0  0  0
   -0.1206   -3.0333    0.0000 C   0  0  0  0  0  0  0  0  0
    3.4517   -3.4458    0.0000 N   0  0  0  0  0  0  0  0  0
    4.1662   -3.0333    0.0000 C   0  0  0  0  0  0  0  0  0
    4.8807   -3.4458    0.0000 C   0  0  0  0  0  0  0  0  0
    4.8807   -4.2708    0.0000 N   0  0  0  0  0  0  0  0  0
    4.1662   -4.6833    0.0000 C   0  0  0  0  0  0  0  0  0
    3.4517   -4.2708    0.0000 C   0  0  0  0  0  0  0  0  0
    5.5951   -4.6833    0.0000 C   0  0  0  0  0  0  0  0  0
  1  2  1  0  0  0  0
  2  3  4  0  0  0  0
  2 19  4  0  0  0  0
  3  4  4  0  0  0  0
  4  5  4  0  0  0  0
  4 17  4  0  0  0  0
  5  6  4  0  0  0  0
  6  7  1  0  0  0  0
  6 15  4  0  0  0  0
  7  8  1  0  0  0  0
  8  9  1  0  0  0  0
  9 10  4  0  0  0  0
  9 14  4  0  0  0  0
 10 11  4  0  0  0  0
 11 12  4  0  0  0  0
 12 13  4  0  0  0  0
 13 14  4  0  0  0  0
 15 16  4  0  0  0  0
 15 20  1  0  0  0  0
 16 17  4  0  0  0  0
 17 18  4  0  0  0  0
 18 19  4  0  0  0  0
 20 21  1  0  0  0  0
 20 25  1  0  0  0  0
 21 22  1  0  0  0  0
 22 23  1  0  0  0  0
 23 24  1  0  0  0  0
 23 26  1  0  0  0  0
 24 25  1  0  0  0  0
M  END
>  <Name_Molregno>
608809

>  <HISTAMINE H4>
6.57

$$$$
610113
  Marvin  02231216192D 0   1.00000     0.00000     0

 20 21  0  0  0  0  0  0  0  0999 V2000
   -0.1733   -2.3952    0.0000 Cl  0  0  0  0  0  0  0  0  0
    0.5412   -1.9827    0.0000 C   0  0  0  0  0  0  0  0  0
    0.5412   -1.1577    0.0000 C   0  0  0  0  0  0  0  0  0
    1.2557   -0.7452    0.0000 C   0  0  0  0  0  0  0  0  0
    1.9702   -1.1577    0.0000 C   0  0  0  0  0  0  0  0  0
    1.9702   -1.9827    0.0000 C   0  0  0  0  0  0  0  0  0
    1.2557   -2.3952    0.0000 C   0  0  0  0  0  0  0  0  0
    2.6846   -0.7452    0.0000 C   0  0  0  0  0  0  0  0  0
    3.3991   -1.1577    0.0000 N   0  0  0  0  0  0  0  0  0
    4.1136   -0.7452    0.0000 C   0  0  0  0  0  0  0  0  0
    4.8280   -1.1577    0.0000 S   0  0  0  0  0  0  0  0  0
    5.5425   -0.7452    0.0000 C   0  0  0  0  0  0  0  0  0
    6.2570   -1.1577    0.0000 C   0  0  0  0  0  0  0  0  0
    6.9715   -0.7452    0.0000 C   0  0  0  0  0  0  0  0  0
    7.6859   -1.1577    0.0000 C   0  0  0  0  0  0  0  0  0
    8.4396   -0.8222    0.0000 N   0  0  0  0  0  0  0  0  0
    8.9916   -1.4353    0.0000 C   0  0  0  0  0  0  0  0  0
    8.5791   -2.1497    0.0000 C   0  0  0  0  0  0  0  0  0
    7.7722   -1.9782    0.0000 N   0  0  0  0  0  0  0  0  0
    4.1136    0.0798    0.0000 N   0  0  0  0  0  0  0  0  0
  1  2  1  0  0  0  0
  2  3  4  0  0  0  0
  2  7  4  0  0  0  0
  3  4  4  0  0  0  0
  4  5  4  0  0  0  0
  5  6  4  0  0  0  0
  5  8  1  0  0  0  0
  6  7  4  0  0  0  0
  8  9  1  0  0  0  0
  9 10  1  0  0  0  0
 10 11  1  0  0  0  0
 10 20  2  0  0  0  0
 11 12  1  0  0  0  0
 12 13  1  0  0  0  0
 13 14  1  0  0  0  0
 14 15  1  0  0  0  0
 15 16  4  0  0  0  0
 15 19  4  0  0  0  0
 16 17  4  0  0  0  0
 17 18  4  0  0  0  0
 18 19  4  0  0  0  0
M  STY  1   1 DAT
M  SAL   1  1  16
M  SDT   1 MRV_IMPLICIT_H                                        
M  SDD   1     0.0000    0.0000    DR    ALL  0       0  
M  SED   1 IMPL_H1
M  END
>  <Name_Molregno>
610113

>  <HISTAMINE H3>
8.95

>  <HISTAMINE H4>
8.15

$$$$
611818
  Marvin  02231216192D 0   1.00000     0.00000     0

 16 16  0  0  1  0  0  0  0  0999 V2000
    0.9933   -0.3397    0.0000 O   0  0  0  0  0  0  0  0  0
    0.2788    0.0728    0.0000 C   0  0  0  0  0  0  0  0  0
   -0.4357   -0.3397    0.0000 C   0  0  0  0  0  0  0  0  0
   -1.1501    0.0728    0.0000 C   0  0  0  0  0  0  0  0  0
   -1.8646   -0.3397    0.0000 C   0  0  0  0  0  0  0  0  0
   -1.9508   -1.1602    0.0000 N   0  0  0  0  0  0  0  0  0
   -2.7578   -1.3317    0.0000 C   0  0  0  0  0  0  0  0  0
   -3.1703   -0.6172    0.0000 N   0  0  0  0  0  0  0  0  0
   -2.6183   -0.0042    0.0000 C   0  0  0  0  0  0  0  0  0
    1.7078    0.0728    0.0000 C   0  0  0  0  0  0  0  0  0
    1.7078    0.8978    0.0000 O   0  0  0  0  0  0  0  0  0
    2.4222   -0.3397    0.0000 N   0  0  0  0  0  0  0  0  0
    3.1367    0.0728    0.0000 C   0  0  0  0  0  0  0  0  0
    3.8512   -0.3397    0.0000 C   0  0  0  0  0  0  0  0  0
    4.5656    0.0728    0.0000 C   0  0  0  0  0  0  0  0  0
    3.1367    0.8978    0.0000 C   0  0  0  0  0  0  0  0  0
  1  2  1  0  0  0  0
  1 10  1  0  0  0  0
  2  3  1  0  0  0  0
  3  4  1  0  0  0  0
  4  5  1  0  0  0  0
  5  6  4  0  0  0  0
  5  9  4  0  0  0  0
  6  7  4  0  0  0  0
  7  8  4  0  0  0  0
  8  9  4  0  0  0  0
 10 11  2  0  0  0  0
 10 12  1  0  0  0  0
 12 13  1  0  0  0  0
 13 14  1  0  0  0  0
 13 16  1  0  0  0  0
 14 15  1  0  0  0  0
M  STY  1   1 DAT
M  SAL   1  1   8
M  SDT   1 MRV_IMPLICIT_H                                        
M  SDD   1     0.0000    0.0000    DR    ALL  0       0  
M  SED   1 IMPL_H1
M  END
>  <Name_Molregno>
611818

>  <HISTAMINE H3>
7.58

>  <HISTAMINE H4>
6.54

$$$$
611823
  Marvin  02231216192D 0   1.00000     0.00000     0

 17 17  0  0  1  0  0  0  0  0999 V2000
    0.3529    0.0011    0.0000 O   0  0  0  0  0  0  0  0  0
   -0.3616   -0.4114    0.0000 C   0  0  0  0  0  0  0  0  0
   -1.0761    0.0011    0.0000 C   0  0  0  0  0  0  0  0  0
   -1.7906   -0.4114    0.0000 C   0  0  0  0  0  0  0  0  0
   -2.5050    0.0011    0.0000 C   0  0  0  0  0  0  0  0  0
   -3.2587   -0.3344    0.0000 N   0  0  0  0  0  0  0  0  0
   -3.8107    0.2787    0.0000 C   0  0  0  0  0  0  0  0  0
   -3.3982    0.9931    0.0000 N   0  0  0  0  0  0  0  0  0
   -2.5913    0.8216    0.0000 C   0  0  0  0  0  0  0  0  0
    1.0673   -0.4114    0.0000 C   0  0  0  0  0  0  0  0  0
    1.0673   -1.2364    0.0000 O   0  0  0  0  0  0  0  0  0
    1.7818    0.0011    0.0000 N   0  0  0  0  0  0  0  0  0
    2.4963   -0.4114    0.0000 C   0  0  0  0  0  0  0  0  0
    3.2107    0.0011    0.0000 C   0  0  0  0  0  0  0  0  0
    3.9252   -0.4114    0.0000 C   0  0  0  0  0  0  0  0  0
    4.6397    0.0011    0.0000 C   0  0  0  0  0  0  0  0  0
    3.2107    0.8261    0.0000 C   0  0  0  0  0  0  0  0  0
  1  2  1  0  0  0  0
  1 10  1  0  0  0  0
  2  3  1  0  0  0  0
  3  4  1  0  0  0  0
  4  5  1  0  0  0  0
  5  6  4  0  0  0  0
  5  9  4  0  0  0  0
  6  7  4  0  0  0  0
  7  8  4  0  0  0  0
  8  9  4  0  0  0  0
 10 11  2  0  0  0  0
 10 12  1  0  0  0  0
 12 13  1  0  0  0  0
 13 14  1  0  0  0  0
 14 15  1  0  0  0  0
 14 17  1  0  0  0  0
 15 16  1  0  0  0  0
M  STY  1   1 DAT
M  SAL   1  1   8
M  SDT   1 MRV_IMPLICIT_H                                        
M  SDD   1     0.0000    0.0000    DR    ALL  0       0  
M  SED   1 IMPL_H1
M  END
>  <Name_Molregno>
611823

>  <HISTAMINE H3>
8.33

>  <HISTAMINE H4>
6.93

$$$$
611887
  Marvin  02231216192D 0   1.00000     0.00000     0

 18 18  0  0  1  0  0  0  0  0999 V2000
   -0.1376   -0.3501    0.0000 O   0  0  0  0  0  0  0  0  0
   -0.8520    0.0624    0.0000 C   0  0  0  0  0  0  0  0  0
   -1.5665   -0.3501    0.0000 C   0  0  0  0  0  0  0  0  0
   -2.2810    0.0624    0.0000 C   0  0  0  0  0  0  0  0  0
   -2.9955   -0.3501    0.0000 C   0  0  0  0  0  0  0  0  0
   -3.0817   -1.1706    0.0000 N   0  0  0  0  0  0  0  0  0
   -3.8887   -1.3422    0.0000 C   0  0  0  0  0  0  0  0  0
   -4.3012   -0.6277    0.0000 N   0  0  0  0  0  0  0  0  0
   -3.7491   -0.0146    0.0000 C   0  0  0  0  0  0  0  0  0
    0.5769    0.0624    0.0000 C   0  0  0  0  0  0  0  0  0
    0.5769    0.8874    0.0000 O   0  0  0  0  0  0  0  0  0
    1.2914   -0.3501    0.0000 N   0  0  0  0  0  0  0  0  0
    2.0058    0.0624    0.0000 C   0  0  0  0  0  0  0  0  0
    2.7203   -0.3501    0.0000 C   0  0  0  0  0  0  0  0  0
    3.4348    0.0624    0.0000 C   0  0  0  0  0  0  0  0  0
    4.1492   -0.3501    0.0000 C   0  0  0  0  0  0  0  0  0
    4.8637    0.0624    0.0000 C   0  0  0  0  0  0  0  0  0
    2.0058    0.8874    0.0000 C   0  0  0  0  0  0  0  0  0
  1  2  1  0  0  0  0
  1 10  1  0  0  0  0
  2  3  1  0  0  0  0
  3  4  1  0  0  0  0
  4  5  1  0  0  0  0
  5  6  4  0  0  0  0
  5  9  4  0  0  0  0
  6  7  4  0  0  0  0
  7  8  4  0  0  0  0
  8  9  4  0  0  0  0
 10 11  2  0  0  0  0
 10 12  1  0  0  0  0
 12 13  1  0  0  0  0
 13 14  1  0  0  0  0
 13 18  1  0  0  0  0
 14 15  1  0  0  0  0
 15 16  1  0  0  0  0
 16 17  1  0  0  0  0
M  STY  1   1 DAT
M  SAL   1  1   8
M  SDT   1 MRV_IMPLICIT_H                                        
M  SDD   1     0.0000    0.0000    DR    ALL  0       0  
M  SED   1 IMPL_H1
M  END
>  <Name_Molregno>
611887

>  <HISTAMINE H3>
7.55

>  <HISTAMINE H4>
6.26

$$$$
611890
  Marvin  02231216192D 0   1.00000     0.00000     0

 18 18  0  0  1  0  0  0  0  0999 V2000
   -0.2155   -0.1239    0.0000 O   0  0  0  0  0  0  0  0  0
   -0.9299    0.2886    0.0000 C   0  0  0  0  0  0  0  0  0
   -1.6444   -0.1239    0.0000 C   0  0  0  0  0  0  0  0  0
   -2.3589    0.2886    0.0000 C   0  0  0  0  0  0  0  0  0
   -3.0733   -0.1239    0.0000 C   0  0  0  0  0  0  0  0  0
   -3.1596   -0.9444    0.0000 N   0  0  0  0  0  0  0  0  0
   -3.9665   -1.1159    0.0000 C   0  0  0  0  0  0  0  0  0
   -4.3790   -0.4015    0.0000 N   0  0  0  0  0  0  0  0  0
   -3.8270    0.2116    0.0000 C   0  0  0  0  0  0  0  0  0
    0.4990    0.2886    0.0000 C   0  0  0  0  0  0  0  0  0
    0.4990    1.1136    0.0000 O   0  0  0  0  0  0  0  0  0
    1.2135   -0.1239    0.0000 N   0  0  0  0  0  0  0  0  0
    1.9280    0.2886    0.0000 C   0  0  0  0  0  0  0  0  0
    2.6424   -0.1239    0.0000 C   0  0  0  0  0  0  0  0  0
    3.3569    0.2886    0.0000 C   0  0  0  0  0  0  0  0  0
    4.0714   -0.1239    0.0000 C   0  0  0  0  0  0  0  0  0
    4.7858    0.2886    0.0000 C   0  0  0  0  0  0  0  0  0
    2.6424   -0.9489    0.0000 C   0  0  0  0  0  0  0  0  0
  1  2  1  0  0  0  0
  1 10  1  0  0  0  0
  2  3  1  0  0  0  0
  3  4  1  0  0  0  0
  4  5  1  0  0  0  0
  5  6  4  0  0  0  0
  5  9  4  0  0  0  0
  6  7  4  0  0  0  0
  7  8  4  0  0  0  0
  8  9  4  0  0  0  0
 10 11  2  0  0  0  0
 10 12  1  0  0  0  0
 12 13  1  0  0  0  0
 13 14  1  0  0  0  0
 14 15  1  0  0  0  0
 14 18  1  0  0  0  0
 15 16  1  0  0  0  0
 16 17  1  0  0  0  0
M  STY  1   1 DAT
M  SAL   1  1   8
M  SDT   1 MRV_IMPLICIT_H                                        
M  SDD   1     0.0000    0.0000    DR    ALL  0       0  
M  SED   1 IMPL_H1
M  END
>  <Name_Molregno>
611890

>  <HISTAMINE H3>
8.08

>  <HISTAMINE H4>
6.79

$$$$
611891
  Marvin  02231216192D 0   1.00000     0.00000     0

 18 18  0  0  1  0  0  0  0  0999 V2000
   -0.2922   -0.3516    0.0000 O   0  0  0  0  0  0  0  0  0
   -1.0066    0.0609    0.0000 C   0  0  0  0  0  0  0  0  0
   -1.7211   -0.3516    0.0000 C   0  0  0  0  0  0  0  0  0
   -2.4356    0.0609    0.0000 C   0  0  0  0  0  0  0  0  0
   -3.1501   -0.3516    0.0000 C   0  0  0  0  0  0  0  0  0
   -3.2363   -1.1721    0.0000 N   0  0  0  0  0  0  0  0  0
   -4.0433   -1.3436    0.0000 C   0  0  0  0  0  0  0  0  0
   -4.4558   -0.6291    0.0000 N   0  0  0  0  0  0  0  0  0
   -3.9037   -0.0160    0.0000 C   0  0  0  0  0  0  0  0  0
    0.4223    0.0609    0.0000 C   0  0  0  0  0  0  0  0  0
    0.4223    0.8859    0.0000 O   0  0  0  0  0  0  0  0  0
    1.1368   -0.3516    0.0000 N   0  0  0  0  0  0  0  0  0
    1.8512    0.0609    0.0000 C   0  0  0  0  0  0  0  0  0
    2.5657   -0.3516    0.0000 C   0  0  0  0  0  0  0  0  0
    3.2802    0.0609    0.0000 C   0  0  0  0  0  0  0  0  0
    3.9947   -0.3516    0.0000 C   0  0  0  0  0  0  0  0  0
    4.7091    0.0609    0.0000 C   0  0  0  0  0  0  0  0  0
    3.2802    0.8859    0.0000 C   0  0  0  0  0  0  0  0  0
  1  2  1  0  0  0  0
  1 10  1  0  0  0  0
  2  3  1  0  0  0  0
  3  4  1  0  0  0  0
  4  5  1  0  0  0  0
  5  6  4  0  0  0  0
  5  9  4  0  0  0  0
  6  7  4  0  0  0  0
  7  8  4  0  0  0  0
  8  9  4  0  0  0  0
 10 11  2  0  0  0  0
 10 12  1  0  0  0  0
 12 13  1  0  0  0  0
 13 14  1  0  0  0  0
 14 15  1  0  0  0  0
 15 16  1  0  0  0  0
 15 18  1  0  0  0  0
 16 17  1  0  0  0  0
M  STY  1   1 DAT
M  SAL   1  1   8
M  SDT   1 MRV_IMPLICIT_H                                        
M  SDD   1     0.0000    0.0000    DR    ALL  0       0  
M  SED   1 IMPL_H1
M  END
>  <Name_Molregno>
611891

>  <HISTAMINE H3>
7.89

>  <HISTAMINE H4>
6.91

$$$$
611894
  Marvin  02231216192D 0   1.00000     0.00000     0

 19 19  0  0  1  0  0  0  0  0999 V2000
   -0.7236    0.3319    0.0000 O   0  0  0  0  0  0  0  0  0
   -1.4380   -0.0806    0.0000 C   0  0  0  0  0  0  0  0  0
   -2.1525    0.3319    0.0000 C   0  0  0  0  0  0  0  0  0
   -2.8670   -0.0806    0.0000 C   0  0  0  0  0  0  0  0  0
   -3.5814    0.3319    0.0000 C   0  0  0  0  0  0  0  0  0
   -4.3351   -0.0036    0.0000 N   0  0  0  0  0  0  0  0  0
   -4.8871    0.6095    0.0000 C   0  0  0  0  0  0  0  0  0
   -4.4746    1.3239    0.0000 N   0  0  0  0  0  0  0  0  0
   -3.6677    1.1524    0.0000 C   0  0  0  0  0  0  0  0  0
   -0.0091   -0.0806    0.0000 C   0  0  0  0  0  0  0  0  0
   -0.0091   -0.9056    0.0000 O   0  0  0  0  0  0  0  0  0
    0.7054    0.3319    0.0000 N   0  0  0  0  0  0  0  0  0
    1.4199   -0.0806    0.0000 C   0  0  0  0  0  0  0  0  0
    2.1343    0.3319    0.0000 C   0  0  0  0  0  0  0  0  0
    2.8488   -0.0806    0.0000 C   0  0  0  0  0  0  0  0  0
    3.5633    0.3319    0.0000 C   0  0  0  0  0  0  0  0  0
    4.2777   -0.0806    0.0000 C   0  0  0  0  0  0  0  0  0
    4.9922    0.3319    0.0000 C   0  0  0  0  0  0  0  0  0
    1.4199   -0.9056    0.0000 C   0  0  0  0  0  0  0  0  0
  1  2  1  0  0  0  0
  1 10  1  0  0  0  0
  2  3  1  0  0  0  0
  3  4  1  0  0  0  0
  4  5  1  0  0  0  0
  5  6  4  0  0  0  0
  5  9  4  0  0  0  0
  6  7  4  0  0  0  0
  7  8  4  0  0  0  0
  8  9  4  0  0  0  0
 10 11  2  0  0  0  0
 10 12  1  0  0  0  0
 12 13  1  0  0  0  0
 13 14  1  0  0  0  0
 13 19  1  0  0  0  0
 14 15  1  0  0  0  0
 15 16  1  0  0  0  0
 16 17  1  0  0  0  0
 17 18  1  0  0  0  0
M  STY  1   1 DAT
M  SAL   1  1   8
M  SDT   1 MRV_IMPLICIT_H                                        
M  SDD   1     0.0000    0.0000    DR    ALL  0       0  
M  SED   1 IMPL_H1
M  END
>  <Name_Molregno>
611894

>  <HISTAMINE H3>
7.27

>  <HISTAMINE H4>
6.02

$$$$
611979
  Marvin  02231216192D 0   1.00000     0.00000     0

 20 20  0  0  1  0  0  0  0  0999 V2000
   -0.9370    0.1794    0.0000 O   0  0  0  0  0  0  0  0  0
   -1.6515   -0.2331    0.0000 C   0  0  0  0  0  0  0  0  0
   -2.3660    0.1794    0.0000 C   0  0  0  0  0  0  0  0  0
   -3.0805   -0.2331    0.0000 C   0  0  0  0  0  0  0  0  0
   -3.7949    0.1794    0.0000 C   0  0  0  0  0  0  0  0  0
   -4.5486   -0.1562    0.0000 N   0  0  0  0  0  0  0  0  0
   -5.1006    0.4569    0.0000 C   0  0  0  0  0  0  0  0  0
   -4.6881    1.1714    0.0000 N   0  0  0  0  0  0  0  0  0
   -3.8812    0.9998    0.0000 C   0  0  0  0  0  0  0  0  0
   -0.2226   -0.2331    0.0000 C   0  0  0  0  0  0  0  0  0
   -0.2226   -1.0581    0.0000 O   0  0  0  0  0  0  0  0  0
    0.4919    0.1794    0.0000 N   0  0  0  0  0  0  0  0  0
    1.2064   -0.2331    0.0000 C   0  0  0  0  0  0  0  0  0
    1.9208    0.1794    0.0000 C   0  0  0  0  0  0  0  0  0
    2.6353   -0.2331    0.0000 C   0  0  0  0  0  0  0  0  0
    3.3498    0.1794    0.0000 C   0  0  0  0  0  0  0  0  0
    4.0642   -0.2331    0.0000 C   0  0  0  0  0  0  0  0  0
    4.7787    0.1794    0.0000 C   0  0  0  0  0  0  0  0  0
    1.9208    1.0044    0.0000 C   0  0  0  0  0  0  0  0  0
    2.6353    1.4169    0.0000 C   0  0  0  0  0  0  0  0  0
  1  2  1  0  0  0  0
  1 10  1  0  0  0  0
  2  3  1  0  0  0  0
  3  4  1  0  0  0  0
  4  5  1  0  0  0  0
  5  6  4  0  0  0  0
  5  9  4  0  0  0  0
  6  7  4  0  0  0  0
  7  8  4  0  0  0  0
  8  9  4  0  0  0  0
 10 11  2  0  0  0  0
 10 12  1  0  0  0  0
 12 13  1  0  0  0  0
 13 14  1  0  0  0  0
 14 15  1  0  0  0  0
 14 19  1  0  0  0  0
 15 16  1  0  0  0  0
 16 17  1  0  0  0  0
 17 18  1  0  0  0  0
 19 20  1  0  0  0  0
M  STY  1   1 DAT
M  SAL   1  1   8
M  SDT   1 MRV_IMPLICIT_H                                        
M  SDD   1     0.0000    0.0000    DR    ALL  0       0  
M  SED   1 IMPL_H1
M  END
>  <Name_Molregno>
611979

>  <HISTAMINE H3>
7.43

>  <HISTAMINE H4>
6.11

$$$$
616119
  Marvin  02231216192D 0   1.00000     0.00000     0

 27 31  0  0  1  0  0  0  0  0999 V2000
   -1.8262   -1.0305    0.0000 N   0  0  0  0  0  0  0  0  0
   -1.1118   -1.4430    0.0000 C   0  0  0  0  0  0  0  0  0
   -1.1118   -2.2680    0.0000 N   0  0  0  0  0  0  0  0  0
   -1.7792   -2.7529    0.0000 C   0  0  0  0  0  0  0  0  0
   -1.5243   -3.5375    0.0000 C   0  0  0  0  0  0  0  0  0
   -0.6993   -3.5375    0.0000 C   0  0  0  0  0  0  0  0  0
   -0.2868   -4.2520    0.0000 N   0  0  0  0  0  0  0  0  0
   -0.6993   -4.9664    0.0000 C   0  0  0  0  0  0  0  0  0
   -1.5243   -4.9664    0.0000 C   0  0  0  0  0  0  0  0  0
   -1.9368   -4.2520    0.0000 C   0  0  0  0  0  0  0  0  0
   -0.4443   -2.7529    0.0000 C   0  0  0  0  0  0  0  0  0
   -0.3973   -1.0305    0.0000 C   0  0  0  0  0  0  0  0  0
   -0.3973   -0.2055    0.0000 C   0  0  0  0  0  0  0  0  0
   -1.1118    0.2070    0.0000 N   0  0  0  0  0  0  0  0  0
   -1.8262   -0.2055    0.0000 C   0  0  0  0  0  0  0  0  0
   -2.5407    0.2070    0.0000 N   0  0  0  0  0  0  0  0  0
    0.2477    0.3089    0.0000 C   0  0  0  0  0  0  0  0  0
    1.0520    0.1253    0.0000 C   0  0  0  0  0  0  0  0  0
    1.4100   -0.6180    0.0000 C   0  0  0  0  0  0  0  0  0
    1.0520   -1.3613    0.0000 C   0  0  0  0  0  0  0  0  0
    0.2477   -1.5448    0.0000 C   0  0  0  0  0  0  0  0  0
    0.0641    1.1132    0.0000 C   0  0  0  0  0  0  0  0  0
   -0.7242    1.3564    0.0000 C   0  0  0  0  0  0  0  0  0
   -0.9078    2.1607    0.0000 C   0  0  0  0  0  0  0  0  0
   -0.3030    2.7219    0.0000 C   0  0  0  0  0  0  0  0  0
    0.4853    2.4787    0.0000 C   0  0  0  0  0  0  0  0  0
    0.6689    1.6744    0.0000 C   0  0  0  0  0  0  0  0  0
  1  2  4  0  0  0  0
  1 15  4  0  0  0  0
  2  3  1  0  0  0  0
  2 12  4  0  0  0  0
  3  4  1  0  0  0  0
  3 11  1  0  0  0  0
  4  5  1  0  0  0  0
  5  6  1  0  0  0  0
  5 10  1  0  0  0  0
  6  7  1  0  0  0  0
  6 11  1  0  0  0  0
  7  8  1  0  0  0  0
  8  9  1  0  0  0  0
  9 10  1  0  0  0  0
 12 13  4  0  0  0  0
 12 21  1  0  0  0  0
 13 14  4  0  0  0  0
 13 17  1  0  0  0  0
 14 15  4  0  0  0  0
 15 16  1  0  0  0  0
 17 18  1  0  0  0  0
 17 22  1  0  0  0  0
 18 19  1  0  0  0  0
 19 20  1  0  0  0  0
 20 21  1  0  0  0  0
 22 23  4  0  0  0  0
 22 27  4  0  0  0  0
 23 24  4  0  0  0  0
 24 25  4  0  0  0  0
 25 26  4  0  0  0  0
 26 27  4  0  0  0  0
M  END
>  <Name_Molregno>
616119

>  <HISTAMINE H4>
8.15

$$$$
616183
  Marvin  02231216192D 0   1.00000     0.00000     0

 25 28  0  0  1  0  0  0  0  0999 V2000
   -2.7220    1.5492    0.0000 N   0  0  0  0  0  0  0  0  0
   -2.0075    1.9617    0.0000 C   0  0  0  0  0  0  0  0  0
   -2.0075    2.7867    0.0000 N   0  0  0  0  0  0  0  0  0
   -2.6750    3.2716    0.0000 C   0  0  0  0  0  0  0  0  0
   -2.4200    4.0562    0.0000 C   0  0  0  0  0  0  0  0  0
   -2.9049    4.7237    0.0000 N   0  0  0  0  0  0  0  0  0
   -2.5694    5.4774    0.0000 C   0  0  0  0  0  0  0  0  0
   -1.5950    4.0562    0.0000 C   0  0  0  0  0  0  0  0  0
   -1.3401    3.2716    0.0000 C   0  0  0  0  0  0  0  0  0
   -1.2930    1.5492    0.0000 C   0  0  0  0  0  0  0  0  0
   -0.6480    2.0636    0.0000 C   0  0  0  0  0  0  0  0  0
    0.1563    1.8800    0.0000 C   0  0  0  0  0  0  0  0  0
    0.5142    1.1367    0.0000 C   0  0  0  0  0  0  0  0  0
    0.1563    0.3934    0.0000 C   0  0  0  0  0  0  0  0  0
   -0.6480    0.2098    0.0000 C   0  0  0  0  0  0  0  0  0
   -1.2930    0.7242    0.0000 C   0  0  0  0  0  0  0  0  0
   -2.0075    0.3117    0.0000 N   0  0  0  0  0  0  0  0  0
   -2.7220    0.7242    0.0000 C   0  0  0  0  0  0  0  0  0
   -3.4365    0.3117    0.0000 N   0  0  0  0  0  0  0  0  0
    0.6707   -0.2516    0.0000 C   0  0  0  0  0  0  0  0  0
    1.4864   -0.1287    0.0000 C   0  0  0  0  0  0  0  0  0
    2.0008   -0.7737    0.0000 C   0  0  0  0  0  0  0  0  0
    1.6994   -1.5416    0.0000 C   0  0  0  0  0  0  0  0  0
    0.8836   -1.6646    0.0000 C   0  0  0  0  0  0  0  0  0
    0.3693   -1.0196    0.0000 C   0  0  0  0  0  0  0  0  0
  1  2  4  0  0  0  0
  1 18  4  0  0  0  0
  2  3  1  0  0  0  0
  2 10  4  0  0  0  0
  3  4  1  0  0  0  0
  3  9  1  0  0  0  0
  4  5  1  0  0  0  0
  5  6  1  0  0  0  0
  5  8  1  0  0  0  0
  6  7  1  0  0  0  0
  8  9  1  0  0  0  0
 10 11  1  0  0  0  0
 10 16  4  0  0  0  0
 11 12  1  0  0  0  0
 12 13  1  0  0  0  0
 13 14  1  0  0  0  0
 14 15  1  0  0  0  0
 14 20  1  0  0  0  0
 15 16  1  0  0  0  0
 16 17  4  0  0  0  0
 17 18  4  0  0  0  0
 18 19  1  0  0  0  0
 20 21  4  0  0  0  0
 20 25  4  0  0  0  0
 21 22  4  0  0  0  0
 22 23  4  0  0  0  0
 23 24  4  0  0  0  0
 24 25  4  0  0  0  0
M  END
>  <Name_Molregno>
616183

>  <HISTAMINE H3>
6.65

>  <HISTAMINE H4>
7.31

$$$$
616321
  Marvin  02231216192D 0   1.00000     0.00000     0

 22 25  0  0  1  0  0  0  0  0999 V2000
    0.3285    0.0385    0.0000 N   0  0  0  0  0  0  0  0  0
    0.1415    0.8421    0.0000 C   0  0  0  0  0  0  0  0  0
    0.7438    1.4058    0.0000 N   0  0  0  0  0  0  0  0  0
    0.6418    2.2245    0.0000 C   0  0  0  0  0  0  0  0  0
    1.3889    2.5745    0.0000 C   0  0  0  0  0  0  0  0  0
    1.5448    3.3846    0.0000 N   0  0  0  0  0  0  0  0  0
    2.3244    3.6546    0.0000 C   0  0  0  0  0  0  0  0  0
    1.9526    1.9721    0.0000 C   0  0  0  0  0  0  0  0  0
    1.5539    1.2499    0.0000 C   0  0  0  0  0  0  0  0  0
   -0.6479    1.0818    0.0000 C   0  0  0  0  0  0  0  0  0
   -1.2503    0.5181    0.0000 C   0  0  0  0  0  0  0  0  0
   -1.0632   -0.2854    0.0000 N   0  0  0  0  0  0  0  0  0
   -0.2738   -0.5252    0.0000 C   0  0  0  0  0  0  0  0  0
   -0.0868   -1.3287    0.0000 N   0  0  0  0  0  0  0  0  0
   -2.0396    0.7579    0.0000 C   0  0  0  0  0  0  0  0  0
   -1.9376   -0.0608    0.0000 C   0  0  0  0  0  0  0  0  0
   -2.6847   -0.4108    0.0000 C   0  0  0  0  0  0  0  0  0
   -3.2484    0.1915    0.0000 C   0  0  0  0  0  0  0  0  0
   -2.8498    0.9138    0.0000 C   0  0  0  0  0  0  0  0  0
   -2.2267    1.5614    0.0000 C   0  0  0  0  0  0  0  0  0
   -1.6243    2.1251    0.0000 C   0  0  0  0  0  0  0  0  0
   -0.8350    1.8854    0.0000 C   0  0  0  0  0  0  0  0  0
  1  2  4  0  0  0  0
  1 13  4  0  0  0  0
  2  3  1  0  0  0  0
  2 10  4  0  0  0  0
  3  4  1  0  0  0  0
  3  9  1  0  0  0  0
  4  5  1  0  0  0  0
  5  6  1  0  0  0  0
  5  8  1  0  0  0  0
  6  7  1  0  0  0  0
  8  9  1  0  0  0  0
 10 11  4  0  0  0  0
 10 22  1  0  0  0  0
 11 12  4  0  0  0  0
 11 15  1  0  0  0  0
 12 13  4  0  0  0  0
 13 14  1  0  0  0  0
 15 16  1  0  0  0  0
 15 19  1  0  0  0  0
 15 20  1  0  0  0  0
 16 17  1  0  0  0  0
 17 18  1  0  0  0  0
 18 19  1  0  0  0  0
 20 21  1  0  0  0  0
 21 22  1  0  0  0  0
M  END
>  <Name_Molregno>
616321

>  <HISTAMINE H3>
6.98

>  <HISTAMINE H4>
8.7

$$$$
616382
  Marvin  02231216192D 0   1.00000     0.00000     0

 21 24  0  0  0  0  0  0  0  0999 V2000
    0.2341    0.1669    0.0000 N   0  0  0  0  0  0  0  0  0
    0.0471    0.9704    0.0000 C   0  0  0  0  0  0  0  0  0
    0.6494    1.5341    0.0000 N   0  0  0  0  0  0  0  0  0
    0.6767    2.3587    0.0000 C   0  0  0  0  0  0  0  0  0
    1.5013    2.3314    0.0000 C   0  0  0  0  0  0  0  0  0
    2.1036    2.8951    0.0000 N   0  0  0  0  0  0  0  0  0
    2.8930    2.6553    0.0000 C   0  0  0  0  0  0  0  0  0
    1.4740    1.5068    0.0000 C   0  0  0  0  0  0  0  0  0
   -0.7423    1.2101    0.0000 C   0  0  0  0  0  0  0  0  0
   -1.3447    0.6464    0.0000 C   0  0  0  0  0  0  0  0  0
   -1.1576   -0.1571    0.0000 N   0  0  0  0  0  0  0  0  0
   -0.3682   -0.3969    0.0000 C   0  0  0  0  0  0  0  0  0
   -0.1812   -1.2004    0.0000 N   0  0  0  0  0  0  0  0  0
   -2.1340    0.8862    0.0000 C   0  0  0  0  0  0  0  0  0
   -2.0320    0.0675    0.0000 C   0  0  0  0  0  0  0  0  0
   -2.7791   -0.2825    0.0000 C   0  0  0  0  0  0  0  0  0
   -3.3428    0.3198    0.0000 C   0  0  0  0  0  0  0  0  0
   -2.9442    1.0421    0.0000 C   0  0  0  0  0  0  0  0  0
   -2.3211    1.6897    0.0000 C   0  0  0  0  0  0  0  0  0
   -1.7187    2.2534    0.0000 C   0  0  0  0  0  0  0  0  0
   -0.9294    2.0137    0.0000 C   0  0  0  0  0  0  0  0  0
  1  2  4  0  0  0  0
  1 12  4  0  0  0  0
  2  3  1  0  0  0  0
  2  9  4  0  0  0  0
  3  4  1  0  0  0  0
  3  8  1  0  0  0  0
  4  5  1  0  0  0  0
  5  6  1  0  0  0  0
  5  8  1  0  0  0  0
  6  7  1  0  0  0  0
  9 10  4  0  0  0  0
  9 21  1  0  0  0  0
 10 11  4  0  0  0  0
 10 14  1  0  0  0  0
 11 12  4  0  0  0  0
 12 13  1  0  0  0  0
 14 15  1  0  0  0  0
 14 18  1  0  0  0  0
 14 19  1  0  0  0  0
 15 16  1  0  0  0  0
 16 17  1  0  0  0  0
 17 18  1  0  0  0  0
 19 20  1  0  0  0  0
 20 21  1  0  0  0  0
M  END
>  <Name_Molregno>
616382

>  <HISTAMINE H3>
7.2

>  <HISTAMINE H4>
8.82

$$$$
617531
  Marvin  02231216192D 0   1.00000     0.00000     0

 24 25  0  0  0  0  0  0  0  0999 V2000
   -0.4782   -0.4611    0.0000 S   0  0  0  0  0  0  0  0  0
    0.2363   -0.0486    0.0000 C   0  0  0  0  0  0  0  0  0
    0.9508   -0.4611    0.0000 C   0  0  0  0  0  0  0  0  0
    1.6652   -0.0486    0.0000 N   0  0  0  0  0  0  0  0  0
    2.3797   -0.4611    0.0000 C   0  0  0  0  0  0  0  0  0
    2.3797   -1.2861    0.0000 N   0  0  0  0  0  0  0  0  0
    1.6652   -1.6986    0.0000 C   0  0  0  0  0  0  0  0  0
    0.9508   -2.1111    0.0000 N   0  0  0  0  0  0  0  0  0
    3.0942   -0.0486    0.0000 N   0  0  0  0  0  0  0  0  0
    3.8087   -0.4611    0.0000 C   0  0  0  0  0  0  0  0  0
    4.5231   -0.0486    0.0000 C   0  0  0  0  0  0  0  0  0
    5.2376   -0.4611    0.0000 C   0  0  0  0  0  0  0  0  0
    5.9521   -0.0486    0.0000 C   0  0  0  0  0  0  0  0  0
    6.6665   -0.4611    0.0000 C   0  0  0  0  0  0  0  0  0
    7.4202   -0.1256    0.0000 N   0  0  0  0  0  0  0  0  0
    7.9722   -0.7387    0.0000 C   0  0  0  0  0  0  0  0  0
    7.5597   -1.4531    0.0000 N   0  0  0  0  0  0  0  0  0
    6.7528   -1.2816    0.0000 C   0  0  0  0  0  0  0  0  0
   -1.1926   -0.0486    0.0000 C   0  0  0  0  0  0  0  0  0
   -1.9071   -0.4611    0.0000 C   0  0  0  0  0  0  0  0  0
   -2.6216   -0.0486    0.0000 C   0  0  0  0  0  0  0  0  0
   -2.6216    0.7764    0.0000 C   0  0  0  0  0  0  0  0  0
   -1.9071    1.1889    0.0000 C   0  0  0  0  0  0  0  0  0
   -1.1926    0.7764    0.0000 C   0  0  0  0  0  0  0  0  0
  1  2  1  0  0  0  0
  1 19  1  0  0  0  0
  2  3  1  0  0  0  0
  3  4  1  0  0  0  0
  4  5  1  0  0  0  0
  5  6  2  0  0  0  0
  5  9  1  0  0  0  0
  6  7  1  0  0  0  0
  7  8  3  0  0  0  0
  9 10  1  0  0  0  0
 10 11  1  0  0  0  0
 11 12  1  0  0  0  0
 12 13  1  0  0  0  0
 13 14  1  0  0  0  0
 14 15  4  0  0  0  0
 14 18  4  0  0  0  0
 15 16  4  0  0  0  0
 16 17  4  0  0  0  0
 17 18  4  0  0  0  0
 19 20  4  0  0  0  0
 19 24  4  0  0  0  0
 20 21  4  0  0  0  0
 21 22  4  0  0  0  0
 22 23  4  0  0  0  0
 23 24  4  0  0  0  0
M  STY  1   1 DAT
M  SAL   1  1  17
M  SDT   1 MRV_IMPLICIT_H                                        
M  SDD   1     0.0000    0.0000    DR    ALL  0       0  
M  SED   1 IMPL_H1
M  END
>  <Name_Molregno>
617531

>  <HISTAMINE H1>
4.59

>  <HISTAMINE H2>
5.39

>  <HISTAMINE H3>
6.28

>  <HISTAMINE H4>
7.24

$$$$
621537
  Marvin  02231216192D 0   1.00000     0.00000     0

 21 24  0  0  0  0  0  0  0  0999 V2000
    0.4921    1.3199    0.0000 Cl  0  0  0  0  0  0  0  0  0
    1.0441    0.7068    0.0000 C   0  0  0  0  0  0  0  0  0
    1.8511    0.8784    0.0000 C   0  0  0  0  0  0  0  0  0
    2.4031    0.2653    0.0000 C   0  0  0  0  0  0  0  0  0
    3.2281    0.2653    0.0000 C   0  0  0  0  0  0  0  0  0
    3.7802    0.8784    0.0000 N   0  0  0  0  0  0  0  0  0
    4.5871    0.7068    0.0000 C   0  0  0  0  0  0  0  0  0
    4.8421   -0.0778    0.0000 N   0  0  0  0  0  0  0  0  0
    4.2900   -0.6909    0.0000 C   0  0  0  0  0  0  0  0  0
    4.5450   -1.4755    0.0000 N   0  0  0  0  0  0  0  0  0
    5.3519   -1.6470    0.0000 C   0  0  0  0  0  0  0  0  0
    5.6069   -2.4316    0.0000 C   0  0  0  0  0  0  0  0  0
    5.0549   -3.0447    0.0000 N   0  0  0  0  0  0  0  0  0
    4.2479   -2.8732    0.0000 C   0  0  0  0  0  0  0  0  0
    3.9929   -2.0886    0.0000 C   0  0  0  0  0  0  0  0  0
    5.3098   -3.8294    0.0000 C   0  0  0  0  0  0  0  0  0
    3.4831   -0.5193    0.0000 C   0  0  0  0  0  0  0  0  0
    2.8156   -1.0043    0.0000 O   0  0  0  0  0  0  0  0  0
    2.1482   -0.5193    0.0000 C   0  0  0  0  0  0  0  0  0
    1.3412   -0.6909    0.0000 C   0  0  0  0  0  0  0  0  0
    0.7892   -0.0778    0.0000 C   0  0  0  0  0  0  0  0  0
  1  2  1  0  0  0  0
  2  3  4  0  0  0  0
  2 21  4  0  0  0  0
  3  4  4  0  0  0  0
  4  5  4  0  0  0  0
  4 19  4  0  0  0  0
  5  6  4  0  0  0  0
  5 17  4  0  0  0  0
  6  7  4  0  0  0  0
  7  8  4  0  0  0  0
  8  9  4  0  0  0  0
  9 10  1  0  0  0  0
  9 17  4  0  0  0  0
 10 11  1  0  0  0  0
 10 15  1  0  0  0  0
 11 12  1  0  0  0  0
 12 13  1  0  0  0  0
 13 14  1  0  0  0  0
 13 16  1  0  0  0  0
 14 15  1  0  0  0  0
 17 18  4  0  0  0  0
 18 19  4  0  0  0  0
 19 20  4  0  0  0  0
 20 21  4  0  0  0  0
M  END
>  <Name_Molregno>
621537

>  <HISTAMINE H4>
7.72

$$$$
627260
  Marvin  02231216192D 0   1.00000     0.00000     0

 18 19  0  0  0  0  0  0  0  0999 V2000
   -1.5728   -0.4149    0.0000 S   0  0  0  0  0  0  0  0  0
   -1.5728   -1.2399    0.0000 C   0  0  0  0  0  0  0  0  0
   -2.2872   -1.6524    0.0000 C   0  0  0  0  0  0  0  0  0
   -2.2872   -2.4774    0.0000 C   0  0  0  0  0  0  0  0  0
   -1.6198   -2.9624    0.0000 N   0  0  0  0  0  0  0  0  0
   -1.8747   -3.7470    0.0000 C   0  0  0  0  0  0  0  0  0
   -2.6997   -3.7470    0.0000 N   0  0  0  0  0  0  0  0  0
   -2.9547   -2.9624    0.0000 C   0  0  0  0  0  0  0  0  0
   -0.8583   -0.0024    0.0000 C   0  0  0  0  0  0  0  0  0
   -0.8583    0.8226    0.0000 C   0  0  0  0  0  0  0  0  0
   -0.1438    1.2351    0.0000 C   0  0  0  0  0  0  0  0  0
    0.5707    0.8226    0.0000 C   0  0  0  0  0  0  0  0  0
    0.5707   -0.0024    0.0000 C   0  0  0  0  0  0  0  0  0
   -0.1438   -0.4149    0.0000 C   0  0  0  0  0  0  0  0  0
    1.2851    1.2351    0.0000 C   0  0  0  0  0  0  0  0  0
    1.9996    1.6476    0.0000 C   0  0  0  0  0  0  0  0  0
    1.6976    0.5206    0.0000 C   0  0  0  0  0  0  0  0  0
    0.8726    1.9495    0.0000 C   0  0  0  0  0  0  0  0  0
  1  2  1  0  0  0  0
  1  9  1  0  0  0  0
  2  3  1  0  0  0  0
  3  4  1  0  0  0  0
  4  5  4  0  0  0  0
  4  8  4  0  0  0  0
  5  6  4  0  0  0  0
  6  7  4  0  0  0  0
  7  8  4  0  0  0  0
  9 10  4  0  0  0  0
  9 14  4  0  0  0  0
 10 11  4  0  0  0  0
 11 12  4  0  0  0  0
 12 13  4  0  0  0  0
 12 15  1  0  0  0  0
 13 14  4  0  0  0  0
 15 16  1  0  0  0  0
 15 17  1  0  0  0  0
 15 18  1  0  0  0  0
M  STY  1   1 DAT
M  SAL   1  1   7
M  SDT   1 MRV_IMPLICIT_H                                        
M  SDD   1     0.0000    0.0000    DR    ALL  0       0  
M  SED   1 IMPL_H1
M  END
>  <Name_Molregno>
627260

>  <HISTAMINE H1>
6

>  <HISTAMINE H2>
6

>  <HISTAMINE H3>
9.57

>  <HISTAMINE H4>
8.96

$$$$
631480
  Marvin  02231216192D 0   1.00000     0.00000     0

 29 33  0  0  1  0  0  0  0  0999 V2000
   -0.1353   -0.9070    0.0000 F   0  0  0  0  0  0  0  0  0
    0.5792   -0.4945    0.0000 C   0  0  0  0  0  0  0  0  0
    0.5792    0.3305    0.0000 C   0  0  0  0  0  0  0  0  0
    1.2936    0.7430    0.0000 C   0  0  0  0  0  0  0  0  0
    2.0081    0.3305    0.0000 C   0  0  0  0  0  0  0  0  0
    2.7927    0.5854    0.0000 N   0  0  0  0  0  0  0  0  0
    3.2776   -0.0820    0.0000 C   0  0  0  0  0  0  0  0  0
    2.7927   -0.7495    0.0000 N   0  0  0  0  0  0  0  0  0
    2.0081   -0.4945    0.0000 C   0  0  0  0  0  0  0  0  0
    1.2936   -0.9070    0.0000 C   0  0  0  0  0  0  0  0  0
    1.2936   -1.7320    0.0000 C   0  0  0  0  0  0  0  0  0
    4.1026   -0.0820    0.0000 C   0  0  0  0  0  0  0  0  0
    4.5151    0.6324    0.0000 C   0  0  0  0  0  0  0  0  0
    5.3401    0.6324    0.0000 C   0  0  0  0  0  0  0  0  0
    5.7526   -0.0820    0.0000 C   0  0  0  0  0  0  0  0  0
    6.5776   -0.0820    0.0000 O   0  0  0  0  0  0  0  0  0
    6.9901    0.6324    0.0000 C   0  0  0  0  0  0  0  0  0
    7.8151    0.6324    0.0000 C   0  0  0  0  0  0  0  0  0
    8.2276    1.3469    0.0000 C   0  0  0  0  0  0  0  0  0
    9.0526    1.3469    0.0000 N   0  0  0  0  0  0  0  0  0
    9.7671    0.9344    0.0000 C   0  0  0  0  0  0  0  0  0
    9.7671    1.7594    0.0000 C   0  0  0  0  0  0  0  0  0
   10.5517    2.0143    0.0000 C   0  0  0  0  0  0  0  0  0
   11.0367    1.3469    0.0000 N   0  0  0  0  0  0  0  0  0
   10.5517    0.6795    0.0000 C   0  0  0  0  0  0  0  0  0
   11.8617    1.3469    0.0000 C   0  0  0  0  0  0  0  0  0
    5.3401   -0.7965    0.0000 C   0  0  0  0  0  0  0  0  0
    4.5151   -0.7965    0.0000 C   0  0  0  0  0  0  0  0  0
    4.1026   -1.5110    0.0000 C   0  0  0  0  0  0  0  0  0
  1  2  1  0  0  0  0
  2  3  4  0  0  0  0
  2 10  4  0  0  0  0
  3  4  4  0  0  0  0
  4  5  4  0  0  0  0
  5  6  4  0  0  0  0
  5  9  4  0  0  0  0
  6  7  4  0  0  0  0
  7  8  4  0  0  0  0
  7 12  1  0  0  0  0
  8  9  4  0  0  0  0
  9 10  4  0  0  0  0
 10 11  1  0  0  0  0
 12 13  4  0  0  0  0
 12 28  4  0  0  0  0
 13 14  4  0  0  0  0
 14 15  4  0  0  0  0
 15 16  1  0  0  0  0
 15 27  4  0  0  0  0
 16 17  1  0  0  0  0
 17 18  1  0  0  0  0
 18 19  1  0  0  0  0
 19 20  1  0  0  0  0
 20 21  1  0  0  0  0
 20 22  1  0  0  0  0
 21 22  1  0  0  0  0
 21 25  1  0  0  0  0
 22 23  1  0  0  0  0
 23 24  1  0  0  0  0
 24 25  1  0  0  0  0
 24 26  1  0  0  0  0
 27 28  4  0  0  0  0
 28 29  1  0  0  0  0
M  STY  1   1 DAT
M  SAL   1  1   6
M  SDT   1 MRV_IMPLICIT_H                                        
M  SDD   1     0.0000    0.0000    DR    ALL  0       0  
M  SED   1 IMPL_H1
M  END
>  <Name_Molregno>
631480

>  <HISTAMINE H4>
7.11

$$$$
631481
  Marvin  02231216192D 0   1.00000     0.00000     0

 30 33  0  0  0  0  0  0  0  0999 V2000
   -0.0549    1.5769    0.0000 F   0  0  0  0  0  0  0  0  0
    0.7701    1.5769    0.0000 C   0  0  0  0  0  0  0  0  0
    1.1826    2.2914    0.0000 C   0  0  0  0  0  0  0  0  0
    2.0076    2.2914    0.0000 C   0  0  0  0  0  0  0  0  0
    2.4201    1.5769    0.0000 C   0  0  0  0  0  0  0  0  0
    3.2271    1.4054    0.0000 N   0  0  0  0  0  0  0  0  0
    3.3133    0.5849    0.0000 C   0  0  0  0  0  0  0  0  0
    2.5596    0.2494    0.0000 N   0  0  0  0  0  0  0  0  0
    2.0076    0.8625    0.0000 C   0  0  0  0  0  0  0  0  0
    1.1826    0.8625    0.0000 C   0  0  0  0  0  0  0  0  0
    0.7701    0.1480    0.0000 C   0  0  0  0  0  0  0  0  0
    4.0278    0.1724    0.0000 C   0  0  0  0  0  0  0  0  0
    4.7423    0.5849    0.0000 C   0  0  0  0  0  0  0  0  0
    5.4567    0.1724    0.0000 C   0  0  0  0  0  0  0  0  0
    5.4567   -0.6526    0.0000 C   0  0  0  0  0  0  0  0  0
    6.1712   -1.0651    0.0000 O   0  0  0  0  0  0  0  0  0
    6.8857   -0.6526    0.0000 C   0  0  0  0  0  0  0  0  0
    7.6001   -1.0651    0.0000 C   0  0  0  0  0  0  0  0  0
    8.3146   -0.6526    0.0000 C   0  0  0  0  0  0  0  0  0
    9.0291   -1.0651    0.0000 N   0  0  0  0  0  0  0  0  0
    9.7436   -0.6526    0.0000 C   0  0  0  0  0  0  0  0  0
   10.4580   -1.0651    0.0000 C   0  0  0  0  0  0  0  0  0
   11.1725   -0.6526    0.0000 N   0  0  0  0  0  0  0  0  0
   11.8870   -1.0651    0.0000 C   0  0  0  0  0  0  0  0  0
   11.8870   -1.8901    0.0000 C   0  0  0  0  0  0  0  0  0
   11.1725   -2.3026    0.0000 C   0  0  0  0  0  0  0  0  0
   10.4580   -1.8901    0.0000 C   0  0  0  0  0  0  0  0  0
    4.7423   -1.0651    0.0000 C   0  0  0  0  0  0  0  0  0
    4.0278   -0.6526    0.0000 C   0  0  0  0  0  0  0  0  0
    3.3133   -1.0651    0.0000 C   0  0  0  0  0  0  0  0  0
  1  2  1  0  0  0  0
  2  3  4  0  0  0  0
  2 10  4  0  0  0  0
  3  4  4  0  0  0  0
  4  5  4  0  0  0  0
  5  6  4  0  0  0  0
  5  9  4  0  0  0  0
  6  7  4  0  0  0  0
  7  8  4  0  0  0  0
  7 12  1  0  0  0  0
  8  9  4  0  0  0  0
  9 10  4  0  0  0  0
 10 11  1  0  0  0  0
 12 13  4  0  0  0  0
 12 29  4  0  0  0  0
 13 14  4  0  0  0  0
 14 15  4  0  0  0  0
 15 16  1  0  0  0  0
 15 28  4  0  0  0  0
 16 17  1  0  0  0  0
 17 18  1  0  0  0  0
 18 19  1  0  0  0  0
 19 20  1  0  0  0  0
 20 21  1  0  0  0  0
 21 22  1  0  0  0  0
 22 23  4  0  0  0  0
 22 27  4  0  0  0  0
 23 24  4  0  0  0  0
 24 25  4  0  0  0  0
 25 26  4  0  0  0  0
 26 27  4  0  0  0  0
 28 29  4  0  0  0  0
 29 30  1  0  0  0  0
M  STY  1   1 DAT
M  SAL   1  1   6
M  SDT   1 MRV_IMPLICIT_H                                        
M  SDD   1     0.0000    0.0000    DR    ALL  0       0  
M  SED   1 IMPL_H1
M  END
>  <Name_Molregno>
631481

>  <HISTAMINE H4>
5.91

$$$$
631482
  Marvin  02231216192D 0   1.00000     0.00000     0

 31 34  0  0  1  0  0  0  0  0999 V2000
   -0.0887    1.7353    0.0000 F   0  0  0  0  0  0  0  0  0
    0.7363    1.7353    0.0000 C   0  0  0  0  0  0  0  0  0
    1.1488    2.4497    0.0000 C   0  0  0  0  0  0  0  0  0
    1.9738    2.4497    0.0000 C   0  0  0  0  0  0  0  0  0
    2.3863    1.7353    0.0000 C   0  0  0  0  0  0  0  0  0
    3.1933    1.5637    0.0000 N   0  0  0  0  0  0  0  0  0
    3.2795    0.7433    0.0000 C   0  0  0  0  0  0  0  0  0
    2.5259    0.4077    0.0000 N   0  0  0  0  0  0  0  0  0
    1.9738    1.0208    0.0000 C   0  0  0  0  0  0  0  0  0
    1.1488    1.0208    0.0000 C   0  0  0  0  0  0  0  0  0
    0.7363    0.3063    0.0000 C   0  0  0  0  0  0  0  0  0
    3.9940    0.3308    0.0000 C   0  0  0  0  0  0  0  0  0
    4.7085    0.7433    0.0000 C   0  0  0  0  0  0  0  0  0
    5.4230    0.3308    0.0000 C   0  0  0  0  0  0  0  0  0
    5.4230   -0.4942    0.0000 C   0  0  0  0  0  0  0  0  0
    6.1374   -0.9067    0.0000 O   0  0  0  0  0  0  0  0  0
    6.8519   -0.4942    0.0000 C   0  0  0  0  0  0  0  0  0
    7.5664   -0.9067    0.0000 C   0  0  0  0  0  0  0  0  0
    8.2808   -0.4942    0.0000 C   0  0  0  0  0  0  0  0  0
    8.9953   -0.9067    0.0000 N   0  0  0  0  0  0  0  0  0
    9.7098   -0.4942    0.0000 C   0  0  0  0  0  0  0  0  0
   10.4243   -0.9067    0.0000 C   0  0  0  0  0  0  0  0  0
   11.1387   -0.4942    0.0000 N   0  0  0  0  0  0  0  0  0
   11.8532   -0.9067    0.0000 C   0  0  0  0  0  0  0  0  0
   11.8532   -1.7317    0.0000 C   0  0  0  0  0  0  0  0  0
   11.1387   -2.1442    0.0000 C   0  0  0  0  0  0  0  0  0
   10.4243   -1.7317    0.0000 C   0  0  0  0  0  0  0  0  0
   11.1387    0.3308    0.0000 C   0  0  0  0  0  0  0  0  0
    4.7085   -0.9067    0.0000 C   0  0  0  0  0  0  0  0  0
    3.9940   -0.4942    0.0000 C   0  0  0  0  0  0  0  0  0
    3.2795   -0.9067    0.0000 C   0  0  0  0  0  0  0  0  0
  1  2  1  0  0  0  0
  2  3  4  0  0  0  0
  2 10  4  0  0  0  0
  3  4  4  0  0  0  0
  4  5  4  0  0  0  0
  5  6  4  0  0  0  0
  5  9  4  0  0  0  0
  6  7  4  0  0  0  0
  7  8  4  0  0  0  0
  7 12  1  0  0  0  0
  8  9  4  0  0  0  0
  9 10  4  0  0  0  0
 10 11  1  0  0  0  0
 12 13  4  0  0  0  0
 12 30  4  0  0  0  0
 13 14  4  0  0  0  0
 14 15  4  0  0  0  0
 15 16  1  0  0  0  0
 15 29  4  0  0  0  0
 16 17  1  0  0  0  0
 17 18  1  0  0  0  0
 18 19  1  0  0  0  0
 19 20  1  0  0  0  0
 20 21  1  0  0  0  0
 21 22  1  0  0  0  0
 22 23  1  0  0  0  0
 22 27  1  0  0  0  0
 23 24  1  0  0  0  0
 23 28  1  0  0  0  0
 24 25  1  0  0  0  0
 25 26  1  0  0  0  0
 26 27  1  0  0  0  0
 29 30  4  0  0  0  0
 30 31  1  0  0  0  0
M  STY  1   1 DAT
M  SAL   1  1   6
M  SDT   1 MRV_IMPLICIT_H                                        
M  SDD   1     0.0000    0.0000    DR    ALL  0       0  
M  SED   1 IMPL_H1
M  END
>  <Name_Molregno>
631482

>  <HISTAMINE H4>
5.76

$$$$
631549
  Marvin  02231216192D 0   1.00000     0.00000     0

 31 34  0  0  1  0  0  0  0  0999 V2000
   -0.0368    1.7166    0.0000 F   0  0  0  0  0  0  0  0  0
    0.7882    1.7166    0.0000 C   0  0  0  0  0  0  0  0  0
    1.2007    2.4311    0.0000 C   0  0  0  0  0  0  0  0  0
    2.0257    2.4311    0.0000 C   0  0  0  0  0  0  0  0  0
    2.4382    1.7166    0.0000 C   0  0  0  0  0  0  0  0  0
    3.2452    1.5451    0.0000 N   0  0  0  0  0  0  0  0  0
    3.3314    0.7246    0.0000 C   0  0  0  0  0  0  0  0  0
    2.5777    0.3890    0.0000 N   0  0  0  0  0  0  0  0  0
    2.0257    1.0021    0.0000 C   0  0  0  0  0  0  0  0  0
    1.2007    1.0021    0.0000 C   0  0  0  0  0  0  0  0  0
    0.7882    0.2877    0.0000 C   0  0  0  0  0  0  0  0  0
    4.0459    0.3121    0.0000 C   0  0  0  0  0  0  0  0  0
    4.7603    0.7246    0.0000 C   0  0  0  0  0  0  0  0  0
    5.4748    0.3121    0.0000 C   0  0  0  0  0  0  0  0  0
    5.4748   -0.5129    0.0000 C   0  0  0  0  0  0  0  0  0
    6.1893   -0.9254    0.0000 O   0  0  0  0  0  0  0  0  0
    6.9038   -0.5129    0.0000 C   0  0  0  0  0  0  0  0  0
    7.6182   -0.9254    0.0000 C   0  0  0  0  0  0  0  0  0
    8.3327   -0.5129    0.0000 C   0  0  0  0  0  0  0  0  0
    9.0472   -0.9254    0.0000 N   0  0  0  0  0  0  0  0  0
    9.7616   -0.5129    0.0000 C   0  0  0  0  0  0  0  0  0
   10.4761   -0.9254    0.0000 C   0  0  0  0  0  0  0  0  0
   11.1906   -0.5129    0.0000 C   0  0  0  0  0  0  0  0  0
   11.9051   -0.9254    0.0000 C   0  0  0  0  0  0  0  0  0
   11.9051   -1.7504    0.0000 C   0  0  0  0  0  0  0  0  0
   11.1906   -2.1629    0.0000 N   0  0  0  0  0  0  0  0  0
   10.4761   -1.7504    0.0000 C   0  0  0  0  0  0  0  0  0
   11.1906   -2.9879    0.0000 C   0  0  0  0  0  0  0  0  0
    4.7603   -0.9254    0.0000 C   0  0  0  0  0  0  0  0  0
    4.0459   -0.5129    0.0000 C   0  0  0  0  0  0  0  0  0
    3.3314   -0.9254    0.0000 C   0  0  0  0  0  0  0  0  0
  1  2  1  0  0  0  0
  2  3  4  0  0  0  0
  2 10  4  0  0  0  0
  3  4  4  0  0  0  0
  4  5  4  0  0  0  0
  5  6  4  0  0  0  0
  5  9  4  0  0  0  0
  6  7  4  0  0  0  0
  7  8  4  0  0  0  0
  7 12  1  0  0  0  0
  8  9  4  0  0  0  0
  9 10  4  0  0  0  0
 10 11  1  0  0  0  0
 12 13  4  0  0  0  0
 12 30  4  0  0  0  0
 13 14  4  0  0  0  0
 14 15  4  0  0  0  0
 15 16  1  0  0  0  0
 15 29  4  0  0  0  0
 16 17  1  0  0  0  0
 17 18  1  0  0  0  0
 18 19  1  0  0  0  0
 19 20  1  0  0  0  0
 20 21  1  0  0  0  0
 21 22  1  0  0  0  0
 22 23  1  0  0  0  0
 22 27  1  0  0  0  0
 23 24  1  0  0  0  0
 24 25  1  0  0  0  0
 25 26  1  0  0  0  0
 26 27  1  0  0  0  0
 26 28  1  0  0  0  0
 29 30  4  0  0  0  0
 30 31  1  0  0  0  0
M  STY  1   1 DAT
M  SAL   1  1   6
M  SDT   1 MRV_IMPLICIT_H                                        
M  SDD   1     0.0000    0.0000    DR    ALL  0       0  
M  SED   1 IMPL_H1
M  END
>  <Name_Molregno>
631549

>  <HISTAMINE H4>
6.25

$$$$
631550
  Marvin  02231216192D 0   1.00000     0.00000     0

 30 33  0  0  0  0  0  0  0  0999 V2000
   -0.0549    1.5769    0.0000 F   0  0  0  0  0  0  0  0  0
    0.7701    1.5769    0.0000 C   0  0  0  0  0  0  0  0  0
    1.1826    2.2914    0.0000 C   0  0  0  0  0  0  0  0  0
    2.0076    2.2914    0.0000 C   0  0  0  0  0  0  0  0  0
    2.4201    1.5769    0.0000 C   0  0  0  0  0  0  0  0  0
    3.2271    1.4054    0.0000 N   0  0  0  0  0  0  0  0  0
    3.3133    0.5849    0.0000 C   0  0  0  0  0  0  0  0  0
    2.5596    0.2494    0.0000 N   0  0  0  0  0  0  0  0  0
    2.0076    0.8625    0.0000 C   0  0  0  0  0  0  0  0  0
    1.1826    0.8625    0.0000 C   0  0  0  0  0  0  0  0  0
    0.7701    0.1480    0.0000 C   0  0  0  0  0  0  0  0  0
    4.0278    0.1724    0.0000 C   0  0  0  0  0  0  0  0  0
    4.7423    0.5849    0.0000 C   0  0  0  0  0  0  0  0  0
    5.4567    0.1724    0.0000 C   0  0  0  0  0  0  0  0  0
    5.4567   -0.6526    0.0000 C   0  0  0  0  0  0  0  0  0
    6.1712   -1.0651    0.0000 O   0  0  0  0  0  0  0  0  0
    6.8857   -0.6526    0.0000 C   0  0  0  0  0  0  0  0  0
    7.6001   -1.0651    0.0000 C   0  0  0  0  0  0  0  0  0
    8.3146   -0.6526    0.0000 C   0  0  0  0  0  0  0  0  0
    9.0291   -1.0651    0.0000 N   0  0  0  0  0  0  0  0  0
    9.7436   -0.6526    0.0000 C   0  0  0  0  0  0  0  0  0
   10.4580   -1.0651    0.0000 C   0  0  0  0  0  0  0  0  0
   11.1725   -0.6526    0.0000 C   0  0  0  0  0  0  0  0  0
   11.8870   -1.0651    0.0000 C   0  0  0  0  0  0  0  0  0
   11.8870   -1.8901    0.0000 C   0  0  0  0  0  0  0  0  0
   11.1725   -2.3026    0.0000 N   0  0  0  0  0  0  0  0  0
   10.4580   -1.8901    0.0000 C   0  0  0  0  0  0  0  0  0
    4.7423   -1.0651    0.0000 C   0  0  0  0  0  0  0  0  0
    4.0278   -0.6526    0.0000 C   0  0  0  0  0  0  0  0  0
    3.3133   -1.0651    0.0000 C   0  0  0  0  0  0  0  0  0
  1  2  1  0  0  0  0
  2  3  4  0  0  0  0
  2 10  4  0  0  0  0
  3  4  4  0  0  0  0
  4  5  4  0  0  0  0
  5  6  4  0  0  0  0
  5  9  4  0  0  0  0
  6  7  4  0  0  0  0
  7  8  4  0  0  0  0
  7 12  1  0  0  0  0
  8  9  4  0  0  0  0
  9 10  4  0  0  0  0
 10 11  1  0  0  0  0
 12 13  4  0  0  0  0
 12 29  4  0  0  0  0
 13 14  4  0  0  0  0
 14 15  4  0  0  0  0
 15 16  1  0  0  0  0
 15 28  4  0  0  0  0
 16 17  1  0  0  0  0
 17 18  1  0  0  0  0
 18 19  1  0  0  0  0
 19 20  1  0  0  0  0
 20 21  1  0  0  0  0
 21 22  1  0  0  0  0
 22 23  4  0  0  0  0
 22 27  4  0  0  0  0
 23 24  4  0  0  0  0
 24 25  4  0  0  0  0
 25 26  4  0  0  0  0
 26 27  4  0  0  0  0
 28 29  4  0  0  0  0
 29 30  1  0  0  0  0
M  STY  1   1 DAT
M  SAL   1  1   6
M  SDT   1 MRV_IMPLICIT_H                                        
M  SDD   1     0.0000    0.0000    DR    ALL  0       0  
M  SED   1 IMPL_H1
M  END
>  <Name_Molregno>
631550

>  <HISTAMINE H4>
8.28

$$$$
631552
  Marvin  02231216192D 0   1.00000     0.00000     0

 30 33  0  0  0  0  0  0  0  0999 V2000
   -0.0549    1.5769    0.0000 F   0  0  0  0  0  0  0  0  0
    0.7701    1.5769    0.0000 C   0  0  0  0  0  0  0  0  0
    1.1826    2.2914    0.0000 C   0  0  0  0  0  0  0  0  0
    2.0076    2.2914    0.0000 C   0  0  0  0  0  0  0  0  0
    2.4201    1.5769    0.0000 C   0  0  0  0  0  0  0  0  0
    3.2271    1.4054    0.0000 N   0  0  0  0  0  0  0  0  0
    3.3133    0.5849    0.0000 C   0  0  0  0  0  0  0  0  0
    2.5596    0.2494    0.0000 N   0  0  0  0  0  0  0  0  0
    2.0076    0.8625    0.0000 C   0  0  0  0  0  0  0  0  0
    1.1826    0.8625    0.0000 C   0  0  0  0  0  0  0  0  0
    0.7701    0.1480    0.0000 C   0  0  0  0  0  0  0  0  0
    4.0278    0.1724    0.0000 C   0  0  0  0  0  0  0  0  0
    4.7423    0.5849    0.0000 C   0  0  0  0  0  0  0  0  0
    5.4567    0.1724    0.0000 C   0  0  0  0  0  0  0  0  0
    5.4567   -0.6526    0.0000 C   0  0  0  0  0  0  0  0  0
    6.1712   -1.0651    0.0000 O   0  0  0  0  0  0  0  0  0
    6.8857   -0.6526    0.0000 C   0  0  0  0  0  0  0  0  0
    7.6001   -1.0651    0.0000 C   0  0  0  0  0  0  0  0  0
    8.3146   -0.6526    0.0000 C   0  0  0  0  0  0  0  0  0
    9.0291   -1.0651    0.0000 C   0  0  0  0  0  0  0  0  0
    9.7436   -0.6526    0.0000 C   0  0  0  0  0  0  0  0  0
   10.4580   -1.0651    0.0000 C   0  0  0  0  0  0  0  0  0
   11.1725   -0.6526    0.0000 C   0  0  0  0  0  0  0  0  0
   11.8870   -1.0651    0.0000 C   0  0  0  0  0  0  0  0  0
   11.8870   -1.8901    0.0000 C   0  0  0  0  0  0  0  0  0
   11.1725   -2.3026    0.0000 N   0  0  0  0  0  0  0  0  0
   10.4580   -1.8901    0.0000 C   0  0  0  0  0  0  0  0  0
    4.7423   -1.0651    0.0000 C   0  0  0  0  0  0  0  0  0
    4.0278   -0.6526    0.0000 C   0  0  0  0  0  0  0  0  0
    3.3133   -1.0651    0.0000 C   0  0  0  0  0  0  0  0  0
  1  2  1  0  0  0  0
  2  3  4  0  0  0  0
  2 10  4  0  0  0  0
  3  4  4  0  0  0  0
  4  5  4  0  0  0  0
  5  6  4  0  0  0  0
  5  9  4  0  0  0  0
  6  7  4  0  0  0  0
  7  8  4  0  0  0  0
  7 12  1  0  0  0  0
  8  9  4  0  0  0  0
  9 10  4  0  0  0  0
 10 11  1  0  0  0  0
 12 13  4  0  0  0  0
 12 29  4  0  0  0  0
 13 14  4  0  0  0  0
 14 15  4  0  0  0  0
 15 16  1  0  0  0  0
 15 28  4  0  0  0  0
 16 17  1  0  0  0  0
 17 18  1  0  0  0  0
 18 19  1  0  0  0  0
 19 20  1  0  0  0  0
 20 21  1  0  0  0  0
 21 22  1  0  0  0  0
 22 23  4  0  0  0  0
 22 27  4  0  0  0  0
 23 24  4  0  0  0  0
 24 25  4  0  0  0  0
 25 26  4  0  0  0  0
 26 27  4  0  0  0  0
 28 29  4  0  0  0  0
 29 30  1  0  0  0  0
M  STY  1   1 DAT
M  SAL   1  1   6
M  SDT   1 MRV_IMPLICIT_H                                        
M  SDD   1     0.0000    0.0000    DR    ALL  0       0  
M  SED   1 IMPL_H1
M  END
>  <Name_Molregno>
631552

>  <HISTAMINE H4>
6.82

$$$$
631630
  Marvin  02231216192D 0   1.00000     0.00000     0

 31 35  0  0  1  0  0  0  0  0999 V2000
   -0.1467   -1.3911    0.0000 F   0  0  0  0  0  0  0  0  0
    0.5678   -0.9786    0.0000 C   0  0  0  0  0  0  0  0  0
    0.5678   -0.1536    0.0000 C   0  0  0  0  0  0  0  0  0
    1.2822    0.2589    0.0000 C   0  0  0  0  0  0  0  0  0
    1.9967   -0.1536    0.0000 C   0  0  0  0  0  0  0  0  0
    2.7813    0.1013    0.0000 N   0  0  0  0  0  0  0  0  0
    3.2663   -0.5661    0.0000 C   0  0  0  0  0  0  0  0  0
    2.7813   -1.2336    0.0000 N   0  0  0  0  0  0  0  0  0
    1.9967   -0.9786    0.0000 C   0  0  0  0  0  0  0  0  0
    1.2822   -1.3911    0.0000 C   0  0  0  0  0  0  0  0  0
    1.2822   -2.2161    0.0000 C   0  0  0  0  0  0  0  0  0
    4.0913   -0.5661    0.0000 C   0  0  0  0  0  0  0  0  0
    4.5038    0.1483    0.0000 C   0  0  0  0  0  0  0  0  0
    5.3288    0.1483    0.0000 C   0  0  0  0  0  0  0  0  0
    5.7413   -0.5661    0.0000 C   0  0  0  0  0  0  0  0  0
    6.5663   -0.5661    0.0000 O   0  0  0  0  0  0  0  0  0
    6.9788    0.1483    0.0000 C   0  0  0  0  0  0  0  0  0
    7.8038    0.1483    0.0000 C   0  0  0  0  0  0  0  0  0
    8.2163    0.8628    0.0000 C   0  0  0  0  0  0  0  0  0
    9.0413    0.8628    0.0000 N   0  0  0  0  0  0  0  0  0
    9.5262    0.1954    0.0000 C   0  0  0  0  0  0  0  0  0
   10.3108    0.4503    0.0000 C   0  0  0  0  0  0  0  0  0
   10.3108    1.2753    0.0000 C   0  0  0  0  0  0  0  0  0
   11.0253    1.6878    0.0000 N   0  0  0  0  0  0  0  0  0
   11.7397    1.2753    0.0000 C   0  0  0  0  0  0  0  0  0
   11.7397    0.4503    0.0000 C   0  0  0  0  0  0  0  0  0
   11.0253    0.0378    0.0000 C   0  0  0  0  0  0  0  0  0
    9.5262    1.5303    0.0000 C   0  0  0  0  0  0  0  0  0
    5.3288   -1.2806    0.0000 C   0  0  0  0  0  0  0  0  0
    4.5038   -1.2806    0.0000 C   0  0  0  0  0  0  0  0  0
    4.0913   -1.9951    0.0000 C   0  0  0  0  0  0  0  0  0
  1  2  1  0  0  0  0
  2  3  4  0  0  0  0
  2 10  4  0  0  0  0
  3  4  4  0  0  0  0
  4  5  4  0  0  0  0
  5  6  4  0  0  0  0
  5  9  4  0  0  0  0
  6  7  4  0  0  0  0
  7  8  4  0  0  0  0
  7 12  1  0  0  0  0
  8  9  4  0  0  0  0
  9 10  4  0  0  0  0
 10 11  1  0  0  0  0
 12 13  4  0  0  0  0
 12 30  4  0  0  0  0
 13 14  4  0  0  0  0
 14 15  4  0  0  0  0
 15 16  1  0  0  0  0
 15 29  4  0  0  0  0
 16 17  1  0  0  0  0
 17 18  1  0  0  0  0
 18 19  1  0  0  0  0
 19 20  1  0  0  0  0
 20 21  1  0  0  0  0
 20 28  1  0  0  0  0
 21 22  1  0  0  0  0
 22 23  1  0  0  0  0
 22 27  1  0  0  0  0
 23 24  1  0  0  0  0
 23 28  1  0  0  0  0
 24 25  1  0  0  0  0
 25 26  1  0  0  0  0
 26 27  1  0  0  0  0
 29 30  4  0  0  0  0
 30 31  1  0  0  0  0
M  STY  1   1 DAT
M  SAL   1  1   6
M  SDT   1 MRV_IMPLICIT_H                                        
M  SDD   1     0.0000    0.0000    DR    ALL  0       0  
M  SED   1 IMPL_H1
M  END
>  <Name_Molregno>
631630

>  <HISTAMINE H4>
7.01

$$$$
631631
  Marvin  02231216192D 0   1.00000     0.00000     0

 30 33  0  0  0  0  0  0  0  0999 V2000
   -0.0549    1.5769    0.0000 F   0  0  0  0  0  0  0  0  0
    0.7701    1.5769    0.0000 C   0  0  0  0  0  0  0  0  0
    1.1826    2.2914    0.0000 C   0  0  0  0  0  0  0  0  0
    2.0076    2.2914    0.0000 C   0  0  0  0  0  0  0  0  0
    2.4201    1.5769    0.0000 C   0  0  0  0  0  0  0  0  0
    3.2271    1.4054    0.0000 N   0  0  0  0  0  0  0  0  0
    3.3133    0.5849    0.0000 C   0  0  0  0  0  0  0  0  0
    2.5596    0.2494    0.0000 N   0  0  0  0  0  0  0  0  0
    2.0076    0.8625    0.0000 C   0  0  0  0  0  0  0  0  0
    1.1826    0.8625    0.0000 C   0  0  0  0  0  0  0  0  0
    0.7701    0.1480    0.0000 C   0  0  0  0  0  0  0  0  0
    4.0278    0.1724    0.0000 C   0  0  0  0  0  0  0  0  0
    4.7423    0.5849    0.0000 C   0  0  0  0  0  0  0  0  0
    5.4567    0.1724    0.0000 C   0  0  0  0  0  0  0  0  0
    5.4567   -0.6526    0.0000 C   0  0  0  0  0  0  0  0  0
    6.1712   -1.0651    0.0000 O   0  0  0  0  0  0  0  0  0
    6.8857   -0.6526    0.0000 C   0  0  0  0  0  0  0  0  0
    7.6001   -1.0651    0.0000 C   0  0  0  0  0  0  0  0  0
    8.3146   -0.6526    0.0000 C   0  0  0  0  0  0  0  0  0
    9.0291   -1.0651    0.0000 N   0  0  0  0  0  0  0  0  0
    9.7436   -0.6526    0.0000 C   0  0  0  0  0  0  0  0  0
   10.4580   -1.0651    0.0000 C   0  0  0  0  0  0  0  0  0
   11.1725   -0.6526    0.0000 N   0  0  0  0  0  0  0  0  0
   11.8870   -1.0651    0.0000 C   0  0  0  0  0  0  0  0  0
   11.8870   -1.8901    0.0000 C   0  0  0  0  0  0  0  0  0
   11.1725   -2.3026    0.0000 N   0  0  0  0  0  0  0  0  0
   10.4580   -1.8901    0.0000 C   0  0  0  0  0  0  0  0  0
    4.7423   -1.0651    0.0000 C   0  0  0  0  0  0  0  0  0
    4.0278   -0.6526    0.0000 C   0  0  0  0  0  0  0  0  0
    3.3133   -1.0651    0.0000 C   0  0  0  0  0  0  0  0  0
  1  2  1  0  0  0  0
  2  3  4  0  0  0  0
  2 10  4  0  0  0  0
  3  4  4  0  0  0  0
  4  5  4  0  0  0  0
  5  6  4  0  0  0  0
  5  9  4  0  0  0  0
  6  7  4  0  0  0  0
  7  8  4  0  0  0  0
  7 12  1  0  0  0  0
  8  9  4  0  0  0  0
  9 10  4  0  0  0  0
 10 11  1  0  0  0  0
 12 13  4  0  0  0  0
 12 29  4  0  0  0  0
 13 14  4  0  0  0  0
 14 15  4  0  0  0  0
 15 16  1  0  0  0  0
 15 28  4  0  0  0  0
 16 17  1  0  0  0  0
 17 18  1  0  0  0  0
 18 19  1  0  0  0  0
 19 20  1  0  0  0  0
 20 21  1  0  0  0  0
 21 22  1  0  0  0  0
 22 23  4  0  0  0  0
 22 27  4  0  0  0  0
 23 24  4  0  0  0  0
 24 25  4  0  0  0  0
 25 26  4  0  0  0  0
 26 27  4  0  0  0  0
 28 29  4  0  0  0  0
 29 30  1  0  0  0  0
M  STY  1   1 DAT
M  SAL   1  1   6
M  SDT   1 MRV_IMPLICIT_H                                        
M  SDD   1     0.0000    0.0000    DR    ALL  0       0  
M  SED   1 IMPL_H1
M  END
>  <Name_Molregno>
631631

>  <HISTAMINE H4>
5

$$$$
631632
  Marvin  02231216192D 0   1.00000     0.00000     0

 30 33  0  0  0  0  0  0  0  0999 V2000
    0.5230   -2.5160    0.0000 F   0  0  0  0  0  0  0  0  0
    0.9355   -1.8015    0.0000 C   0  0  0  0  0  0  0  0  0
    0.5230   -1.0871    0.0000 C   0  0  0  0  0  0  0  0  0
    0.9355   -0.3726    0.0000 C   0  0  0  0  0  0  0  0  0
    1.7605   -0.3726    0.0000 C   0  0  0  0  0  0  0  0  0
    2.3126    0.2405    0.0000 N   0  0  0  0  0  0  0  0  0
    3.0662   -0.0951    0.0000 C   0  0  0  0  0  0  0  0  0
    2.9800   -0.9155    0.0000 N   0  0  0  0  0  0  0  0  0
    2.1730   -1.0871    0.0000 C   0  0  0  0  0  0  0  0  0
    1.7605   -1.8015    0.0000 C   0  0  0  0  0  0  0  0  0
    2.1730   -2.5160    0.0000 C   0  0  0  0  0  0  0  0  0
    3.7807    0.3174    0.0000 C   0  0  0  0  0  0  0  0  0
    3.7807    1.1424    0.0000 C   0  0  0  0  0  0  0  0  0
    4.4952    1.5549    0.0000 C   0  0  0  0  0  0  0  0  0
    5.2096    1.1424    0.0000 C   0  0  0  0  0  0  0  0  0
    5.9241    1.5549    0.0000 O   0  0  0  0  0  0  0  0  0
    6.6386    1.1424    0.0000 C   0  0  0  0  0  0  0  0  0
    7.3531    1.5549    0.0000 C   0  0  0  0  0  0  0  0  0
    8.0675    1.1424    0.0000 C   0  0  0  0  0  0  0  0  0
    8.7820    1.5549    0.0000 N   0  0  0  0  0  0  0  0  0
    9.4965    1.1424    0.0000 C   0  0  0  0  0  0  0  0  0
   10.2109    1.5549    0.0000 C   0  0  0  0  0  0  0  0  0
   10.9254    1.1424    0.0000 C   0  0  0  0  0  0  0  0  0
   11.6791    1.4780    0.0000 N   0  0  0  0  0  0  0  0  0
   12.2311    0.8649    0.0000 C   0  0  0  0  0  0  0  0  0
   11.8186    0.1504    0.0000 N   0  0  0  0  0  0  0  0  0
   11.0116    0.3220    0.0000 C   0  0  0  0  0  0  0  0  0
    5.2096    0.3174    0.0000 C   0  0  0  0  0  0  0  0  0
    4.4952   -0.0951    0.0000 C   0  0  0  0  0  0  0  0  0
    4.4952   -0.9201    0.0000 C   0  0  0  0  0  0  0  0  0
  1  2  1  0  0  0  0
  2  3  4  0  0  0  0
  2 10  4  0  0  0  0
  3  4  4  0  0  0  0
  4  5  4  0  0  0  0
  5  6  4  0  0  0  0
  5  9  4  0  0  0  0
  6  7  4  0  0  0  0
  7  8  4  0  0  0  0
  7 12  1  0  0  0  0
  8  9  4  0  0  0  0
  9 10  4  0  0  0  0
 10 11  1  0  0  0  0
 12 13  4  0  0  0  0
 12 29  4  0  0  0  0
 13 14  4  0  0  0  0
 14 15  4  0  0  0  0
 15 16  1  0  0  0  0
 15 28  4  0  0  0  0
 16 17  1  0  0  0  0
 17 18  1  0  0  0  0
 18 19  1  0  0  0  0
 19 20  1  0  0  0  0
 20 21  1  0  0  0  0
 21 22  1  0  0  0  0
 22 23  1  0  0  0  0
 23 24  4  0  0  0  0
 23 27  4  0  0  0  0
 24 25  4  0  0  0  0
 25 26  4  0  0  0  0
 26 27  4  0  0  0  0
 28 29  4  0  0  0  0
 29 30  1  0  0  0  0
M  STY  2   1 DAT   2 DAT
M  SAL   1  1   6
M  SDT   1 MRV_IMPLICIT_H                                        
M  SDD   1     0.0000    0.0000    DR    ALL  0       0  
M  SED   1 IMPL_H1
M  SAL   2  1  26
M  SDT   2 MRV_IMPLICIT_H                                        
M  SDD   2     0.0000    0.0000    DR    ALL  0       0  
M  SED   2 IMPL_H1
M  END
>  <Name_Molregno>
631632

>  <HISTAMINE H4>
9.68

$$$$
631633
  Marvin  02231216192D 0   1.00000     0.00000     0

 31 34  0  0  0  0  0  0  0  0999 V2000
   -0.2038    1.7606    0.0000 F   0  0  0  0  0  0  0  0  0
    0.6212    1.7606    0.0000 C   0  0  0  0  0  0  0  0  0
    1.0337    2.4751    0.0000 C   0  0  0  0  0  0  0  0  0
    1.8587    2.4751    0.0000 C   0  0  0  0  0  0  0  0  0
    2.2712    1.7606    0.0000 C   0  0  0  0  0  0  0  0  0
    3.0782    1.5891    0.0000 N   0  0  0  0  0  0  0  0  0
    3.1644    0.7686    0.0000 C   0  0  0  0  0  0  0  0  0
    2.4107    0.4331    0.0000 N   0  0  0  0  0  0  0  0  0
    1.8587    1.0462    0.0000 C   0  0  0  0  0  0  0  0  0
    1.0337    1.0462    0.0000 C   0  0  0  0  0  0  0  0  0
    0.6212    0.3317    0.0000 C   0  0  0  0  0  0  0  0  0
    3.8789    0.3561    0.0000 C   0  0  0  0  0  0  0  0  0
    4.5934    0.7686    0.0000 C   0  0  0  0  0  0  0  0  0
    5.3078    0.3561    0.0000 C   0  0  0  0  0  0  0  0  0
    5.3078   -0.4689    0.0000 C   0  0  0  0  0  0  0  0  0
    6.0223   -0.8814    0.0000 O   0  0  0  0  0  0  0  0  0
    6.7368   -0.4689    0.0000 C   0  0  0  0  0  0  0  0  0
    7.4512   -0.8814    0.0000 C   0  0  0  0  0  0  0  0  0
    8.1657   -0.4689    0.0000 C   0  0  0  0  0  0  0  0  0
    8.8802   -0.8814    0.0000 N   0  0  0  0  0  0  0  0  0
    9.5946   -0.4689    0.0000 C   0  0  0  0  0  0  0  0  0
   10.3091   -0.8814    0.0000 C   0  0  0  0  0  0  0  0  0
   11.0236   -0.4689    0.0000 C   0  0  0  0  0  0  0  0  0
   11.1098    0.3516    0.0000 N   0  0  0  0  0  0  0  0  0
   11.9168    0.5231    0.0000 C   0  0  0  0  0  0  0  0  0
   12.3293   -0.1913    0.0000 N   0  0  0  0  0  0  0  0  0
   11.7773   -0.8044    0.0000 C   0  0  0  0  0  0  0  0  0
   13.1498   -0.2776    0.0000 C   0  0  0  0  0  0  0  0  0
    4.5934   -0.8814    0.0000 C   0  0  0  0  0  0  0  0  0
    3.8789   -0.4689    0.0000 C   0  0  0  0  0  0  0  0  0
    3.1644   -0.8814    0.0000 C   0  0  0  0  0  0  0  0  0
  1  2  1  0  0  0  0
  2  3  4  0  0  0  0
  2 10  4  0  0  0  0
  3  4  4  0  0  0  0
  4  5  4  0  0  0  0
  5  6  4  0  0  0  0
  5  9  4  0  0  0  0
  6  7  4  0  0  0  0
  7  8  4  0  0  0  0
  7 12  1  0  0  0  0
  8  9  4  0  0  0  0
  9 10  4  0  0  0  0
 10 11  1  0  0  0  0
 12 13  4  0  0  0  0
 12 30  4  0  0  0  0
 13 14  4  0  0  0  0
 14 15  4  0  0  0  0
 15 16  1  0  0  0  0
 15 29  4  0  0  0  0
 16 17  1  0  0  0  0
 17 18  1  0  0  0  0
 18 19  1  0  0  0  0
 19 20  1  0  0  0  0
 20 21  1  0  0  0  0
 21 22  1  0  0  0  0
 22 23  1  0  0  0  0
 23 24  4  0  0  0  0
 23 27  4  0  0  0  0
 24 25  4  0  0  0  0
 25 26  4  0  0  0  0
 26 27  4  0  0  0  0
 26 28  1  0  0  0  0
 29 30  4  0  0  0  0
 30 31  1  0  0  0  0
M  STY  1   1 DAT
M  SAL   1  1   6
M  SDT   1 MRV_IMPLICIT_H                                        
M  SDD   1     0.0000    0.0000    DR    ALL  0       0  
M  SED   1 IMPL_H1
M  END
>  <Name_Molregno>
631633

>  <HISTAMINE H4>
6.88

$$$$
631716
  Marvin  02231216192D 0   1.00000     0.00000     0

 31 35  0  0  0  0  0  0  0  0999 V2000
   10.0328    3.7391    0.0000 F   0  0  0  0  0  0  0  0  0
    9.6203    3.0246    0.0000 C   0  0  0  0  0  0  0  0  0
   10.0328    2.3101    0.0000 C   0  0  0  0  0  0  0  0  0
    9.6203    1.5956    0.0000 C   0  0  0  0  0  0  0  0  0
    8.7953    1.5956    0.0000 C   0  0  0  0  0  0  0  0  0
    8.2433    0.9825    0.0000 N   0  0  0  0  0  0  0  0  0
    7.4896    1.3181    0.0000 C   0  0  0  0  0  0  0  0  0
    7.5758    2.1386    0.0000 N   0  0  0  0  0  0  0  0  0
    8.3828    2.3101    0.0000 C   0  0  0  0  0  0  0  0  0
    8.7953    3.0246    0.0000 C   0  0  0  0  0  0  0  0  0
    8.3828    3.7391    0.0000 C   0  0  0  0  0  0  0  0  0
    6.7751    0.9056    0.0000 C   0  0  0  0  0  0  0  0  0
    6.7751    0.0806    0.0000 C   0  0  0  0  0  0  0  0  0
    6.0606   -0.3319    0.0000 C   0  0  0  0  0  0  0  0  0
    5.3462    0.0806    0.0000 C   0  0  0  0  0  0  0  0  0
    4.6317   -0.3319    0.0000 O   0  0  0  0  0  0  0  0  0
    4.6317   -1.1569    0.0000 C   0  0  0  0  0  0  0  0  0
    3.9172   -1.5694    0.0000 C   0  0  0  0  0  0  0  0  0
    3.9172   -2.3944    0.0000 C   0  0  0  0  0  0  0  0  0
    3.2028   -2.8069    0.0000 N   0  0  0  0  0  0  0  0  0
    3.2028   -3.6319    0.0000 C   0  0  0  0  0  0  0  0  0
    2.4883   -4.0444    0.0000 C   0  0  0  0  0  0  0  0  0
    1.7738   -3.6319    0.0000 C   0  0  0  0  0  0  0  0  0
    0.9892   -3.8868    0.0000 N   0  0  0  0  0  0  0  0  0
    0.5043   -3.2194    0.0000 C   0  0  0  0  0  0  0  0  0
    0.9892   -2.5520    0.0000 N   0  0  0  0  0  0  0  0  0
    1.7738   -2.8069    0.0000 C   0  0  0  0  0  0  0  0  0
    2.4883   -2.3944    0.0000 C   0  0  0  0  0  0  0  0  0
    5.3462    0.9056    0.0000 C   0  0  0  0  0  0  0  0  0
    6.0606    1.3181    0.0000 C   0  0  0  0  0  0  0  0  0
    6.0606    2.1431    0.0000 C   0  0  0  0  0  0  0  0  0
  1  2  1  0  0  0  0
  2  3  4  0  0  0  0
  2 10  4  0  0  0  0
  3  4  4  0  0  0  0
  4  5  4  0  0  0  0
  5  6  4  0  0  0  0
  5  9  4  0  0  0  0
  6  7  4  0  0  0  0
  7  8  4  0  0  0  0
  7 12  1  0  0  0  0
  8  9  4  0  0  0  0
  9 10  4  0  0  0  0
 10 11  1  0  0  0  0
 12 13  4  0  0  0  0
 12 30  4  0  0  0  0
 13 14  4  0  0  0  0
 14 15  4  0  0  0  0
 15 16  1  0  0  0  0
 15 29  4  0  0  0  0
 16 17  1  0  0  0  0
 17 18  1  0  0  0  0
 18 19  1  0  0  0  0
 19 20  1  0  0  0  0
 20 21  1  0  0  0  0
 20 28  1  0  0  0  0
 21 22  1  0  0  0  0
 22 23  1  0  0  0  0
 23 24  4  0  0  0  0
 23 27  4  0  0  0  0
 24 25  4  0  0  0  0
 25 26  4  0  0  0  0
 26 27  4  0  0  0  0
 27 28  1  0  0  0  0
 29 30  4  0  0  0  0
 30 31  1  0  0  0  0
M  STY  2   1 DAT   2 DAT
M  SAL   1  1   6
M  SDT   1 MRV_IMPLICIT_H                                        
M  SDD   1     0.0000    0.0000    DR    ALL  0       0  
M  SED   1 IMPL_H1
M  SAL   2  1  26
M  SDT   2 MRV_IMPLICIT_H                                        
M  SDD   2     0.0000    0.0000    DR    ALL  0       0  
M  SED   2 IMPL_H1
M  END
>  <Name_Molregno>
631716

>  <HISTAMINE H4>
8.48

$$$$
631717
  Marvin  02231216192D 0   1.00000     0.00000     0

 32 35  0  0  1  0  0  0  0  0999 V2000
   -0.5704   -4.1214    0.0000 Cl  0  0  0  0  0  0  0  0  0
   -0.5704   -3.2964    0.0000 C   0  0  0  0  0  0  0  0  0
   -1.2848   -2.8839    0.0000 C   0  0  0  0  0  0  0  0  0
   -1.2848   -2.0589    0.0000 C   0  0  0  0  0  0  0  0  0
   -0.5704   -1.6464    0.0000 C   0  0  0  0  0  0  0  0  0
    0.1441   -2.0589    0.0000 C   0  0  0  0  0  0  0  0  0
    0.1441   -2.8839    0.0000 C   0  0  0  0  0  0  0  0  0
    0.8586   -3.2964    0.0000 O   0  0  0  0  0  0  0  0  0
    1.5730   -2.8839    0.0000 C   0  0  0  0  0  0  0  0  0
    2.2875   -3.2964    0.0000 C   0  0  0  0  0  0  0  0  0
    3.0020   -2.8839    0.0000 C   0  0  0  0  0  0  0  0  0
    3.7165   -3.2964    0.0000 N   0  0  0  0  0  0  0  0  0
    3.7165   -4.1214    0.0000 C   0  0  0  0  0  0  0  0  0
    4.4309   -2.8839    0.0000 C   0  0  0  0  0  0  0  0  0
    4.5172   -2.0634    0.0000 C   0  0  0  0  0  0  0  0  0
    5.3241   -1.8919    0.0000 C   0  0  0  0  0  0  0  0  0
    5.7366   -2.6064    0.0000 N   0  0  0  0  0  0  0  0  0
    5.1846   -3.2195    0.0000 C   0  0  0  0  0  0  0  0  0
    6.5571   -2.6926    0.0000 C   0  0  0  0  0  0  0  0  0
   -1.9993   -1.6464    0.0000 C   0  0  0  0  0  0  0  0  0
   -2.0855   -0.8259    0.0000 N   0  0  0  0  0  0  0  0  0
   -2.8925   -0.6544    0.0000 C   0  0  0  0  0  0  0  0  0
   -3.3050   -1.3689    0.0000 C   0  0  0  0  0  0  0  0  0
   -2.7530   -1.9820    0.0000 N   0  0  0  0  0  0  0  0  0
   -4.1300   -1.3689    0.0000 C   0  0  0  0  0  0  0  0  0
   -4.5425   -0.6544    0.0000 C   0  0  0  0  0  0  0  0  0
   -4.1300    0.0601    0.0000 C   0  0  0  0  0  0  0  0  0
   -3.3050    0.0601    0.0000 C   0  0  0  0  0  0  0  0  0
   -5.3675   -0.6544    0.0000 C   0  0  0  0  0  0  0  0  0
   -6.1925   -0.6544    0.0000 C   0  0  0  0  0  0  0  0  0
   -5.3675    0.1706    0.0000 C   0  0  0  0  0  0  0  0  0
   -5.3675   -1.4794    0.0000 C   0  0  0  0  0  0  0  0  0
  1  2  1  0  0  0  0
  2  3  4  0  0  0  0
  2  7  4  0  0  0  0
  3  4  4  0  0  0  0
  4  5  4  0  0  0  0
  4 20  1  0  0  0  0
  5  6  4  0  0  0  0
  6  7  4  0  0  0  0
  7  8  1  0  0  0  0
  8  9  1  0  0  0  0
  9 10  1  0  0  0  0
 10 11  1  0  0  0  0
 11 12  1  0  0  0  0
 12 13  1  0  0  0  0
 12 14  1  0  0  0  0
 14 15  1  0  0  0  0
 14 18  1  0  0  0  0
 15 16  1  0  0  0  0
 16 17  1  0  0  0  0
 17 18  1  0  0  0  0
 17 19  1  0  0  0  0
 20 21  4  0  0  0  0
 20 24  4  0  0  0  0
 21 22  4  0  0  0  0
 22 23  4  0  0  0  0
 22 28  4  0  0  0  0
 23 24  4  0  0  0  0
 23 25  4  0  0  0  0
 25 26  4  0  0  0  0
 26 27  4  0  0  0  0
 26 29  1  0  0  0  0
 27 28  4  0  0  0  0
 29 30  1  0  0  0  0
 29 31  1  0  0  0  0
 29 32  1  0  0  0  0
M  STY  1   1 DAT
M  SAL   1  1  21
M  SDT   1 MRV_IMPLICIT_H                                        
M  SDD   1     0.0000    0.0000    DR    ALL  0       0  
M  SED   1 IMPL_H1
M  END
>  <Name_Molregno>
631717

>  <HISTAMINE H4>
6.22

$$$$
631789
  Marvin  02231216192D 0   1.00000     0.00000     0

 31 33  0  0  0  0  0  0  0  0999 V2000
   -0.2936   -4.0522    0.0000 Cl  0  0  0  0  0  0  0  0  0
   -0.2936   -3.2272    0.0000 C   0  0  0  0  0  0  0  0  0
   -1.0080   -2.8147    0.0000 C   0  0  0  0  0  0  0  0  0
   -1.0080   -1.9897    0.0000 C   0  0  0  0  0  0  0  0  0
   -0.2936   -1.5772    0.0000 C   0  0  0  0  0  0  0  0  0
    0.4209   -1.9897    0.0000 C   0  0  0  0  0  0  0  0  0
    0.4209   -2.8147    0.0000 C   0  0  0  0  0  0  0  0  0
    1.1354   -3.2272    0.0000 O   0  0  0  0  0  0  0  0  0
    1.8498   -2.8147    0.0000 C   0  0  0  0  0  0  0  0  0
    2.5643   -3.2272    0.0000 C   0  0  0  0  0  0  0  0  0
    3.2788   -2.8147    0.0000 C   0  0  0  0  0  0  0  0  0
    3.9933   -3.2272    0.0000 N   0  0  0  0  0  0  0  0  0
    4.7077   -2.8147    0.0000 C   0  0  0  0  0  0  0  0  0
    5.4222   -3.2272    0.0000 C   0  0  0  0  0  0  0  0  0
    6.1367   -2.8147    0.0000 N   0  0  0  0  0  0  0  0  0
    6.8511   -3.2272    0.0000 C   0  0  0  0  0  0  0  0  0
    6.1367   -1.9897    0.0000 C   0  0  0  0  0  0  0  0  0
    3.9933   -4.0522    0.0000 C   0  0  0  0  0  0  0  0  0
   -1.7225   -1.5772    0.0000 C   0  0  0  0  0  0  0  0  0
   -1.8088   -0.7567    0.0000 N   0  0  0  0  0  0  0  0  0
   -2.6157   -0.5852    0.0000 C   0  0  0  0  0  0  0  0  0
   -3.0282   -1.2996    0.0000 C   0  0  0  0  0  0  0  0  0
   -2.4762   -1.9127    0.0000 N   0  0  0  0  0  0  0  0  0
   -3.8532   -1.2996    0.0000 C   0  0  0  0  0  0  0  0  0
   -4.2657   -0.5852    0.0000 C   0  0  0  0  0  0  0  0  0
   -3.8532    0.1293    0.0000 C   0  0  0  0  0  0  0  0  0
   -3.0282    0.1293    0.0000 C   0  0  0  0  0  0  0  0  0
   -5.0907   -0.5852    0.0000 C   0  0  0  0  0  0  0  0  0
   -5.9157   -0.5852    0.0000 C   0  0  0  0  0  0  0  0  0
   -5.0907    0.2398    0.0000 C   0  0  0  0  0  0  0  0  0
   -5.0907   -1.4102    0.0000 C   0  0  0  0  0  0  0  0  0
  1  2  1  0  0  0  0
  2  3  4  0  0  0  0
  2  7  4  0  0  0  0
  3  4  4  0  0  0  0
  4  5  4  0  0  0  0
  4 19  1  0  0  0  0
  5  6  4  0  0  0  0
  6  7  4  0  0  0  0
  7  8  1  0  0  0  0
  8  9  1  0  0  0  0
  9 10  1  0  0  0  0
 10 11  1  0  0  0  0
 11 12  1  0  0  0  0
 12 13  1  0  0  0  0
 12 18  1  0  0  0  0
 13 14  1  0  0  0  0
 14 15  1  0  0  0  0
 15 16  1  0  0  0  0
 15 17  1  0  0  0  0
 19 20  4  0  0  0  0
 19 23  4  0  0  0  0
 20 21  4  0  0  0  0
 21 22  4  0  0  0  0
 21 27  4  0  0  0  0
 22 23  4  0  0  0  0
 22 24  4  0  0  0  0
 24 25  4  0  0  0  0
 25 26  4  0  0  0  0
 25 28  1  0  0  0  0
 26 27  4  0  0  0  0
 28 29  1  0  0  0  0
 28 30  1  0  0  0  0
 28 31  1  0  0  0  0
M  STY  1   1 DAT
M  SAL   1  1  20
M  SDT   1 MRV_IMPLICIT_H                                        
M  SDD   1     0.0000    0.0000    DR    ALL  0       0  
M  SED   1 IMPL_H1
M  END
>  <Name_Molregno>
631789

>  <HISTAMINE H4>
5.3

$$$$
632382
  Marvin  02231216192D 0   1.00000     0.00000     0

 29 32  0  0  0  0  0  0  0  0999 V2000
   10.6091    0.8907    0.0000 F   0  0  0  0  0  0  0  0  0
    9.8946    0.4782    0.0000 C   0  0  0  0  0  0  0  0  0
    9.8946   -0.3468    0.0000 C   0  0  0  0  0  0  0  0  0
    9.1801   -0.7593    0.0000 C   0  0  0  0  0  0  0  0  0
    8.4657   -0.3468    0.0000 C   0  0  0  0  0  0  0  0  0
    7.6810   -0.6017    0.0000 N   0  0  0  0  0  0  0  0  0
    7.1961    0.0657    0.0000 C   0  0  0  0  0  0  0  0  0
    7.6810    0.7332    0.0000 N   0  0  0  0  0  0  0  0  0
    8.4657    0.4782    0.0000 C   0  0  0  0  0  0  0  0  0
    9.1801    0.8907    0.0000 C   0  0  0  0  0  0  0  0  0
    9.1801    1.7157    0.0000 C   0  0  0  0  0  0  0  0  0
    6.3711    0.0657    0.0000 C   0  0  0  0  0  0  0  0  0
    5.9586   -0.6487    0.0000 C   0  0  0  0  0  0  0  0  0
    5.1336   -0.6487    0.0000 C   0  0  0  0  0  0  0  0  0
    4.7211    0.0657    0.0000 C   0  0  0  0  0  0  0  0  0
    3.8961    0.0657    0.0000 O   0  0  0  0  0  0  0  0  0
    3.4836   -0.6487    0.0000 C   0  0  0  0  0  0  0  0  0
    2.6586   -0.6487    0.0000 C   0  0  0  0  0  0  0  0  0
    2.2461   -1.3632    0.0000 C   0  0  0  0  0  0  0  0  0
    1.4211   -1.3632    0.0000 N   0  0  0  0  0  0  0  0  0
    1.0086   -2.0777    0.0000 C   0  0  0  0  0  0  0  0  0
    0.1836   -2.0777    0.0000 C   0  0  0  0  0  0  0  0  0
   -0.2289   -1.3632    0.0000 N   0  0  0  0  0  0  0  0  0
    0.1836   -0.6487    0.0000 C   0  0  0  0  0  0  0  0  0
    1.0086   -0.6487    0.0000 C   0  0  0  0  0  0  0  0  0
   -1.0539   -1.3632    0.0000 C   0  0  0  0  0  0  0  0  0
    5.1336    0.7802    0.0000 C   0  0  0  0  0  0  0  0  0
    5.9586    0.7802    0.0000 C   0  0  0  0  0  0  0  0  0
    6.3711    1.4947    0.0000 C   0  0  0  0  0  0  0  0  0
  1  2  1  0  0  0  0
  2  3  4  0  0  0  0
  2 10  4  0  0  0  0
  3  4  4  0  0  0  0
  4  5  4  0  0  0  0
  5  6  4  0  0  0  0
  5  9  4  0  0  0  0
  6  7  4  0  0  0  0
  7  8  4  0  0  0  0
  7 12  1  0  0  0  0
  8  9  4  0  0  0  0
  9 10  4  0  0  0  0
 10 11  1  0  0  0  0
 12 13  4  0  0  0  0
 12 28  4  0  0  0  0
 13 14  4  0  0  0  0
 14 15  4  0  0  0  0
 15 16  1  0  0  0  0
 15 27  4  0  0  0  0
 16 17  1  0  0  0  0
 17 18  1  0  0  0  0
 18 19  1  0  0  0  0
 19 20  1  0  0  0  0
 20 21  1  0  0  0  0
 20 25  1  0  0  0  0
 21 22  1  0  0  0  0
 22 23  1  0  0  0  0
 23 24  1  0  0  0  0
 23 26  1  0  0  0  0
 24 25  1  0  0  0  0
 27 28  4  0  0  0  0
 28 29  1  0  0  0  0
M  STY  1   1 DAT
M  SAL   1  1   6
M  SDT   1 MRV_IMPLICIT_H                                        
M  SDD   1     0.0000    0.0000    DR    ALL  0       0  
M  SED   1 IMPL_H1
M  END
>  <Name_Molregno>
632382

>  <HISTAMINE H4>
7.49

$$$$
632383
  Marvin  02231216192D 0   1.00000     0.00000     0

 28 31  0  0  1  0  0  0  0  0999 V2000
   10.2011    0.8881    0.0000 F   0  0  0  0  0  0  0  0  0
    9.4866    0.4756    0.0000 C   0  0  0  0  0  0  0  0  0
    9.4866   -0.3494    0.0000 C   0  0  0  0  0  0  0  0  0
    8.7722   -0.7619    0.0000 C   0  0  0  0  0  0  0  0  0
    8.0577   -0.3494    0.0000 C   0  0  0  0  0  0  0  0  0
    7.2731   -0.6043    0.0000 N   0  0  0  0  0  0  0  0  0
    6.7882    0.0631    0.0000 C   0  0  0  0  0  0  0  0  0
    7.2731    0.7305    0.0000 N   0  0  0  0  0  0  0  0  0
    8.0577    0.4756    0.0000 C   0  0  0  0  0  0  0  0  0
    8.7722    0.8881    0.0000 C   0  0  0  0  0  0  0  0  0
    8.7722    1.7131    0.0000 C   0  0  0  0  0  0  0  0  0
    5.9632    0.0631    0.0000 C   0  0  0  0  0  0  0  0  0
    5.5507   -0.6514    0.0000 C   0  0  0  0  0  0  0  0  0
    4.7257   -0.6514    0.0000 C   0  0  0  0  0  0  0  0  0
    4.3132    0.0631    0.0000 C   0  0  0  0  0  0  0  0  0
    3.4882    0.0631    0.0000 O   0  0  0  0  0  0  0  0  0
    3.0757   -0.6514    0.0000 C   0  0  0  0  0  0  0  0  0
    2.2507   -0.6514    0.0000 C   0  0  0  0  0  0  0  0  0
    1.8382   -1.3658    0.0000 C   0  0  0  0  0  0  0  0  0
    1.0132   -1.3658    0.0000 N   0  0  0  0  0  0  0  0  0
    0.5282   -2.0333    0.0000 C   0  0  0  0  0  0  0  0  0
   -0.2564   -1.7783    0.0000 C   0  0  0  0  0  0  0  0  0
   -0.9238   -2.2633    0.0000 N   0  0  0  0  0  0  0  0  0
   -0.2564   -0.9533    0.0000 C   0  0  0  0  0  0  0  0  0
    0.5282   -0.6984    0.0000 C   0  0  0  0  0  0  0  0  0
    4.7257    0.7776    0.0000 C   0  0  0  0  0  0  0  0  0
    5.5507    0.7776    0.0000 C   0  0  0  0  0  0  0  0  0
    5.9632    1.4920    0.0000 C   0  0  0  0  0  0  0  0  0
  1  2  1  0  0  0  0
  2  3  4  0  0  0  0
  2 10  4  0  0  0  0
  3  4  4  0  0  0  0
  4  5  4  0  0  0  0
  5  6  4  0  0  0  0
  5  9  4  0  0  0  0
  6  7  4  0  0  0  0
  7  8  4  0  0  0  0
  7 12  1  0  0  0  0
  8  9  4  0  0  0  0
  9 10  4  0  0  0  0
 10 11  1  0  0  0  0
 12 13  4  0  0  0  0
 12 27  4  0  0  0  0
 13 14  4  0  0  0  0
 14 15  4  0  0  0  0
 15 16  1  0  0  0  0
 15 26  4  0  0  0  0
 16 17  1  0  0  0  0
 17 18  1  0  0  0  0
 18 19  1  0  0  0  0
 19 20  1  0  0  0  0
 20 21  1  0  0  0  0
 20 25  1  0  0  0  0
 21 22  1  0  0  0  0
 22 23  1  0  0  0  0
 22 24  1  0  0  0  0
 24 25  1  0  0  0  0
 26 27  4  0  0  0  0
 27 28  1  0  0  0  0
M  STY  1   1 DAT
M  SAL   1  1   6
M  SDT   1 MRV_IMPLICIT_H                                        
M  SDD   1     0.0000    0.0000    DR    ALL  0       0  
M  SED   1 IMPL_H1
M  END
>  <Name_Molregno>
632383

>  <HISTAMINE H4>
7.1

$$$$
632384
  Marvin  02231216192D 0   1.00000     0.00000     0

 29 32  0  0  1  0  0  0  0  0999 V2000
   10.6263    0.9957    0.0000 F   0  0  0  0  0  0  0  0  0
    9.9118    0.5832    0.0000 C   0  0  0  0  0  0  0  0  0
    9.9118   -0.2418    0.0000 C   0  0  0  0  0  0  0  0  0
    9.1973   -0.6543    0.0000 C   0  0  0  0  0  0  0  0  0
    8.4829   -0.2418    0.0000 C   0  0  0  0  0  0  0  0  0
    7.6983   -0.4967    0.0000 N   0  0  0  0  0  0  0  0  0
    7.2133    0.1707    0.0000 C   0  0  0  0  0  0  0  0  0
    7.6983    0.8381    0.0000 N   0  0  0  0  0  0  0  0  0
    8.4829    0.5832    0.0000 C   0  0  0  0  0  0  0  0  0
    9.1973    0.9957    0.0000 C   0  0  0  0  0  0  0  0  0
    9.1973    1.8207    0.0000 C   0  0  0  0  0  0  0  0  0
    6.3883    0.1707    0.0000 C   0  0  0  0  0  0  0  0  0
    5.9758   -0.5438    0.0000 C   0  0  0  0  0  0  0  0  0
    5.1508   -0.5438    0.0000 C   0  0  0  0  0  0  0  0  0
    4.7383    0.1707    0.0000 C   0  0  0  0  0  0  0  0  0
    3.9133    0.1707    0.0000 O   0  0  0  0  0  0  0  0  0
    3.5008   -0.5438    0.0000 C   0  0  0  0  0  0  0  0  0
    2.6758   -0.5438    0.0000 C   0  0  0  0  0  0  0  0  0
    2.2633   -1.2582    0.0000 C   0  0  0  0  0  0  0  0  0
    1.4383   -1.2582    0.0000 N   0  0  0  0  0  0  0  0  0
    0.9534   -1.9257    0.0000 C   0  0  0  0  0  0  0  0  0
    0.1688   -1.6707    0.0000 C   0  0  0  0  0  0  0  0  0
   -0.4987   -2.1557    0.0000 N   0  0  0  0  0  0  0  0  0
   -0.4124   -2.9761    0.0000 C   0  0  0  0  0  0  0  0  0
    0.1688   -0.8457    0.0000 C   0  0  0  0  0  0  0  0  0
    0.9534   -0.5908    0.0000 C   0  0  0  0  0  0  0  0  0
    5.1508    0.8852    0.0000 C   0  0  0  0  0  0  0  0  0
    5.9758    0.8852    0.0000 C   0  0  0  0  0  0  0  0  0
    6.3883    1.5996    0.0000 C   0  0  0  0  0  0  0  0  0
  1  2  1  0  0  0  0
  2  3  4  0  0  0  0
  2 10  4  0  0  0  0
  3  4  4  0  0  0  0
  4  5  4  0  0  0  0
  5  6  4  0  0  0  0
  5  9  4  0  0  0  0
  6  7  4  0  0  0  0
  7  8  4  0  0  0  0
  7 12  1  0  0  0  0
  8  9  4  0  0  0  0
  9 10  4  0  0  0  0
 10 11  1  0  0  0  0
 12 13  4  0  0  0  0
 12 28  4  0  0  0  0
 13 14  4  0  0  0  0
 14 15  4  0  0  0  0
 15 16  1  0  0  0  0
 15 27  4  0  0  0  0
 16 17  1  0  0  0  0
 17 18  1  0  0  0  0
 18 19  1  0  0  0  0
 19 20  1  0  0  0  0
 20 21  1  0  0  0  0
 20 26  1  0  0  0  0
 21 22  1  0  0  0  0
 22 23  1  0  0  0  0
 22 25  1  0  0  0  0
 23 24  1  0  0  0  0
 25 26  1  0  0  0  0
 27 28  4  0  0  0  0
 28 29  1  0  0  0  0
M  STY  1   1 DAT
M  SAL   1  1   6
M  SDT   1 MRV_IMPLICIT_H                                        
M  SDD   1     0.0000    0.0000    DR    ALL  0       0  
M  SED   1 IMPL_H1
M  END
>  <Name_Molregno>
632384

>  <HISTAMINE H4>
7.7

$$$$
632385
  Marvin  02231216192D 0   1.00000     0.00000     0

 30 33  0  0  1  0  0  0  0  0999 V2000
   11.0267    1.1889    0.0000 F   0  0  0  0  0  0  0  0  0
   10.3122    0.7764    0.0000 C   0  0  0  0  0  0  0  0  0
   10.3122   -0.0486    0.0000 C   0  0  0  0  0  0  0  0  0
    9.5978   -0.4611    0.0000 C   0  0  0  0  0  0  0  0  0
    8.8833   -0.0486    0.0000 C   0  0  0  0  0  0  0  0  0
    8.0987   -0.3036    0.0000 N   0  0  0  0  0  0  0  0  0
    7.6137    0.3639    0.0000 C   0  0  0  0  0  0  0  0  0
    8.0987    1.0313    0.0000 N   0  0  0  0  0  0  0  0  0
    8.8833    0.7764    0.0000 C   0  0  0  0  0  0  0  0  0
    9.5978    1.1889    0.0000 C   0  0  0  0  0  0  0  0  0
    9.5978    2.0139    0.0000 C   0  0  0  0  0  0  0  0  0
    6.7887    0.3639    0.0000 C   0  0  0  0  0  0  0  0  0
    6.3762   -0.3506    0.0000 C   0  0  0  0  0  0  0  0  0
    5.5512   -0.3506    0.0000 C   0  0  0  0  0  0  0  0  0
    5.1387    0.3639    0.0000 C   0  0  0  0  0  0  0  0  0
    4.3137    0.3639    0.0000 O   0  0  0  0  0  0  0  0  0
    3.9012   -0.3506    0.0000 C   0  0  0  0  0  0  0  0  0
    3.0762   -0.3506    0.0000 C   0  0  0  0  0  0  0  0  0
    2.6637   -1.0651    0.0000 C   0  0  0  0  0  0  0  0  0
    1.8387   -1.0651    0.0000 N   0  0  0  0  0  0  0  0  0
    1.3538   -1.7325    0.0000 C   0  0  0  0  0  0  0  0  0
    0.5692   -1.4776    0.0000 C   0  0  0  0  0  0  0  0  0
   -0.0982   -1.9625    0.0000 N   0  0  0  0  0  0  0  0  0
   -0.0120   -2.7830    0.0000 C   0  0  0  0  0  0  0  0  0
   -0.8519   -1.6270    0.0000 C   0  0  0  0  0  0  0  0  0
    0.5692   -0.6526    0.0000 C   0  0  0  0  0  0  0  0  0
    1.3538   -0.3976    0.0000 C   0  0  0  0  0  0  0  0  0
    5.5512    1.0783    0.0000 C   0  0  0  0  0  0  0  0  0
    6.3762    1.0783    0.0000 C   0  0  0  0  0  0  0  0  0
    6.7887    1.7928    0.0000 C   0  0  0  0  0  0  0  0  0
  1  2  1  0  0  0  0
  2  3  4  0  0  0  0
  2 10  4  0  0  0  0
  3  4  4  0  0  0  0
  4  5  4  0  0  0  0
  5  6  4  0  0  0  0
  5  9  4  0  0  0  0
  6  7  4  0  0  0  0
  7  8  4  0  0  0  0
  7 12  1  0  0  0  0
  8  9  4  0  0  0  0
  9 10  4  0  0  0  0
 10 11  1  0  0  0  0
 12 13  4  0  0  0  0
 12 29  4  0  0  0  0
 13 14  4  0  0  0  0
 14 15  4  0  0  0  0
 15 16  1  0  0  0  0
 15 28  4  0  0  0  0
 16 17  1  0  0  0  0
 17 18  1  0  0  0  0
 18 19  1  0  0  0  0
 19 20  1  0  0  0  0
 20 21  1  0  0  0  0
 20 27  1  0  0  0  0
 21 22  1  0  0  0  0
 22 23  1  0  0  0  0
 22 26  1  0  0  0  0
 23 24  1  0  0  0  0
 23 25  1  0  0  0  0
 26 27  1  0  0  0  0
 28 29  4  0  0  0  0
 29 30  1  0  0  0  0
M  STY  1   1 DAT
M  SAL   1  1   6
M  SDT   1 MRV_IMPLICIT_H                                        
M  SDD   1     0.0000    0.0000    DR    ALL  0       0  
M  SED   1 IMPL_H1
M  END
>  <Name_Molregno>
632385

>  <HISTAMINE H4>
7.08

$$$$
632386
  Marvin  02231216192D 0   1.00000     0.00000     0

 29 32  0  0  1  0  0  0  0  0999 V2000
   10.5501    0.9402    0.0000 F   0  0  0  0  0  0  0  0  0
    9.8356    0.5277    0.0000 C   0  0  0  0  0  0  0  0  0
    9.8356   -0.2973    0.0000 C   0  0  0  0  0  0  0  0  0
    9.1212   -0.7098    0.0000 C   0  0  0  0  0  0  0  0  0
    8.4067   -0.2973    0.0000 C   0  0  0  0  0  0  0  0  0
    7.6221   -0.5522    0.0000 N   0  0  0  0  0  0  0  0  0
    7.1372    0.1152    0.0000 C   0  0  0  0  0  0  0  0  0
    7.6221    0.7827    0.0000 N   0  0  0  0  0  0  0  0  0
    8.4067    0.5277    0.0000 C   0  0  0  0  0  0  0  0  0
    9.1212    0.9402    0.0000 C   0  0  0  0  0  0  0  0  0
    9.1212    1.7652    0.0000 C   0  0  0  0  0  0  0  0  0
    6.3122    0.1152    0.0000 C   0  0  0  0  0  0  0  0  0
    5.8997   -0.5992    0.0000 C   0  0  0  0  0  0  0  0  0
    5.0747   -0.5992    0.0000 C   0  0  0  0  0  0  0  0  0
    4.6622    0.1152    0.0000 C   0  0  0  0  0  0  0  0  0
    3.8372    0.1152    0.0000 O   0  0  0  0  0  0  0  0  0
    3.4247   -0.5992    0.0000 C   0  0  0  0  0  0  0  0  0
    2.5997   -0.5992    0.0000 C   0  0  0  0  0  0  0  0  0
    2.1872   -1.3137    0.0000 C   0  0  0  0  0  0  0  0  0
    1.3622   -1.3137    0.0000 N   0  0  0  0  0  0  0  0  0
    0.9497   -2.0282    0.0000 C   0  0  0  0  0  0  0  0  0
    0.1247   -2.0282    0.0000 C   0  0  0  0  0  0  0  0  0
   -0.2878   -2.7426    0.0000 N   0  0  0  0  0  0  0  0  0
   -0.2878   -1.3137    0.0000 C   0  0  0  0  0  0  0  0  0
    0.1247   -0.5992    0.0000 C   0  0  0  0  0  0  0  0  0
    0.9497   -0.5992    0.0000 C   0  0  0  0  0  0  0  0  0
    5.0747    0.8297    0.0000 C   0  0  0  0  0  0  0  0  0
    5.8997    0.8297    0.0000 C   0  0  0  0  0  0  0  0  0
    6.3122    1.5442    0.0000 C   0  0  0  0  0  0  0  0  0
  1  2  1  0  0  0  0
  2  3  4  0  0  0  0
  2 10  4  0  0  0  0
  3  4  4  0  0  0  0
  4  5  4  0  0  0  0
  5  6  4  0  0  0  0
  5  9  4  0  0  0  0
  6  7  4  0  0  0  0
  7  8  4  0  0  0  0
  7 12  1  0  0  0  0
  8  9  4  0  0  0  0
  9 10  4  0  0  0  0
 10 11  1  0  0  0  0
 12 13  4  0  0  0  0
 12 28  4  0  0  0  0
 13 14  4  0  0  0  0
 14 15  4  0  0  0  0
 15 16  1  0  0  0  0
 15 27  4  0  0  0  0
 16 17  1  0  0  0  0
 17 18  1  0  0  0  0
 18 19  1  0  0  0  0
 19 20  1  0  0  0  0
 20 21  1  0  0  0  0
 20 26  1  0  0  0  0
 21 22  1  0  0  0  0
 22 23  1  0  0  0  0
 22 24  1  0  0  0  0
 24 25  1  0  0  0  0
 25 26  1  0  0  0  0
 27 28  4  0  0  0  0
 28 29  1  0  0  0  0
M  STY  1   1 DAT
M  SAL   1  1   6
M  SDT   1 MRV_IMPLICIT_H                                        
M  SDD   1     0.0000    0.0000    DR    ALL  0       0  
M  SED   1 IMPL_H1
M  END
>  <Name_Molregno>
632386

>  <HISTAMINE H4>
7.14

$$$$
632450
  Marvin  02231216192D 0   1.00000     0.00000     0

 31 34  0  0  1  0  0  0  0  0999 V2000
   11.2749    1.3224    0.0000 F   0  0  0  0  0  0  0  0  0
   10.5605    0.9099    0.0000 C   0  0  0  0  0  0  0  0  0
   10.5605    0.0849    0.0000 C   0  0  0  0  0  0  0  0  0
    9.8460   -0.3276    0.0000 C   0  0  0  0  0  0  0  0  0
    9.1315    0.0849    0.0000 C   0  0  0  0  0  0  0  0  0
    8.3469   -0.1700    0.0000 N   0  0  0  0  0  0  0  0  0
    7.8620    0.4974    0.0000 C   0  0  0  0  0  0  0  0  0
    8.3469    1.1648    0.0000 N   0  0  0  0  0  0  0  0  0
    9.1315    0.9099    0.0000 C   0  0  0  0  0  0  0  0  0
    9.8460    1.3224    0.0000 C   0  0  0  0  0  0  0  0  0
    9.8460    2.1474    0.0000 C   0  0  0  0  0  0  0  0  0
    7.0370    0.4974    0.0000 C   0  0  0  0  0  0  0  0  0
    6.6245   -0.2171    0.0000 C   0  0  0  0  0  0  0  0  0
    5.7995   -0.2171    0.0000 C   0  0  0  0  0  0  0  0  0
    5.3870    0.4974    0.0000 C   0  0  0  0  0  0  0  0  0
    4.5620    0.4974    0.0000 O   0  0  0  0  0  0  0  0  0
    4.1495   -0.2171    0.0000 C   0  0  0  0  0  0  0  0  0
    3.3245   -0.2171    0.0000 C   0  0  0  0  0  0  0  0  0
    2.9120   -0.9316    0.0000 C   0  0  0  0  0  0  0  0  0
    2.0870   -0.9316    0.0000 N   0  0  0  0  0  0  0  0  0
    1.6745   -1.6460    0.0000 C   0  0  0  0  0  0  0  0  0
    0.8495   -1.6460    0.0000 C   0  0  0  0  0  0  0  0  0
    0.4370   -2.3605    0.0000 N   0  0  0  0  0  0  0  0  0
    0.8495   -3.0750    0.0000 C   0  0  0  0  0  0  0  0  0
   -0.3880   -2.3605    0.0000 C   0  0  0  0  0  0  0  0  0
    0.4370   -0.9316    0.0000 C   0  0  0  0  0  0  0  0  0
    0.8495   -0.2171    0.0000 C   0  0  0  0  0  0  0  0  0
    1.6745   -0.2171    0.0000 C   0  0  0  0  0  0  0  0  0
    5.7995    1.2119    0.0000 C   0  0  0  0  0  0  0  0  0
    6.6245    1.2119    0.0000 C   0  0  0  0  0  0  0  0  0
    7.0370    1.9263    0.0000 C   0  0  0  0  0  0  0  0  0
  1  2  1  0  0  0  0
  2  3  4  0  0  0  0
  2 10  4  0  0  0  0
  3  4  4  0  0  0  0
  4  5  4  0  0  0  0
  5  6  4  0  0  0  0
  5  9  4  0  0  0  0
  6  7  4  0  0  0  0
  7  8  4  0  0  0  0
  7 12  1  0  0  0  0
  8  9  4  0  0  0  0
  9 10  4  0  0  0  0
 10 11  1  0  0  0  0
 12 13  4  0  0  0  0
 12 30  4  0  0  0  0
 13 14  4  0  0  0  0
 14 15  4  0  0  0  0
 15 16  1  0  0  0  0
 15 29  4  0  0  0  0
 16 17  1  0  0  0  0
 17 18  1  0  0  0  0
 18 19  1  0  0  0  0
 19 20  1  0  0  0  0
 20 21  1  0  0  0  0
 20 28  1  0  0  0  0
 21 22  1  0  0  0  0
 22 23  1  0  0  0  0
 22 26  1  0  0  0  0
 23 24  1  0  0  0  0
 23 25  1  0  0  0  0
 26 27  1  0  0  0  0
 27 28  1  0  0  0  0
 29 30  4  0  0  0  0
 30 31  1  0  0  0  0
M  STY  1   1 DAT
M  SAL   1  1   6
M  SDT   1 MRV_IMPLICIT_H                                        
M  SDD   1     0.0000    0.0000    DR    ALL  0       0  
M  SED   1 IMPL_H1
M  END
>  <Name_Molregno>
632450

>  <HISTAMINE H4>
5.7

$$$$
632452
  Marvin  02231216192D 0   1.00000     0.00000     0

 32 36  0  0  1  0  0  0  0  0999 V2000
   -0.1528   -1.4192    0.0000 F   0  0  0  0  0  0  0  0  0
    0.5617   -1.0067    0.0000 C   0  0  0  0  0  0  0  0  0
    0.5617   -0.1817    0.0000 C   0  0  0  0  0  0  0  0  0
    1.2761    0.2308    0.0000 C   0  0  0  0  0  0  0  0  0
    1.9906   -0.1817    0.0000 C   0  0  0  0  0  0  0  0  0
    2.7752    0.0732    0.0000 N   0  0  0  0  0  0  0  0  0
    3.2601   -0.5942    0.0000 C   0  0  0  0  0  0  0  0  0
    2.7752   -1.2617    0.0000 N   0  0  0  0  0  0  0  0  0
    1.9906   -1.0067    0.0000 C   0  0  0  0  0  0  0  0  0
    1.2761   -1.4192    0.0000 C   0  0  0  0  0  0  0  0  0
    1.2761   -2.2442    0.0000 C   0  0  0  0  0  0  0  0  0
    4.0851   -0.5942    0.0000 C   0  0  0  0  0  0  0  0  0
    4.4976    0.1202    0.0000 C   0  0  0  0  0  0  0  0  0
    5.3226    0.1202    0.0000 C   0  0  0  0  0  0  0  0  0
    5.7351   -0.5942    0.0000 C   0  0  0  0  0  0  0  0  0
    6.5601   -0.5942    0.0000 O   0  0  0  0  0  0  0  0  0
    6.9726    0.1202    0.0000 C   0  0  0  0  0  0  0  0  0
    7.7976    0.1202    0.0000 C   0  0  0  0  0  0  0  0  0
    8.2101    0.8347    0.0000 C   0  0  0  0  0  0  0  0  0
    9.0351    0.8347    0.0000 N   0  0  0  0  0  0  0  0  0
    9.5201    0.1673    0.0000 C   0  0  0  0  0  0  0  0  0
   10.3047    0.4222    0.0000 C   0  0  0  0  0  0  0  0  0
   10.3047    1.2472    0.0000 C   0  0  0  0  0  0  0  0  0
   11.0192    1.6597    0.0000 N   0  0  0  0  0  0  0  0  0
   11.7336    1.2472    0.0000 C   0  0  0  0  0  0  0  0  0
   11.7336    0.4222    0.0000 C   0  0  0  0  0  0  0  0  0
   11.0192    0.0097    0.0000 C   0  0  0  0  0  0  0  0  0
   11.0192    2.4847    0.0000 C   0  0  0  0  0  0  0  0  0
    9.5201    1.5022    0.0000 C   0  0  0  0  0  0  0  0  0
    5.3226   -1.3087    0.0000 C   0  0  0  0  0  0  0  0  0
    4.4976   -1.3087    0.0000 C   0  0  0  0  0  0  0  0  0
    4.0851   -2.0232    0.0000 C   0  0  0  0  0  0  0  0  0
  1  2  1  0  0  0  0
  2  3  4  0  0  0  0
  2 10  4  0  0  0  0
  3  4  4  0  0  0  0
  4  5  4  0  0  0  0
  5  6  4  0  0  0  0
  5  9  4  0  0  0  0
  6  7  4  0  0  0  0
  7  8  4  0  0  0  0
  7 12  1  0  0  0  0
  8  9  4  0  0  0  0
  9 10  4  0  0  0  0
 10 11  1  0  0  0  0
 12 13  4  0  0  0  0
 12 31  4  0  0  0  0
 13 14  4  0  0  0  0
 14 15  4  0  0  0  0
 15 16  1  0  0  0  0
 15 30  4  0  0  0  0
 16 17  1  0  0  0  0
 17 18  1  0  0  0  0
 18 19  1  0  0  0  0
 19 20  1  0  0  0  0
 20 21  1  0  0  0  0
 20 29  1  0  0  0  0
 21 22  1  0  0  0  0
 22 23  1  0  0  0  0
 22 27  1  0  0  0  0
 23 24  1  0  0  0  0
 23 29  1  0  0  0  0
 24 25  1  0  0  0  0
 24 28  1  0  0  0  0
 25 26  1  0  0  0  0
 26 27  1  0  0  0  0
 30 31  4  0  0  0  0
 31 32  1  0  0  0  0
M  STY  1   1 DAT
M  SAL   1  1   6
M  SDT   1 MRV_IMPLICIT_H                                        
M  SDD   1     0.0000    0.0000    DR    ALL  0       0  
M  SED   1 IMPL_H1
M  END
>  <Name_Molregno>
632452

>  <HISTAMINE H4>
6

$$$$
632511
  Marvin  02231216192D 0   1.00000     0.00000     0

 30 34  0  0  1  0  0  0  0  0999 V2000
   -0.1454   -0.5275    0.0000 F   0  0  0  0  0  0  0  0  0
    0.5691   -0.1150    0.0000 C   0  0  0  0  0  0  0  0  0
    0.5691    0.7100    0.0000 C   0  0  0  0  0  0  0  0  0
    1.2836    1.1225    0.0000 C   0  0  0  0  0  0  0  0  0
    1.9980    0.7100    0.0000 C   0  0  0  0  0  0  0  0  0
    2.7827    0.9650    0.0000 N   0  0  0  0  0  0  0  0  0
    3.2676    0.2975    0.0000 C   0  0  0  0  0  0  0  0  0
    2.7827   -0.3699    0.0000 N   0  0  0  0  0  0  0  0  0
    1.9980   -0.1150    0.0000 C   0  0  0  0  0  0  0  0  0
    1.2836   -0.5275    0.0000 C   0  0  0  0  0  0  0  0  0
    1.2836   -1.3525    0.0000 C   0  0  0  0  0  0  0  0  0
    4.0926    0.2975    0.0000 C   0  0  0  0  0  0  0  0  0
    4.5051    1.0120    0.0000 C   0  0  0  0  0  0  0  0  0
    5.3301    1.0120    0.0000 C   0  0  0  0  0  0  0  0  0
    5.7426    0.2975    0.0000 C   0  0  0  0  0  0  0  0  0
    6.5676    0.2975    0.0000 O   0  0  0  0  0  0  0  0  0
    6.9801   -0.4169    0.0000 C   0  0  0  0  0  0  0  0  0
    7.8051   -0.4169    0.0000 C   0  0  0  0  0  0  0  0  0
    8.2176   -1.1314    0.0000 C   0  0  0  0  0  0  0  0  0
    9.0426   -1.1314    0.0000 N   0  0  0  0  0  0  0  0  0
    9.5275   -1.7988    0.0000 C   0  0  0  0  0  0  0  0  0
   10.3121   -1.5439    0.0000 C   0  0  0  0  0  0  0  0  0
   10.3121   -0.7189    0.0000 C   0  0  0  0  0  0  0  0  0
   11.0967   -0.4640    0.0000 N   0  0  0  0  0  0  0  0  0
   11.5817   -1.1314    0.0000 C   0  0  0  0  0  0  0  0  0
   11.0967   -1.7988    0.0000 C   0  0  0  0  0  0  0  0  0
    9.5275   -0.4640    0.0000 C   0  0  0  0  0  0  0  0  0
    5.3301   -0.4169    0.0000 C   0  0  0  0  0  0  0  0  0
    4.5051   -0.4169    0.0000 C   0  0  0  0  0  0  0  0  0
    4.0926   -1.1314    0.0000 C   0  0  0  0  0  0  0  0  0
  1  2  1  0  0  0  0
  2  3  4  0  0  0  0
  2 10  4  0  0  0  0
  3  4  4  0  0  0  0
  4  5  4  0  0  0  0
  5  6  4  0  0  0  0
  5  9  4  0  0  0  0
  6  7  4  0  0  0  0
  7  8  4  0  0  0  0
  7 12  1  0  0  0  0
  8  9  4  0  0  0  0
  9 10  4  0  0  0  0
 10 11  1  0  0  0  0
 12 13  4  0  0  0  0
 12 29  4  0  0  0  0
 13 14  4  0  0  0  0
 14 15  4  0  0  0  0
 15 16  1  0  0  0  0
 15 28  4  0  0  0  0
 16 17  1  0  0  0  0
 17 18  1  0  0  0  0
 18 19  1  0  0  0  0
 19 20  1  0  0  0  0
 20 21  1  0  0  0  0
 20 27  1  0  0  0  0
 21 22  1  0  0  0  0
 22 23  1  0  0  0  0
 22 26  1  0  0  0  0
 23 24  1  0  0  0  0
 23 27  1  0  0  0  0
 24 25  1  0  0  0  0
 25 26  1  0  0  0  0
 28 29  4  0  0  0  0
 29 30  1  0  0  0  0
M  STY  1   1 DAT
M  SAL   1  1   6
M  SDT   1 MRV_IMPLICIT_H                                        
M  SDD   1     0.0000    0.0000    DR    ALL  0       0  
M  SED   1 IMPL_H1
M  END
>  <Name_Molregno>
632511

>  <HISTAMINE H4>
7.59

$$$$
632512
  Marvin  02231216192D 0   1.00000     0.00000     0

 29 33  0  0  1  0  0  0  0  0999 V2000
   10.6278    0.0059    0.0000 F   0  0  0  0  0  0  0  0  0
    9.9133   -0.4066    0.0000 C   0  0  0  0  0  0  0  0  0
    9.9133   -1.2316    0.0000 C   0  0  0  0  0  0  0  0  0
    9.1988   -1.6441    0.0000 C   0  0  0  0  0  0  0  0  0
    8.4844   -1.2316    0.0000 C   0  0  0  0  0  0  0  0  0
    7.6997   -1.4865    0.0000 N   0  0  0  0  0  0  0  0  0
    7.2148   -0.8191    0.0000 C   0  0  0  0  0  0  0  0  0
    7.6997   -0.1517    0.0000 N   0  0  0  0  0  0  0  0  0
    8.4844   -0.4066    0.0000 C   0  0  0  0  0  0  0  0  0
    9.1988    0.0059    0.0000 C   0  0  0  0  0  0  0  0  0
    9.1988    0.8309    0.0000 C   0  0  0  0  0  0  0  0  0
    6.3898   -0.8191    0.0000 C   0  0  0  0  0  0  0  0  0
    5.9773   -1.5336    0.0000 C   0  0  0  0  0  0  0  0  0
    5.1523   -1.5336    0.0000 C   0  0  0  0  0  0  0  0  0
    4.7398   -0.8191    0.0000 C   0  0  0  0  0  0  0  0  0
    3.9148   -0.8191    0.0000 O   0  0  0  0  0  0  0  0  0
    3.5023   -0.1046    0.0000 C   0  0  0  0  0  0  0  0  0
    2.6773   -0.1046    0.0000 C   0  0  0  0  0  0  0  0  0
    2.2648    0.6098    0.0000 C   0  0  0  0  0  0  0  0  0
    1.4398    0.6098    0.0000 N   0  0  0  0  0  0  0  0  0
    0.9549   -0.0576    0.0000 C   0  0  0  0  0  0  0  0  0
    0.1703    0.1973    0.0000 C   0  0  0  0  0  0  0  0  0
    0.1703    1.0223    0.0000 C   0  0  0  0  0  0  0  0  0
   -0.6547    1.0223    0.0000 N   0  0  0  0  0  0  0  0  0
   -0.6547    0.1973    0.0000 C   0  0  0  0  0  0  0  0  0
    0.9549    1.2773    0.0000 C   0  0  0  0  0  0  0  0  0
    5.1523   -0.1046    0.0000 C   0  0  0  0  0  0  0  0  0
    5.9773   -0.1046    0.0000 C   0  0  0  0  0  0  0  0  0
    6.3898    0.6098    0.0000 C   0  0  0  0  0  0  0  0  0
  1  2  1  0  0  0  0
  2  3  4  0  0  0  0
  2 10  4  0  0  0  0
  3  4  4  0  0  0  0
  4  5  4  0  0  0  0
  5  6  4  0  0  0  0
  5  9  4  0  0  0  0
  6  7  4  0  0  0  0
  7  8  4  0  0  0  0
  7 12  1  0  0  0  0
  8  9  4  0  0  0  0
  9 10  4  0  0  0  0
 10 11  1  0  0  0  0
 12 13  4  0  0  0  0
 12 28  4  0  0  0  0
 13 14  4  0  0  0  0
 14 15  4  0  0  0  0
 15 16  1  0  0  0  0
 15 27  4  0  0  0  0
 16 17  1  0  0  0  0
 17 18  1  0  0  0  0
 18 19  1  0  0  0  0
 19 20  1  0  0  0  0
 20 21  1  0  0  0  0
 20 26  1  0  0  0  0
 21 22  1  0  0  0  0
 22 23  1  0  0  0  0
 22 25  1  0  0  0  0
 23 24  1  0  0  0  0
 23 26  1  0  0  0  0
 24 25  1  0  0  0  0
 27 28  4  0  0  0  0
 28 29  1  0  0  0  0
M  STY  1   1 DAT
M  SAL   1  1   6
M  SDT   1 MRV_IMPLICIT_H                                        
M  SDD   1     0.0000    0.0000    DR    ALL  0       0  
M  SED   1 IMPL_H1
M  END
>  <Name_Molregno>
632512

>  <HISTAMINE H4>
5

$$$$
632513
  Marvin  02231216192D 0   1.00000     0.00000     0

 28 32  0  0  1  0  0  0  0  0999 V2000
   10.2052    1.3596    0.0000 F   0  0  0  0  0  0  0  0  0
    9.4908    0.9471    0.0000 C   0  0  0  0  0  0  0  0  0
    9.4908    0.1221    0.0000 C   0  0  0  0  0  0  0  0  0
    8.7763   -0.2904    0.0000 C   0  0  0  0  0  0  0  0  0
    8.0618    0.1221    0.0000 C   0  0  0  0  0  0  0  0  0
    7.2772   -0.1329    0.0000 N   0  0  0  0  0  0  0  0  0
    6.7923    0.5346    0.0000 C   0  0  0  0  0  0  0  0  0
    7.2772    1.2020    0.0000 N   0  0  0  0  0  0  0  0  0
    8.0618    0.9471    0.0000 C   0  0  0  0  0  0  0  0  0
    8.7763    1.3596    0.0000 C   0  0  0  0  0  0  0  0  0
    8.7763    2.1846    0.0000 C   0  0  0  0  0  0  0  0  0
    5.9673    0.5346    0.0000 C   0  0  0  0  0  0  0  0  0
    5.5548   -0.1799    0.0000 C   0  0  0  0  0  0  0  0  0
    4.7298   -0.1799    0.0000 C   0  0  0  0  0  0  0  0  0
    4.3173    0.5346    0.0000 C   0  0  0  0  0  0  0  0  0
    3.4923    0.5346    0.0000 O   0  0  0  0  0  0  0  0  0
    3.0798   -0.1799    0.0000 C   0  0  0  0  0  0  0  0  0
    2.2548   -0.1799    0.0000 C   0  0  0  0  0  0  0  0  0
    1.8423   -0.8944    0.0000 C   0  0  0  0  0  0  0  0  0
    1.0173   -0.8944    0.0000 N   0  0  0  0  0  0  0  0  0
    0.5324   -1.5618    0.0000 C   0  0  0  0  0  0  0  0  0
   -0.2523   -1.3069    0.0000 C   0  0  0  0  0  0  0  0  0
   -0.9667   -0.8944    0.0000 N   0  0  0  0  0  0  0  0  0
   -0.2523   -0.4819    0.0000 C   0  0  0  0  0  0  0  0  0
    0.5324   -0.2269    0.0000 C   0  0  0  0  0  0  0  0  0
    4.7298    1.2490    0.0000 C   0  0  0  0  0  0  0  0  0
    5.5548    1.2490    0.0000 C   0  0  0  0  0  0  0  0  0
    5.9673    1.9635    0.0000 C   0  0  0  0  0  0  0  0  0
  1  2  1  0  0  0  0
  2  3  4  0  0  0  0
  2 10  4  0  0  0  0
  3  4  4  0  0  0  0
  4  5  4  0  0  0  0
  5  6  4  0  0  0  0
  5  9  4  0  0  0  0
  6  7  4  0  0  0  0
  7  8  4  0  0  0  0
  7 12  1  0  0  0  0
  8  9  4  0  0  0  0
  9 10  4  0  0  0  0
 10 11  1  0  0  0  0
 12 13  4  0  0  0  0
 12 27  4  0  0  0  0
 13 14  4  0  0  0  0
 14 15  4  0  0  0  0
 15 16  1  0  0  0  0
 15 26  4  0  0  0  0
 16 17  1  0  0  0  0
 17 18  1  0  0  0  0
 18 19  1  0  0  0  0
 19 20  1  0  0  0  0
 20 21  1  0  0  0  0
 20 25  1  0  0  0  0
 21 22  1  0  0  0  0
 22 23  1  0  0  0  0
 22 24  1  0  0  0  0
 23 24  1  0  0  0  0
 24 25  1  0  0  0  0
 26 27  4  0  0  0  0
 27 28  1  0  0  0  0
M  STY  1   1 DAT
M  SAL   1  1   6
M  SDT   1 MRV_IMPLICIT_H                                        
M  SDD   1     0.0000    0.0000    DR    ALL  0       0  
M  SED   1 IMPL_H1
M  END
>  <Name_Molregno>
632513

>  <HISTAMINE H4>
5

$$$$
632598
  Marvin  02231216192D 0   1.00000     0.00000     0

 28 32  0  0  1  0  0  0  0  0999 V2000
   -0.1282   -0.8346    0.0000 F   0  0  0  0  0  0  0  0  0
    0.5863   -0.4221    0.0000 C   0  0  0  0  0  0  0  0  0
    0.5863    0.4029    0.0000 C   0  0  0  0  0  0  0  0  0
    1.3008    0.8154    0.0000 C   0  0  0  0  0  0  0  0  0
    2.0152    0.4029    0.0000 C   0  0  0  0  0  0  0  0  0
    2.7999    0.6578    0.0000 N   0  0  0  0  0  0  0  0  0
    3.2848   -0.0096    0.0000 C   0  0  0  0  0  0  0  0  0
    2.7999   -0.6771    0.0000 N   0  0  0  0  0  0  0  0  0
    2.0152   -0.4221    0.0000 C   0  0  0  0  0  0  0  0  0
    1.3008   -0.8346    0.0000 C   0  0  0  0  0  0  0  0  0
    1.3008   -1.6596    0.0000 C   0  0  0  0  0  0  0  0  0
    4.1098   -0.0096    0.0000 C   0  0  0  0  0  0  0  0  0
    4.5223    0.7049    0.0000 C   0  0  0  0  0  0  0  0  0
    5.3473    0.7049    0.0000 C   0  0  0  0  0  0  0  0  0
    5.7598   -0.0096    0.0000 C   0  0  0  0  0  0  0  0  0
    6.5848   -0.0096    0.0000 O   0  0  0  0  0  0  0  0  0
    6.9973    0.7049    0.0000 C   0  0  0  0  0  0  0  0  0
    7.8223    0.7049    0.0000 C   0  0  0  0  0  0  0  0  0
    8.2348    1.4193    0.0000 C   0  0  0  0  0  0  0  0  0
    9.0598    1.4193    0.0000 N   0  0  0  0  0  0  0  0  0
    9.7742    1.0068    0.0000 C   0  0  0  0  0  0  0  0  0
    9.7742    1.8318    0.0000 C   0  0  0  0  0  0  0  0  0
   10.5589    2.0868    0.0000 C   0  0  0  0  0  0  0  0  0
   11.0438    1.4193    0.0000 N   0  0  0  0  0  0  0  0  0
   10.5589    0.7519    0.0000 C   0  0  0  0  0  0  0  0  0
    5.3473   -0.7241    0.0000 C   0  0  0  0  0  0  0  0  0
    4.5223   -0.7241    0.0000 C   0  0  0  0  0  0  0  0  0
    4.1098   -1.4386    0.0000 C   0  0  0  0  0  0  0  0  0
  1  2  1  0  0  0  0
  2  3  4  0  0  0  0
  2 10  4  0  0  0  0
  3  4  4  0  0  0  0
  4  5  4  0  0  0  0
  5  6  4  0  0  0  0
  5  9  4  0  0  0  0
  6  7  4  0  0  0  0
  7  8  4  0  0  0  0
  7 12  1  0  0  0  0
  8  9  4  0  0  0  0
  9 10  4  0  0  0  0
 10 11  1  0  0  0  0
 12 13  4  0  0  0  0
 12 27  4  0  0  0  0
 13 14  4  0  0  0  0
 14 15  4  0  0  0  0
 15 16  1  0  0  0  0
 15 26  4  0  0  0  0
 16 17  1  0  0  0  0
 17 18  1  0  0  0  0
 18 19  1  0  0  0  0
 19 20  1  0  0  0  0
 20 21  1  0  0  0  0
 20 22  1  0  0  0  0
 21 22  1  0  0  0  0
 21 25  1  0  0  0  0
 22 23  1  0  0  0  0
 23 24  1  0  0  0  0
 24 25  1  0  0  0  0
 26 27  4  0  0  0  0
 27 28  1  0  0  0  0
M  STY  1   1 DAT
M  SAL   1  1   6
M  SDT   1 MRV_IMPLICIT_H                                        
M  SDD   1     0.0000    0.0000    DR    ALL  0       0  
M  SED   1 IMPL_H1
M  END
>  <Name_Molregno>
632598

>  <HISTAMINE H4>
5

$$$$
632599
  Marvin  02231216192D 0   1.00000     0.00000     0

 31 35  0  0  1  0  0  0  0  0999 V2000
   -0.1477   -0.3997    0.0000 F   0  0  0  0  0  0  0  0  0
    0.5668    0.0128    0.0000 C   0  0  0  0  0  0  0  0  0
    0.5668    0.8378    0.0000 C   0  0  0  0  0  0  0  0  0
    1.2812    1.2503    0.0000 C   0  0  0  0  0  0  0  0  0
    1.9957    0.8378    0.0000 C   0  0  0  0  0  0  0  0  0
    2.7803    1.0927    0.0000 N   0  0  0  0  0  0  0  0  0
    3.2653    0.4253    0.0000 C   0  0  0  0  0  0  0  0  0
    2.7803   -0.2421    0.0000 N   0  0  0  0  0  0  0  0  0
    1.9957    0.0128    0.0000 C   0  0  0  0  0  0  0  0  0
    1.2812   -0.3997    0.0000 C   0  0  0  0  0  0  0  0  0
    1.2812   -1.2247    0.0000 C   0  0  0  0  0  0  0  0  0
    4.0903    0.4253    0.0000 C   0  0  0  0  0  0  0  0  0
    4.5028    1.1398    0.0000 C   0  0  0  0  0  0  0  0  0
    5.3278    1.1398    0.0000 C   0  0  0  0  0  0  0  0  0
    5.7403    0.4253    0.0000 C   0  0  0  0  0  0  0  0  0
    6.5653    0.4253    0.0000 O   0  0  0  0  0  0  0  0  0
    6.9778   -0.2892    0.0000 C   0  0  0  0  0  0  0  0  0
    7.8028   -0.2892    0.0000 C   0  0  0  0  0  0  0  0  0
    8.2153   -1.0036    0.0000 C   0  0  0  0  0  0  0  0  0
    9.0403   -1.0036    0.0000 N   0  0  0  0  0  0  0  0  0
    9.5252   -1.6711    0.0000 C   0  0  0  0  0  0  0  0  0
   10.3098   -1.4161    0.0000 C   0  0  0  0  0  0  0  0  0
   10.3098   -0.5911    0.0000 C   0  0  0  0  0  0  0  0  0
   11.0944   -0.3362    0.0000 N   0  0  0  0  0  0  0  0  0
   11.5794   -1.0036    0.0000 C   0  0  0  0  0  0  0  0  0
   11.0944   -1.6711    0.0000 C   0  0  0  0  0  0  0  0  0
   11.3494    0.4484    0.0000 C   0  0  0  0  0  0  0  0  0
    9.5252   -0.3362    0.0000 C   0  0  0  0  0  0  0  0  0
    5.3278   -0.2892    0.0000 C   0  0  0  0  0  0  0  0  0
    4.5028   -0.2892    0.0000 C   0  0  0  0  0  0  0  0  0
    4.0903   -1.0036    0.0000 C   0  0  0  0  0  0  0  0  0
  1  2  1  0  0  0  0
  2  3  4  0  0  0  0
  2 10  4  0  0  0  0
  3  4  4  0  0  0  0
  4  5  4  0  0  0  0
  5  6  4  0  0  0  0
  5  9  4  0  0  0  0
  6  7  4  0  0  0  0
  7  8  4  0  0  0  0
  7 12  1  0  0  0  0
  8  9  4  0  0  0  0
  9 10  4  0  0  0  0
 10 11  1  0  0  0  0
 12 13  4  0  0  0  0
 12 30  4  0  0  0  0
 13 14  4  0  0  0  0
 14 15  4  0  0  0  0
 15 16  1  0  0  0  0
 15 29  4  0  0  0  0
 16 17  1  0  0  0  0
 17 18  1  0  0  0  0
 18 19  1  0  0  0  0
 19 20  1  0  0  0  0
 20 21  1  0  0  0  0
 20 28  1  0  0  0  0
 21 22  1  0  0  0  0
 22 23  1  0  0  0  0
 22 26  1  0  0  0  0
 23 24  1  0  0  0  0
 23 28  1  0  0  0  0
 24 25  1  0  0  0  0
 24 27  1  0  0  0  0
 25 26  1  0  0  0  0
 29 30  4  0  0  0  0
 30 31  1  0  0  0  0
M  STY  1   1 DAT
M  SAL   1  1   6
M  SDT   1 MRV_IMPLICIT_H                                        
M  SDD   1     0.0000    0.0000    DR    ALL  0       0  
M  SED   1 IMPL_H1
M  END
>  <Name_Molregno>
632599

>  <HISTAMINE H4>
6.63

$$$$
632600
  Marvin  02231216192D 0   1.00000     0.00000     0

 30 34  0  0  1  0  0  0  0  0999 V2000
   11.0533    0.0125    0.0000 F   0  0  0  0  0  0  0  0  0
   10.3389   -0.4000    0.0000 C   0  0  0  0  0  0  0  0  0
   10.3389   -1.2250    0.0000 C   0  0  0  0  0  0  0  0  0
    9.6244   -1.6375    0.0000 C   0  0  0  0  0  0  0  0  0
    8.9099   -1.2250    0.0000 C   0  0  0  0  0  0  0  0  0
    8.1253   -1.4799    0.0000 N   0  0  0  0  0  0  0  0  0
    7.6404   -0.8125    0.0000 C   0  0  0  0  0  0  0  0  0
    8.1253   -0.1451    0.0000 N   0  0  0  0  0  0  0  0  0
    8.9099   -0.4000    0.0000 C   0  0  0  0  0  0  0  0  0
    9.6244    0.0125    0.0000 C   0  0  0  0  0  0  0  0  0
    9.6244    0.8375    0.0000 C   0  0  0  0  0  0  0  0  0
    6.8154   -0.8125    0.0000 C   0  0  0  0  0  0  0  0  0
    6.4029   -1.5270    0.0000 C   0  0  0  0  0  0  0  0  0
    5.5779   -1.5270    0.0000 C   0  0  0  0  0  0  0  0  0
    5.1654   -0.8125    0.0000 C   0  0  0  0  0  0  0  0  0
    4.3404   -0.8125    0.0000 O   0  0  0  0  0  0  0  0  0
    3.9279   -0.0980    0.0000 C   0  0  0  0  0  0  0  0  0
    3.1029   -0.0980    0.0000 C   0  0  0  0  0  0  0  0  0
    2.6904    0.6164    0.0000 C   0  0  0  0  0  0  0  0  0
    1.8654    0.6164    0.0000 N   0  0  0  0  0  0  0  0  0
    1.3804   -0.0510    0.0000 C   0  0  0  0  0  0  0  0  0
    0.5958    0.2039    0.0000 C   0  0  0  0  0  0  0  0  0
    0.5958    1.0289    0.0000 C   0  0  0  0  0  0  0  0  0
   -0.2292    1.0289    0.0000 N   0  0  0  0  0  0  0  0  0
   -0.2292    0.2039    0.0000 C   0  0  0  0  0  0  0  0  0
   -0.8125    1.6123    0.0000 C   0  0  0  0  0  0  0  0  0
    1.3804    1.2839    0.0000 C   0  0  0  0  0  0  0  0  0
    5.5779   -0.0980    0.0000 C   0  0  0  0  0  0  0  0  0
    6.4029   -0.0980    0.0000 C   0  0  0  0  0  0  0  0  0
    6.8154    0.6164    0.0000 C   0  0  0  0  0  0  0  0  0
  1  2  1  0  0  0  0
  2  3  4  0  0  0  0
  2 10  4  0  0  0  0
  3  4  4  0  0  0  0
  4  5  4  0  0  0  0
  5  6  4  0  0  0  0
  5  9  4  0  0  0  0
  6  7  4  0  0  0  0
  7  8  4  0  0  0  0
  7 12  1  0  0  0  0
  8  9  4  0  0  0  0
  9 10  4  0  0  0  0
 10 11  1  0  0  0  0
 12 13  4  0  0  0  0
 12 29  4  0  0  0  0
 13 14  4  0  0  0  0
 14 15  4  0  0  0  0
 15 16  1  0  0  0  0
 15 28  4  0  0  0  0
 16 17  1  0  0  0  0
 17 18  1  0  0  0  0
 18 19  1  0  0  0  0
 19 20  1  0  0  0  0
 20 21  1  0  0  0  0
 20 27  1  0  0  0  0
 21 22  1  0  0  0  0
 22 23  1  0  0  0  0
 22 25  1  0  0  0  0
 23 24  1  0  0  0  0
 23 27  1  0  0  0  0
 24 25  1  0  0  0  0
 24 26  1  0  0  0  0
 28 29  4  0  0  0  0
 29 30  1  0  0  0  0
M  STY  1   1 DAT
M  SAL   1  1   6
M  SDT   1 MRV_IMPLICIT_H                                        
M  SDD   1     0.0000    0.0000    DR    ALL  0       0  
M  SED   1 IMPL_H1
M  END
>  <Name_Molregno>
632600

>  <HISTAMINE H4>
6.01

$$$$
632601
  Marvin  02231216192D 0   1.00000     0.00000     0

 29 33  0  0  1  0  0  0  0  0999 V2000
   10.6693    1.3664    0.0000 F   0  0  0  0  0  0  0  0  0
    9.9548    0.9539    0.0000 C   0  0  0  0  0  0  0  0  0
    9.9548    0.1289    0.0000 C   0  0  0  0  0  0  0  0  0
    9.2404   -0.2836    0.0000 C   0  0  0  0  0  0  0  0  0
    8.5259    0.1289    0.0000 C   0  0  0  0  0  0  0  0  0
    7.7413   -0.1261    0.0000 N   0  0  0  0  0  0  0  0  0
    7.2563    0.5414    0.0000 C   0  0  0  0  0  0  0  0  0
    7.7413    1.2088    0.0000 N   0  0  0  0  0  0  0  0  0
    8.5259    0.9539    0.0000 C   0  0  0  0  0  0  0  0  0
    9.2404    1.3664    0.0000 C   0  0  0  0  0  0  0  0  0
    9.2404    2.1914    0.0000 C   0  0  0  0  0  0  0  0  0
    6.4313    0.5414    0.0000 C   0  0  0  0  0  0  0  0  0
    6.0188   -0.1731    0.0000 C   0  0  0  0  0  0  0  0  0
    5.1938   -0.1731    0.0000 C   0  0  0  0  0  0  0  0  0
    4.7813    0.5414    0.0000 C   0  0  0  0  0  0  0  0  0
    3.9563    0.5414    0.0000 O   0  0  0  0  0  0  0  0  0
    3.5438   -0.1731    0.0000 C   0  0  0  0  0  0  0  0  0
    2.7188   -0.1731    0.0000 C   0  0  0  0  0  0  0  0  0
    2.3063   -0.8876    0.0000 C   0  0  0  0  0  0  0  0  0
    1.4813   -0.8876    0.0000 N   0  0  0  0  0  0  0  0  0
    0.9964   -1.5550    0.0000 C   0  0  0  0  0  0  0  0  0
    0.2118   -1.3001    0.0000 C   0  0  0  0  0  0  0  0  0
   -0.5027   -0.8876    0.0000 N   0  0  0  0  0  0  0  0  0
    0.2118   -0.4751    0.0000 C   0  0  0  0  0  0  0  0  0
    0.9964   -0.2201    0.0000 C   0  0  0  0  0  0  0  0  0
   -1.3277   -0.8876    0.0000 C   0  0  0  0  0  0  0  0  0
    5.1938    1.2559    0.0000 C   0  0  0  0  0  0  0  0  0
    6.0188    1.2559    0.0000 C   0  0  0  0  0  0  0  0  0
    6.4313    1.9703    0.0000 C   0  0  0  0  0  0  0  0  0
  1  2  1  0  0  0  0
  2  3  4  0  0  0  0
  2 10  4  0  0  0  0
  3  4  4  0  0  0  0
  4  5  4  0  0  0  0
  5  6  4  0  0  0  0
  5  9  4  0  0  0  0
  6  7  4  0  0  0  0
  7  8  4  0  0  0  0
  7 12  1  0  0  0  0
  8  9  4  0  0  0  0
  9 10  4  0  0  0  0
 10 11  1  0  0  0  0
 12 13  4  0  0  0  0
 12 28  4  0  0  0  0
 13 14  4  0  0  0  0
 14 15  4  0  0  0  0
 15 16  1  0  0  0  0
 15 27  4  0  0  0  0
 16 17  1  0  0  0  0
 17 18  1  0  0  0  0
 18 19  1  0  0  0  0
 19 20  1  0  0  0  0
 20 21  1  0  0  0  0
 20 25  1  0  0  0  0
 21 22  1  0  0  0  0
 22 23  1  0  0  0  0
 22 24  1  0  0  0  0
 23 24  1  0  0  0  0
 23 26  1  0  0  0  0
 24 25  1  0  0  0  0
 27 28  4  0  0  0  0
 28 29  1  0  0  0  0
M  STY  1   1 DAT
M  SAL   1  1   6
M  SDT   1 MRV_IMPLICIT_H                                        
M  SDD   1     0.0000    0.0000    DR    ALL  0       0  
M  SED   1 IMPL_H1
M  END
>  <Name_Molregno>
632601

>  <HISTAMINE H4>
7.05

$$$$
643884
  Marvin  02231216192D 0   1.00000     0.00000     0

 29 31  0  0  0  0  0  0  0  0999 V2000
   -0.6821    3.9707    0.0000 S   0  0  0  0  0  0  0  0  0
   -0.0146    3.4857    0.0000 C   0  0  0  0  0  0  0  0  0
   -0.2696    2.7011    0.0000 C   0  0  0  0  0  0  0  0  0
    0.2825    2.0880    0.0000 C   0  0  0  0  0  0  0  0  0
    1.0894    2.2595    0.0000 C   0  0  0  0  0  0  0  0  0
    1.3444    3.0442    0.0000 C   0  0  0  0  0  0  0  0  0
    0.7923    3.6573    0.0000 C   0  0  0  0  0  0  0  0  0
    1.6415    1.6465    0.0000 C   0  0  0  0  0  0  0  0  0
    1.3865    0.8618    0.0000 N   0  0  0  0  0  0  0  0  0
    1.9386    0.2487    0.0000 N   0  0  0  0  0  0  0  0  0
    1.6836   -0.5359    0.0000 C   0  0  0  0  0  0  0  0  0
    0.8767   -0.7074    0.0000 N   0  0  0  0  0  0  0  0  0
    0.6217   -1.4920    0.0000 C   0  0  0  0  0  0  0  0  0
    2.2357   -1.1490    0.0000 N   0  0  0  0  0  0  0  0  0
    2.4484    1.8180    0.0000 C   0  0  0  0  0  0  0  0  0
   -1.0946    2.7011    0.0000 C   0  0  0  0  0  0  0  0  0
   -1.6466    2.0880    0.0000 C   0  0  0  0  0  0  0  0  0
   -2.4536    2.2595    0.0000 C   0  0  0  0  0  0  0  0  0
   -2.7085    3.0442    0.0000 C   0  0  0  0  0  0  0  0  0
   -2.1565    3.6573    0.0000 C   0  0  0  0  0  0  0  0  0
   -1.3495    3.4857    0.0000 C   0  0  0  0  0  0  0  0  0
   -3.0056    1.6465    0.0000 C   0  0  0  0  0  0  0  0  0
   -2.7507    0.8618    0.0000 N   0  0  0  0  0  0  0  0  0
   -1.9437    0.6903    0.0000 N   0  0  0  0  0  0  0  0  0
   -1.6888   -0.0943    0.0000 C   0  0  0  0  0  0  0  0  0
   -0.8818   -0.2658    0.0000 N   0  0  0  0  0  0  0  0  0
   -0.3298    0.3472    0.0000 C   0  0  0  0  0  0  0  0  0
   -2.2408   -0.7074    0.0000 N   0  0  0  0  0  0  0  0  0
   -3.8126    1.8180    0.0000 C   0  0  0  0  0  0  0  0  0
  1  2  4  0  0  0  0
  1 21  4  0  0  0  0
  2  3  4  0  0  0  0
  2  7  4  0  0  0  0
  3  4  4  0  0  0  0
  3 16  4  0  0  0  0
  4  5  4  0  0  0  0
  5  6  4  0  0  0  0
  5  8  1  0  0  0  0
  6  7  4  0  0  0  0
  8  9  2  0  0  0  0
  8 15  1  0  0  0  0
  9 10  1  0  0  0  0
 10 11  1  0  0  0  0
 11 12  2  0  0  0  0
 11 14  1  0  0  0  0
 12 13  1  0  0  0  0
 16 17  4  0  0  0  0
 16 21  4  0  0  0  0
 17 18  4  0  0  0  0
 18 19  4  0  0  0  0
 18 22  1  0  0  0  0
 19 20  4  0  0  0  0
 20 21  4  0  0  0  0
 22 23  2  0  0  0  0
 22 29  1  0  0  0  0
 23 24  1  0  0  0  0
 24 25  1  0  0  0  0
 25 26  2  0  0  0  0
 25 28  1  0  0  0  0
 26 27  1  0  0  0  0
M  END
>  <Name_Molregno>
643884

>  <HISTAMINE H4>
5.83

$$$$
643885
  Marvin  02231216192D 0   1.00000     0.00000     0

 16 16  0  0  0  0  0  0  0  0999 V2000
    0.0893   -0.4560    0.0000 N   0  0  0  0  0  0  0  0  0
    0.0893   -1.2810    0.0000 C   0  0  0  0  0  0  0  0  0
   -0.6252   -1.6935    0.0000 C   0  0  0  0  0  0  0  0  0
   -1.3396   -1.2810    0.0000 C   0  0  0  0  0  0  0  0  0
   -1.3396   -0.4560    0.0000 C   0  0  0  0  0  0  0  0  0
   -0.6252   -0.0435    0.0000 C   0  0  0  0  0  0  0  0  0
   -0.6252    0.7815    0.0000 C   0  0  0  0  0  0  0  0  0
   -1.3396    1.1940    0.0000 N   0  0  0  0  0  0  0  0  0
   -1.3396    2.0190    0.0000 C   0  0  0  0  0  0  0  0  0
   -2.0541    2.4315    0.0000 N   0  0  0  0  0  0  0  0  0
   -0.6252    2.4315    0.0000 N   0  0  0  0  0  0  0  0  0
    0.8038   -1.6935    0.0000 C   0  0  0  0  0  0  0  0  0
    1.5183   -1.2810    0.0000 N   0  0  0  0  0  0  0  0  0
    2.2327   -1.6935    0.0000 C   0  0  0  0  0  0  0  0  0
    2.9472   -1.2810    0.0000 N   0  0  0  0  0  0  0  0  0
    2.2327   -2.5185    0.0000 N   0  0  0  0  0  0  0  0  0
  1  2  4  0  0  0  0
  1  6  4  0  0  0  0
  2  3  4  0  0  0  0
  2 12  1  0  0  0  0
  3  4  4  0  0  0  0
  4  5  4  0  0  0  0
  5  6  4  0  0  0  0
  6  7  1  0  0  0  0
  7  8  1  0  0  0  0
  8  9  1  0  0  0  0
  9 10  1  0  0  0  0
  9 11  2  0  0  0  0
 12 13  1  0  0  0  0
 13 14  1  0  0  0  0
 14 15  1  0  0  0  0
 14 16  2  0  0  0  0
M  END
>  <Name_Molregno>
643885

>  <HISTAMINE H4>
5.91

$$$$
643886
  Marvin  02231216192D 0   1.00000     0.00000     0

 15 14  0  0  0  0  0  0  0  0999 V2000
    2.3310    0.1770    0.0000 N   0  0  0  0  0  0  0  0  0
    2.7435    0.8915    0.0000 N   0  0  0  0  0  0  0  0  0
    3.5685    0.8915    0.0000 C   0  0  0  0  0  0  0  0  0
    3.9810    1.6059    0.0000 N   0  0  0  0  0  0  0  0  0
    3.9810    0.1770    0.0000 N   0  0  0  0  0  0  0  0  0
    1.5060    0.1770    0.0000 C   0  0  0  0  0  0  0  0  0
    1.0935    0.8915    0.0000 C   0  0  0  0  0  0  0  0  0
    0.2685    0.8915    0.0000 C   0  0  0  0  0  0  0  0  0
   -0.1440    0.1770    0.0000 N   0  0  0  0  0  0  0  0  0
    0.2685   -0.5375    0.0000 N   0  0  0  0  0  0  0  0  0
   -0.1440   -1.2520    0.0000 C   0  0  0  0  0  0  0  0  0
   -0.9690   -1.2520    0.0000 N   0  0  0  0  0  0  0  0  0
    0.2685   -1.9664    0.0000 N   0  0  0  0  0  0  0  0  0
   -0.1440    1.6059    0.0000 C   0  0  0  0  0  0  0  0  0
    1.0935   -0.5375    0.0000 C   0  0  0  0  0  0  0  0  0
  1  2  1  0  0  0  0
  1  6  2  0  0  0  0
  2  3  1  0  0  0  0
  3  4  1  0  0  0  0
  3  5  2  0  0  0  0
  6  7  1  0  0  0  0
  6 15  1  0  0  0  0
  7  8  2  0  0  0  0
  8  9  1  0  0  0  0
  8 14  1  0  0  0  0
  9 10  1  0  0  0  0
 10 11  1  0  0  0  0
 11 12  1  0  0  0  0
 11 13  2  0  0  0  0
M  END
>  <Name_Molregno>
643886

>  <HISTAMINE H4>
6.05

$$$$
643890
  Marvin  02231216192D 0   1.00000     0.00000     0

 19 20  0  0  0  0  0  0  0  0999 V2000
   -1.9612   -4.2084    0.0000 N   0  0  0  0  0  0  0  0  0
   -2.2161   -3.4237    0.0000 C   0  0  0  0  0  0  0  0  0
   -1.5487   -2.9388    0.0000 C   0  0  0  0  0  0  0  0  0
   -0.8813   -3.4237    0.0000 N   0  0  0  0  0  0  0  0  0
   -1.1362   -4.2084    0.0000 C   0  0  0  0  0  0  0  0  0
   -1.5487   -2.1138    0.0000 C   0  0  0  0  0  0  0  0  0
   -2.2632   -1.7013    0.0000 C   0  0  0  0  0  0  0  0  0
   -2.2632   -0.8763    0.0000 N   0  0  0  0  0  0  0  0  0
   -2.9776   -0.4638    0.0000 C   0  0  0  0  0  0  0  0  0
   -3.6921   -0.8763    0.0000 N   0  0  0  0  0  0  0  0  0
   -4.4066   -0.4638    0.0000 C   0  0  0  0  0  0  0  0  0
   -5.1211   -0.8763    0.0000 N   0  0  0  0  0  0  0  0  0
   -5.8355   -0.4638    0.0000 C   0  0  0  0  0  0  0  0  0
   -5.8355    0.3612    0.0000 C   0  0  0  0  0  0  0  0  0
   -5.1211    0.7737    0.0000 C   0  0  0  0  0  0  0  0  0
   -4.4066    0.3612    0.0000 N   0  0  0  0  0  0  0  0  0
   -5.1211    1.5987    0.0000 C   0  0  0  0  0  0  0  0  0
   -6.5500   -0.8763    0.0000 C   0  0  0  0  0  0  0  0  0
   -2.9776    0.3612    0.0000 N   0  0  0  0  0  0  0  0  0
  1  2  4  0  0  0  0
  1  5  4  0  0  0  0
  2  3  4  0  0  0  0
  3  4  4  0  0  0  0
  3  6  1  0  0  0  0
  4  5  4  0  0  0  0
  6  7  1  0  0  0  0
  7  8  1  0  0  0  0
  8  9  2  0  0  0  0
  9 10  1  0  0  0  0
  9 19  1  0  0  0  0
 10 11  1  0  0  0  0
 11 12  4  0  0  0  0
 11 16  4  0  0  0  0
 12 13  4  0  0  0  0
 13 14  4  0  0  0  0
 13 18  1  0  0  0  0
 14 15  4  0  0  0  0
 15 16  4  0  0  0  0
 15 17  1  0  0  0  0
M  STY  1   1 DAT
M  SAL   1  1   1
M  SDT   1 MRV_IMPLICIT_H                                        
M  SDD   1     0.0000    0.0000    DR    ALL  0       0  
M  SED   1 IMPL_H1
M  END
>  <Name_Molregno>
643890

>  <HISTAMINE H4>
7.07

$$$$
643891
  Marvin  02231216192D 0   1.00000     0.00000     0

 28 30  0  0  0  0  0  0  0  0999 V2000
   -3.5027    0.3087    0.0000 O   0  0  0  0  0  0  0  0  0
   -2.7882   -0.1038    0.0000 C   0  0  0  0  0  0  0  0  0
   -2.7882   -0.9288    0.0000 C   0  0  0  0  0  0  0  0  0
   -2.0737   -1.3413    0.0000 C   0  0  0  0  0  0  0  0  0
   -2.0737   -2.1663    0.0000 N   0  0  0  0  0  0  0  0  0
   -1.3593   -2.5788    0.0000 C   0  0  0  0  0  0  0  0  0
   -0.6448   -2.1663    0.0000 C   0  0  0  0  0  0  0  0  0
    0.0697   -2.5788    0.0000 C   0  0  0  0  0  0  0  0  0
    0.0697   -3.4038    0.0000 C   0  0  0  0  0  0  0  0  0
   -0.6448   -3.8163    0.0000 C   0  0  0  0  0  0  0  0  0
   -1.3593   -3.4038    0.0000 C   0  0  0  0  0  0  0  0  0
    0.7842   -3.8163    0.0000 C   0  0  0  0  0  0  0  0  0
    0.7842   -4.6413    0.0000 O   0  0  0  0  0  0  0  0  0
    1.4986   -5.0538    0.0000 C   0  0  0  0  0  0  0  0  0
    1.4986   -5.8788    0.0000 C   0  0  0  0  0  0  0  0  0
    1.4986   -3.4038    0.0000 O   0  0  0  0  0  0  0  0  0
   -1.3593   -0.9288    0.0000 C   0  0  0  0  0  0  0  0  0
   -1.3593   -0.1038    0.0000 C   0  0  0  0  0  0  0  0  0
   -0.6448    0.3087    0.0000 C   0  0  0  0  0  0  0  0  0
    0.0697   -0.1038    0.0000 C   0  0  0  0  0  0  0  0  0
    0.0697   -0.9288    0.0000 C   0  0  0  0  0  0  0  0  0
   -0.6448   -1.3413    0.0000 C   0  0  0  0  0  0  0  0  0
   -2.0737    0.3087    0.0000 C   0  0  0  0  0  0  0  0  0
   -2.0737    1.1337    0.0000 N   0  0  0  0  0  0  0  0  0
   -2.7882    1.5462    0.0000 N   0  0  0  0  0  0  0  0  0
   -2.7882    2.3712    0.0000 C   0  0  0  0  0  0  0  0  0
   -3.5027    2.7837    0.0000 N   0  0  0  0  0  0  0  0  0
   -2.0737    2.7837    0.0000 N   0  0  0  0  0  0  0  0  0
  1  2  2  0  0  0  0
  2  3  1  0  0  0  0
  2 23  1  0  0  0  0
  3  4  2  0  0  0  0
  4  5  1  0  0  0  0
  4 17  1  0  0  0  0
  5  6  1  0  0  0  0
  6  7  4  0  0  0  0
  6 11  4  0  0  0  0
  7  8  4  0  0  0  0
  8  9  4  0  0  0  0
  9 10  4  0  0  0  0
  9 12  1  0  0  0  0
 10 11  4  0  0  0  0
 12 13  1  0  0  0  0
 12 16  2  0  0  0  0
 13 14  1  0  0  0  0
 14 15  1  0  0  0  0
 17 18  4  0  0  0  0
 17 22  4  0  0  0  0
 18 19  4  0  0  0  0
 18 23  1  0  0  0  0
 19 20  4  0  0  0  0
 20 21  4  0  0  0  0
 21 22  4  0  0  0  0
 23 24  2  0  0  0  0
 24 25  1  0  0  0  0
 25 26  1  0  0  0  0
 26 27  1  0  0  0  0
 26 28  2  0  0  0  0
M  END
>  <Name_Molregno>
643891

>  <HISTAMINE H4>
6.66

$$$$
650522
  Marvin  02231216192D 0   1.00000     0.00000     0

 22 24  0  0  0  0  0  0  0  0999 V2000
    0.5933    2.6213    0.0000 F   0  0  0  0  0  0  0  0  0
    1.3078    2.2088    0.0000 C   0  0  0  0  0  0  0  0  0
    0.8953    1.4943    0.0000 F   0  0  0  0  0  0  0  0  0
    1.7203    2.9232    0.0000 F   0  0  0  0  0  0  0  0  0
    2.0222    1.7963    0.0000 C   0  0  0  0  0  0  0  0  0
    2.7367    2.2088    0.0000 C   0  0  0  0  0  0  0  0  0
    3.4512    1.7963    0.0000 C   0  0  0  0  0  0  0  0  0
    3.4512    0.9713    0.0000 C   0  0  0  0  0  0  0  0  0
    4.1657    0.5588    0.0000 N   0  0  0  0  0  0  0  0  0
    4.8801    0.9713    0.0000 C   0  0  0  0  0  0  0  0  0
    5.5946    0.5588    0.0000 C   0  0  0  0  0  0  0  0  0
    5.5946   -0.2662    0.0000 C   0  0  0  0  0  0  0  0  0
    4.8801   -0.6787    0.0000 C   0  0  0  0  0  0  0  0  0
    4.1657   -0.2662    0.0000 C   0  0  0  0  0  0  0  0  0
    6.3091   -0.6787    0.0000 C   0  0  0  0  0  0  0  0  0
    6.3091   -1.5037    0.0000 C   0  0  0  0  0  0  0  0  0
    6.9765   -1.9887    0.0000 N   0  0  0  0  0  0  0  0  0
    6.7216   -2.7733    0.0000 C   0  0  0  0  0  0  0  0  0
    5.8966   -2.7733    0.0000 N   0  0  0  0  0  0  0  0  0
    5.6416   -1.9887    0.0000 C   0  0  0  0  0  0  0  0  0
    2.7367    0.5588    0.0000 C   0  0  0  0  0  0  0  0  0
    2.0222    0.9713    0.0000 C   0  0  0  0  0  0  0  0  0
  1  2  1  0  0  0  0
  2  3  1  0  0  0  0
  2  4  1  0  0  0  0
  2  5  1  0  0  0  0
  5  6  4  0  0  0  0
  5 22  4  0  0  0  0
  6  7  4  0  0  0  0
  7  8  4  0  0  0  0
  8  9  1  0  0  0  0
  8 21  4  0  0  0  0
  9 10  1  0  0  0  0
  9 14  1  0  0  0  0
 10 11  1  0  0  0  0
 11 12  1  0  0  0  0
 12 13  1  0  0  0  0
 12 15  1  0  0  0  0
 13 14  1  0  0  0  0
 15 16  1  0  0  0  0
 16 17  4  0  0  0  0
 16 20  4  0  0  0  0
 17 18  4  0  0  0  0
 18 19  4  0  0  0  0
 19 20  4  0  0  0  0
 21 22  4  0  0  0  0
M  STY  1   1 DAT
M  SAL   1  1  19
M  SDT   1 MRV_IMPLICIT_H                                        
M  SDD   1     0.0000    0.0000    DR    ALL  0       0  
M  SED   1 IMPL_H1
M  END
>  <Name_Molregno>
650522

>  <HISTAMINE H1>
6

>  <HISTAMINE H2>
6

>  <HISTAMINE H3>
8.74

>  <HISTAMINE H4>
6.67

$$$$
650960
  Marvin  02231216192D 0   1.00000     0.00000     0

 20 22  0  0  0  0  0  0  0  0999 V2000
   -6.5038    2.4469    0.0000 O   0  0  0  0  0  0  0  0  0
   -7.2183    2.0344    0.0000 C   0  0  0  0  0  0  0  0  0
   -5.7893    2.0344    0.0000 C   0  0  0  0  0  0  0  0  0
   -5.0749    2.4469    0.0000 C   0  0  0  0  0  0  0  0  0
   -4.3604    2.0344    0.0000 C   0  0  0  0  0  0  0  0  0
   -4.3604    1.2094    0.0000 C   0  0  0  0  0  0  0  0  0
   -3.6459    0.7969    0.0000 N   0  0  0  0  0  0  0  0  0
   -2.9314    1.2094    0.0000 C   0  0  0  0  0  0  0  0  0
   -2.2170    0.7969    0.0000 C   0  0  0  0  0  0  0  0  0
   -2.2170   -0.0281    0.0000 C   0  0  0  0  0  0  0  0  0
   -2.9314   -0.4406    0.0000 C   0  0  0  0  0  0  0  0  0
   -3.6459   -0.0281    0.0000 C   0  0  0  0  0  0  0  0  0
   -1.5025   -0.4406    0.0000 C   0  0  0  0  0  0  0  0  0
   -1.5025   -1.2656    0.0000 C   0  0  0  0  0  0  0  0  0
   -0.8351   -1.7505    0.0000 N   0  0  0  0  0  0  0  0  0
   -1.0900   -2.5352    0.0000 C   0  0  0  0  0  0  0  0  0
   -1.9150   -2.5352    0.0000 N   0  0  0  0  0  0  0  0  0
   -2.1699   -1.7505    0.0000 C   0  0  0  0  0  0  0  0  0
   -5.0749    0.7969    0.0000 C   0  0  0  0  0  0  0  0  0
   -5.7893    1.2094    0.0000 C   0  0  0  0  0  0  0  0  0
  1  2  1  0  0  0  0
  1  3  1  0  0  0  0
  3  4  4  0  0  0  0
  3 20  4  0  0  0  0
  4  5  4  0  0  0  0
  5  6  4  0  0  0  0
  6  7  1  0  0  0  0
  6 19  4  0  0  0  0
  7  8  1  0  0  0  0
  7 12  1  0  0  0  0
  8  9  1  0  0  0  0
  9 10  1  0  0  0  0
 10 11  1  0  0  0  0
 10 13  1  0  0  0  0
 11 12  1  0  0  0  0
 13 14  1  0  0  0  0
 14 15  4  0  0  0  0
 14 18  4  0  0  0  0
 15 16  4  0  0  0  0
 16 17  4  0  0  0  0
 17 18  4  0  0  0  0
 19 20  4  0  0  0  0
M  STY  1   1 DAT
M  SAL   1  1  17
M  SDT   1 MRV_IMPLICIT_H                                        
M  SDD   1     0.0000    0.0000    DR    ALL  0       0  
M  SED   1 IMPL_H1
M  END
>  <Name_Molregno>
650960

>  <HISTAMINE H1>
6

>  <HISTAMINE H2>
6

>  <HISTAMINE H3>
8.27

>  <HISTAMINE H4>
5.51

$$$$
676269
  Marvin  02231216192D 0   1.00000     0.00000     0

 20 21  0  0  0  0  0  0  0  0999 V2000
   -5.0401   -1.7134    0.0000 Cl  0  0  0  0  0  0  0  0  0
   -5.7546   -1.3009    0.0000 C   0  0  0  0  0  0  0  0  0
   -6.4690   -1.7134    0.0000 C   0  0  0  0  0  0  0  0  0
   -7.1835   -1.3009    0.0000 C   0  0  0  0  0  0  0  0  0
   -7.1835   -0.4759    0.0000 C   0  0  0  0  0  0  0  0  0
   -6.4690   -0.0634    0.0000 C   0  0  0  0  0  0  0  0  0
   -5.7546   -0.4759    0.0000 C   0  0  0  0  0  0  0  0  0
   -5.0401   -0.0634    0.0000 C   0  0  0  0  0  0  0  0  0
   -4.3256   -0.4759    0.0000 N   0  0  0  0  0  0  0  0  0
   -3.6112   -0.0634    0.0000 C   0  0  0  0  0  0  0  0  0
   -2.8967   -0.4759    0.0000 S   0  0  0  0  0  0  0  0  0
   -2.1822   -0.0634    0.0000 C   0  0  0  0  0  0  0  0  0
   -1.4677   -0.4759    0.0000 C   0  0  0  0  0  0  0  0  0
   -0.7533   -0.0634    0.0000 C   0  0  0  0  0  0  0  0  0
   -0.0388   -0.4759    0.0000 C   0  0  0  0  0  0  0  0  0
    0.7149   -0.1404    0.0000 N   0  0  0  0  0  0  0  0  0
    1.2669   -0.7535    0.0000 C   0  0  0  0  0  0  0  0  0
    0.8544   -1.4679    0.0000 N   0  0  0  0  0  0  0  0  0
    0.0474   -1.2964    0.0000 C   0  0  0  0  0  0  0  0  0
   -3.6112    0.7616    0.0000 N   0  0  0  0  0  0  0  0  0
  1  2  1  0  0  0  0
  2  3  4  0  0  0  0
  2  7  4  0  0  0  0
  3  4  4  0  0  0  0
  4  5  4  0  0  0  0
  5  6  4  0  0  0  0
  6  7  4  0  0  0  0
  7  8  1  0  0  0  0
  8  9  1  0  0  0  0
  9 10  1  0  0  0  0
 10 11  1  0  0  0  0
 10 20  2  0  0  0  0
 11 12  1  0  0  0  0
 12 13  1  0  0  0  0
 13 14  1  0  0  0  0
 14 15  1  0  0  0  0
 15 16  4  0  0  0  0
 15 19  4  0  0  0  0
 16 17  4  0  0  0  0
 17 18  4  0  0  0  0
 18 19  4  0  0  0  0
M  STY  1   1 DAT
M  SAL   1  1  18
M  SDT   1 MRV_IMPLICIT_H                                        
M  SDD   1     0.0000    0.0000    DR    ALL  0       0  
M  SED   1 IMPL_H1
M  END
>  <Name_Molregno>
676269

>  <HISTAMINE H3>
8.1

>  <HISTAMINE H4>
8

$$$$
676270
  Marvin  02231216192D 0   1.00000     0.00000     0

 21 22  0  0  0  0  0  0  0  0999 V2000
   -1.4606    0.3194    0.0000 S   0  0  0  0  0  0  0  0  0
   -2.1751    0.7319    0.0000 C   0  0  0  0  0  0  0  0  0
   -2.8896    0.3194    0.0000 C   0  0  0  0  0  0  0  0  0
   -3.6040    0.7319    0.0000 C   0  0  0  0  0  0  0  0  0
   -4.3185    0.3194    0.0000 C   0  0  0  0  0  0  0  0  0
   -4.4047   -0.5011    0.0000 N   0  0  0  0  0  0  0  0  0
   -5.2117   -0.6726    0.0000 C   0  0  0  0  0  0  0  0  0
   -5.6242    0.0419    0.0000 N   0  0  0  0  0  0  0  0  0
   -5.0722    0.6549    0.0000 C   0  0  0  0  0  0  0  0  0
   -0.7461    0.7319    0.0000 C   0  0  0  0  0  0  0  0  0
   -0.0317    0.3194    0.0000 N   0  0  0  0  0  0  0  0  0
    0.6828    0.7319    0.0000 C   0  0  0  0  0  0  0  0  0
    1.3973    0.3194    0.0000 C   0  0  0  0  0  0  0  0  0
    2.1117    0.7319    0.0000 C   0  0  0  0  0  0  0  0  0
    2.8262    0.3194    0.0000 C   0  0  0  0  0  0  0  0  0
    2.8262   -0.5056    0.0000 C   0  0  0  0  0  0  0  0  0
    3.5407   -0.9181    0.0000 O   0  0  0  0  0  0  0  0  0
    4.2552   -0.5056    0.0000 C   0  0  0  0  0  0  0  0  0
    2.1117   -0.9181    0.0000 C   0  0  0  0  0  0  0  0  0
    1.3973   -0.5056    0.0000 C   0  0  0  0  0  0  0  0  0
   -0.7461    1.5569    0.0000 N   0  0  0  0  0  0  0  0  0
  1  2  1  0  0  0  0
  1 10  1  0  0  0  0
  2  3  1  0  0  0  0
  3  4  1  0  0  0  0
  4  5  1  0  0  0  0
  5  6  4  0  0  0  0
  5  9  4  0  0  0  0
  6  7  4  0  0  0  0
  7  8  4  0  0  0  0
  8  9  4  0  0  0  0
 10 11  1  0  0  0  0
 10 21  2  0  0  0  0
 11 12  1  0  0  0  0
 12 13  1  0  0  0  0
 13 14  4  0  0  0  0
 13 20  4  0  0  0  0
 14 15  4  0  0  0  0
 15 16  4  0  0  0  0
 16 17  1  0  0  0  0
 16 19  4  0  0  0  0
 17 18  1  0  0  0  0
 19 20  4  0  0  0  0
M  STY  1   1 DAT
M  SAL   1  1   8
M  SDT   1 MRV_IMPLICIT_H                                        
M  SDD   1     0.0000    0.0000    DR    ALL  0       0  
M  SED   1 IMPL_H1
M  END
>  <Name_Molregno>
676270

>  <HISTAMINE H3>
8.1

>  <HISTAMINE H4>
7.9

$$$$
676271
  Marvin  02231216192D 0   1.00000     0.00000     0

 21 22  0  0  0  0  0  0  0  0999 V2000
   -1.6649    0.0163    0.0000 S   0  0  0  0  0  0  0  0  0
   -2.3793   -0.3962    0.0000 C   0  0  0  0  0  0  0  0  0
   -3.0938    0.0163    0.0000 C   0  0  0  0  0  0  0  0  0
   -3.8083   -0.3962    0.0000 C   0  0  0  0  0  0  0  0  0
   -4.5227    0.0163    0.0000 C   0  0  0  0  0  0  0  0  0
   -5.2764   -0.3193    0.0000 N   0  0  0  0  0  0  0  0  0
   -5.8284    0.2938    0.0000 C   0  0  0  0  0  0  0  0  0
   -5.4159    1.0083    0.0000 N   0  0  0  0  0  0  0  0  0
   -4.6090    0.8368    0.0000 C   0  0  0  0  0  0  0  0  0
   -0.9504   -0.3962    0.0000 C   0  0  0  0  0  0  0  0  0
   -0.2359    0.0163    0.0000 N   0  0  0  0  0  0  0  0  0
    0.4786   -0.3962    0.0000 C   0  0  0  0  0  0  0  0  0
    1.1930    0.0163    0.0000 C   0  0  0  0  0  0  0  0  0
    1.9075   -0.3962    0.0000 C   0  0  0  0  0  0  0  0  0
    2.6220    0.0163    0.0000 C   0  0  0  0  0  0  0  0  0
    3.3364   -0.3962    0.0000 C   0  0  0  0  0  0  0  0  0
    3.3364   -1.2212    0.0000 C   0  0  0  0  0  0  0  0  0
    2.6220   -1.6337    0.0000 C   0  0  0  0  0  0  0  0  0
    1.9075   -1.2212    0.0000 C   0  0  0  0  0  0  0  0  0
    4.0509   -1.6337    0.0000 C   0  0  0  0  0  0  0  0  0
   -0.9504   -1.2212    0.0000 N   0  0  0  0  0  0  0  0  0
  1  2  1  0  0  0  0
  1 10  1  0  0  0  0
  2  3  1  0  0  0  0
  3  4  1  0  0  0  0
  4  5  1  0  0  0  0
  5  6  4  0  0  0  0
  5  9  4  0  0  0  0
  6  7  4  0  0  0  0
  7  8  4  0  0  0  0
  8  9  4  0  0  0  0
 10 11  1  0  0  0  0
 10 21  2  0  0  0  0
 11 12  1  0  0  0  0
 12 13  1  0  0  0  0
 13 14  1  0  0  0  0
 14 15  4  0  0  0  0
 14 19  4  0  0  0  0
 15 16  4  0  0  0  0
 16 17  4  0  0  0  0
 17 18  4  0  0  0  0
 17 20  1  0  0  0  0
 18 19  4  0  0  0  0
M  STY  1   1 DAT
M  SAL   1  1   8
M  SDT   1 MRV_IMPLICIT_H                                        
M  SDD   1     0.0000    0.0000    DR    ALL  0       0  
M  SED   1 IMPL_H1
M  END
>  <Name_Molregno>
676271

>  <HISTAMINE H3>
7.9

>  <HISTAMINE H4>
7

$$$$
676272
  Marvin  02231216192D 0   1.00000     0.00000     0

 20 21  0  0  0  0  0  0  0  0999 V2000
   -0.1733   -2.3952    0.0000 I   0  0  0  0  0  0  0  0  0
    0.5412   -1.9827    0.0000 C   0  0  0  0  0  0  0  0  0
    0.5412   -1.1577    0.0000 C   0  0  0  0  0  0  0  0  0
    1.2557   -0.7452    0.0000 C   0  0  0  0  0  0  0  0  0
    1.9702   -1.1577    0.0000 C   0  0  0  0  0  0  0  0  0
    1.9702   -1.9827    0.0000 C   0  0  0  0  0  0  0  0  0
    1.2557   -2.3952    0.0000 C   0  0  0  0  0  0  0  0  0
    2.6846   -0.7452    0.0000 C   0  0  0  0  0  0  0  0  0
    3.3991   -1.1577    0.0000 N   0  0  0  0  0  0  0  0  0
    4.1136   -0.7452    0.0000 C   0  0  0  0  0  0  0  0  0
    4.8280   -1.1577    0.0000 S   0  0  0  0  0  0  0  0  0
    5.5425   -0.7452    0.0000 C   0  0  0  0  0  0  0  0  0
    6.2570   -1.1577    0.0000 C   0  0  0  0  0  0  0  0  0
    6.9715   -0.7452    0.0000 C   0  0  0  0  0  0  0  0  0
    7.6859   -1.1577    0.0000 C   0  0  0  0  0  0  0  0  0
    8.4396   -0.8222    0.0000 N   0  0  0  0  0  0  0  0  0
    8.9916   -1.4353    0.0000 C   0  0  0  0  0  0  0  0  0
    8.5791   -2.1497    0.0000 N   0  0  0  0  0  0  0  0  0
    7.7722   -1.9782    0.0000 C   0  0  0  0  0  0  0  0  0
    4.1136    0.0798    0.0000 N   0  0  0  0  0  0  0  0  0
  1  2  1  0  0  0  0
  2  3  4  0  0  0  0
  2  7  4  0  0  0  0
  3  4  4  0  0  0  0
  4  5  4  0  0  0  0
  5  6  4  0  0  0  0
  5  8  1  0  0  0  0
  6  7  4  0  0  0  0
  8  9  1  0  0  0  0
  9 10  1  0  0  0  0
 10 11  1  0  0  0  0
 10 20  2  0  0  0  0
 11 12  1  0  0  0  0
 12 13  1  0  0  0  0
 13 14  1  0  0  0  0
 14 15  1  0  0  0  0
 15 16  4  0  0  0  0
 15 19  4  0  0  0  0
 16 17  4  0  0  0  0
 17 18  4  0  0  0  0
 18 19  4  0  0  0  0
M  STY  1   1 DAT
M  SAL   1  1  18
M  SDT   1 MRV_IMPLICIT_H                                        
M  SDD   1     0.0000    0.0000    DR    ALL  0       0  
M  SED   1 IMPL_H1
M  END
>  <Name_Molregno>
676272

>  <HISTAMINE H3>
8.5

>  <HISTAMINE H4>
8

$$$$
676273
  Marvin  02231216192D 0   1.00000     0.00000     0

 21 22  0  0  0  0  0  0  0  0999 V2000
    0.0055    0.7460    0.0000 Cl  0  0  0  0  0  0  0  0  0
    0.7200    0.3335    0.0000 C   0  0  0  0  0  0  0  0  0
    1.4345    0.7460    0.0000 C   0  0  0  0  0  0  0  0  0
    2.1489    0.3335    0.0000 C   0  0  0  0  0  0  0  0  0
    2.1489   -0.4915    0.0000 C   0  0  0  0  0  0  0  0  0
    1.4345   -0.9040    0.0000 C   0  0  0  0  0  0  0  0  0
    0.7200   -0.4915    0.0000 C   0  0  0  0  0  0  0  0  0
    2.8634   -0.9040    0.0000 C   0  0  0  0  0  0  0  0  0
    3.5779   -0.4915    0.0000 C   0  0  0  0  0  0  0  0  0
    4.2923   -0.9040    0.0000 N   0  0  0  0  0  0  0  0  0
    5.0068   -0.4915    0.0000 C   0  0  0  0  0  0  0  0  0
    5.7213   -0.9040    0.0000 S   0  0  0  0  0  0  0  0  0
    6.4358   -0.4915    0.0000 C   0  0  0  0  0  0  0  0  0
    7.1502   -0.9040    0.0000 C   0  0  0  0  0  0  0  0  0
    7.8647   -0.4915    0.0000 C   0  0  0  0  0  0  0  0  0
    8.5792   -0.9040    0.0000 C   0  0  0  0  0  0  0  0  0
    9.3328   -0.5684    0.0000 N   0  0  0  0  0  0  0  0  0
    9.8849   -1.1815    0.0000 C   0  0  0  0  0  0  0  0  0
    9.4724   -1.8960    0.0000 N   0  0  0  0  0  0  0  0  0
    8.6654   -1.7245    0.0000 C   0  0  0  0  0  0  0  0  0
    5.0068    0.3335    0.0000 N   0  0  0  0  0  0  0  0  0
  1  2  1  0  0  0  0
  2  3  4  0  0  0  0
  2  7  4  0  0  0  0
  3  4  4  0  0  0  0
  4  5  4  0  0  0  0
  5  6  4  0  0  0  0
  5  8  1  0  0  0  0
  6  7  4  0  0  0  0
  8  9  1  0  0  0  0
  9 10  1  0  0  0  0
 10 11  1  0  0  0  0
 11 12  1  0  0  0  0
 11 21  2  0  0  0  0
 12 13  1  0  0  0  0
 13 14  1  0  0  0  0
 14 15  1  0  0  0  0
 15 16  1  0  0  0  0
 16 17  4  0  0  0  0
 16 20  4  0  0  0  0
 17 18  4  0  0  0  0
 18 19  4  0  0  0  0
 19 20  4  0  0  0  0
M  STY  1   1 DAT
M  SAL   1  1  19
M  SDT   1 MRV_IMPLICIT_H                                        
M  SDD   1     0.0000    0.0000    DR    ALL  0       0  
M  SED   1 IMPL_H1
M  END
>  <Name_Molregno>
676273

>  <HISTAMINE H3>
8

>  <HISTAMINE H4>
7.5

$$$$
676274
  Marvin  02231216192D 0   1.00000     0.00000     0

 27 29  0  0  0  0  0  0  0  0999 V2000
   -3.0200   -0.0238    0.0000 S   0  0  0  0  0  0  0  0  0
   -3.7344    0.3887    0.0000 C   0  0  0  0  0  0  0  0  0
   -4.4489   -0.0238    0.0000 C   0  0  0  0  0  0  0  0  0
   -5.1634    0.3887    0.0000 C   0  0  0  0  0  0  0  0  0
   -5.8778   -0.0238    0.0000 C   0  0  0  0  0  0  0  0  0
   -5.9641   -0.8443    0.0000 N   0  0  0  0  0  0  0  0  0
   -6.7710   -1.0158    0.0000 C   0  0  0  0  0  0  0  0  0
   -7.1835   -0.3014    0.0000 N   0  0  0  0  0  0  0  0  0
   -6.6315    0.3117    0.0000 C   0  0  0  0  0  0  0  0  0
   -2.3055    0.3887    0.0000 C   0  0  0  0  0  0  0  0  0
   -1.5910   -0.0238    0.0000 N   0  0  0  0  0  0  0  0  0
   -0.8765    0.3887    0.0000 C   0  0  0  0  0  0  0  0  0
   -0.1621   -0.0238    0.0000 C   0  0  0  0  0  0  0  0  0
    0.5524    0.3887    0.0000 C   0  0  0  0  0  0  0  0  0
    1.2669   -0.0238    0.0000 C   0  0  0  0  0  0  0  0  0
    1.9813    0.3887    0.0000 C   0  0  0  0  0  0  0  0  0
    2.6958   -0.0238    0.0000 C   0  0  0  0  0  0  0  0  0
    2.6958   -0.8488    0.0000 C   0  0  0  0  0  0  0  0  0
    1.9813   -1.2613    0.0000 C   0  0  0  0  0  0  0  0  0
    1.2669   -0.8488    0.0000 C   0  0  0  0  0  0  0  0  0
    0.5524    1.2137    0.0000 C   0  0  0  0  0  0  0  0  0
   -0.1621    1.6262    0.0000 C   0  0  0  0  0  0  0  0  0
   -0.1621    2.4512    0.0000 C   0  0  0  0  0  0  0  0  0
    0.5524    2.8637    0.0000 C   0  0  0  0  0  0  0  0  0
    1.2669    2.4512    0.0000 C   0  0  0  0  0  0  0  0  0
    1.2669    1.6262    0.0000 C   0  0  0  0  0  0  0  0  0
   -2.3055    1.2137    0.0000 N   0  0  0  0  0  0  0  0  0
  1  2  1  0  0  0  0
  1 10  1  0  0  0  0
  2  3  1  0  0  0  0
  3  4  1  0  0  0  0
  4  5  1  0  0  0  0
  5  6  4  0  0  0  0
  5  9  4  0  0  0  0
  6  7  4  0  0  0  0
  7  8  4  0  0  0  0
  8  9  4  0  0  0  0
 10 11  1  0  0  0  0
 10 27  2  0  0  0  0
 11 12  1  0  0  0  0
 12 13  1  0  0  0  0
 13 14  1  0  0  0  0
 14 15  1  0  0  0  0
 14 21  1  0  0  0  0
 15 16  4  0  0  0  0
 15 20  4  0  0  0  0
 16 17  4  0  0  0  0
 17 18  4  0  0  0  0
 18 19  4  0  0  0  0
 19 20  4  0  0  0  0
 21 22  4  0  0  0  0
 21 26  4  0  0  0  0
 22 23  4  0  0  0  0
 23 24  4  0  0  0  0
 24 25  4  0  0  0  0
 25 26  4  0  0  0  0
M  STY  1   1 DAT
M  SAL   1  1   8
M  SDT   1 MRV_IMPLICIT_H                                        
M  SDD   1     0.0000    0.0000    DR    ALL  0       0  
M  SED   1 IMPL_H1
M  END
>  <Name_Molregno>
676274

>  <HISTAMINE H3>
7.5

>  <HISTAMINE H4>
7.6

$$$$
676275
  Marvin  02231216192D 0   1.00000     0.00000     0

 19 20  0  0  0  0  0  0  0  0999 V2000
   -0.5003    0.0002    0.0000 S   0  0  0  0  0  0  0  0  0
   -1.2148    0.4127    0.0000 C   0  0  0  0  0  0  0  0  0
   -1.9293    0.0002    0.0000 C   0  0  0  0  0  0  0  0  0
   -2.6437    0.4127    0.0000 C   0  0  0  0  0  0  0  0  0
   -3.3582    0.0002    0.0000 C   0  0  0  0  0  0  0  0  0
   -3.4444   -0.8203    0.0000 N   0  0  0  0  0  0  0  0  0
   -4.2514   -0.9918    0.0000 C   0  0  0  0  0  0  0  0  0
   -4.6639   -0.2774    0.0000 N   0  0  0  0  0  0  0  0  0
   -4.1119    0.3357    0.0000 C   0  0  0  0  0  0  0  0  0
    0.2141    0.4127    0.0000 C   0  0  0  0  0  0  0  0  0
    0.9286    0.0002    0.0000 N   0  0  0  0  0  0  0  0  0
    1.6431    0.4127    0.0000 C   0  0  0  0  0  0  0  0  0
    2.3576    0.0002    0.0000 C   0  0  0  0  0  0  0  0  0
    3.0720    0.4127    0.0000 C   0  0  0  0  0  0  0  0  0
    3.7865    0.0002    0.0000 C   0  0  0  0  0  0  0  0  0
    3.7865   -0.8248    0.0000 C   0  0  0  0  0  0  0  0  0
    3.0720   -1.2373    0.0000 C   0  0  0  0  0  0  0  0  0
    2.3576   -0.8248    0.0000 C   0  0  0  0  0  0  0  0  0
    0.2141    1.2377    0.0000 N   0  0  0  0  0  0  0  0  0
  1  2  1  0  0  0  0
  1 10  1  0  0  0  0
  2  3  1  0  0  0  0
  3  4  1  0  0  0  0
  4  5  1  0  0  0  0
  5  6  4  0  0  0  0
  5  9  4  0  0  0  0
  6  7  4  0  0  0  0
  7  8  4  0  0  0  0
  8  9  4  0  0  0  0
 10 11  1  0  0  0  0
 10 19  2  0  0  0  0
 11 12  1  0  0  0  0
 12 13  1  0  0  0  0
 13 14  4  0  0  0  0
 13 18  4  0  0  0  0
 14 15  4  0  0  0  0
 15 16  4  0  0  0  0
 16 17  4  0  0  0  0
 17 18  4  0  0  0  0
M  STY  1   1 DAT
M  SAL   1  1   8
M  SDT   1 MRV_IMPLICIT_H                                        
M  SDD   1     0.0000    0.0000    DR    ALL  0       0  
M  SED   1 IMPL_H1
M  END
>  <Name_Molregno>
676275

>  <HISTAMINE H3>
8.1

>  <HISTAMINE H4>
7.6

$$$$
676276
  Marvin  02231216192D 0   1.00000     0.00000     0

 22 23  0  0  0  0  0  0  0  0999 V2000
   -2.1601    0.8140    0.0000 S   0  0  0  0  0  0  0  0  0
   -2.8746    0.4015    0.0000 C   0  0  0  0  0  0  0  0  0
   -3.5891    0.8140    0.0000 C   0  0  0  0  0  0  0  0  0
   -4.3035    0.4015    0.0000 C   0  0  0  0  0  0  0  0  0
   -5.0180    0.8140    0.0000 C   0  0  0  0  0  0  0  0  0
   -5.7717    0.4784    0.0000 N   0  0  0  0  0  0  0  0  0
   -6.3237    1.0915    0.0000 C   0  0  0  0  0  0  0  0  0
   -5.9112    1.8060    0.0000 N   0  0  0  0  0  0  0  0  0
   -5.1042    1.6344    0.0000 C   0  0  0  0  0  0  0  0  0
   -1.4457    0.4015    0.0000 C   0  0  0  0  0  0  0  0  0
   -0.7312    0.8140    0.0000 N   0  0  0  0  0  0  0  0  0
   -0.0167    0.4015    0.0000 C   0  0  0  0  0  0  0  0  0
    0.6978    0.8140    0.0000 C   0  0  0  0  0  0  0  0  0
    1.4122    0.4015    0.0000 C   0  0  0  0  0  0  0  0  0
    2.1267    0.8140    0.0000 C   0  0  0  0  0  0  0  0  0
    2.8412    0.4015    0.0000 C   0  0  0  0  0  0  0  0  0
    2.8412   -0.4235    0.0000 C   0  0  0  0  0  0  0  0  0
    3.5556   -0.8360    0.0000 O   0  0  0  0  0  0  0  0  0
    4.2701   -0.4235    0.0000 C   0  0  0  0  0  0  0  0  0
    2.1267   -0.8360    0.0000 C   0  0  0  0  0  0  0  0  0
    1.4122   -0.4235    0.0000 C   0  0  0  0  0  0  0  0  0
   -1.4457   -0.4235    0.0000 N   0  0  0  0  0  0  0  0  0
  1  2  1  0  0  0  0
  1 10  1  0  0  0  0
  2  3  1  0  0  0  0
  3  4  1  0  0  0  0
  4  5  1  0  0  0  0
  5  6  4  0  0  0  0
  5  9  4  0  0  0  0
  6  7  4  0  0  0  0
  7  8  4  0  0  0  0
  8  9  4  0  0  0  0
 10 11  1  0  0  0  0
 10 22  2  0  0  0  0
 11 12  1  0  0  0  0
 12 13  1  0  0  0  0
 13 14  1  0  0  0  0
 14 15  4  0  0  0  0
 14 21  4  0  0  0  0
 15 16  4  0  0  0  0
 16 17  4  0  0  0  0
 17 18  1  0  0  0  0
 17 20  4  0  0  0  0
 18 19  1  0  0  0  0
 20 21  4  0  0  0  0
M  STY  1   1 DAT
M  SAL   1  1   8
M  SDT   1 MRV_IMPLICIT_H                                        
M  SDD   1     0.0000    0.0000    DR    ALL  0       0  
M  SED   1 IMPL_H1
M  END
>  <Name_Molregno>
676276

>  <HISTAMINE H3>
7.7

>  <HISTAMINE H4>
6.8

$$$$
676277
  Marvin  02231216192D 0   1.00000     0.00000     0

 20 21  0  0  0  0  0  0  0  0999 V2000
   -0.1155    0.0288    0.0000 Cl  0  0  0  0  0  0  0  0  0
    0.5990   -0.3837    0.0000 C   0  0  0  0  0  0  0  0  0
    1.3135    0.0288    0.0000 C   0  0  0  0  0  0  0  0  0
    2.0279   -0.3837    0.0000 C   0  0  0  0  0  0  0  0  0
    2.0279   -1.2087    0.0000 C   0  0  0  0  0  0  0  0  0
    1.3135   -1.6212    0.0000 C   0  0  0  0  0  0  0  0  0
    0.5990   -1.2087    0.0000 C   0  0  0  0  0  0  0  0  0
    2.7424    0.0288    0.0000 C   0  0  0  0  0  0  0  0  0
    3.4569   -0.3837    0.0000 N   0  0  0  0  0  0  0  0  0
    4.1713    0.0288    0.0000 C   0  0  0  0  0  0  0  0  0
    4.8858   -0.3837    0.0000 S   0  0  0  0  0  0  0  0  0
    5.6003    0.0288    0.0000 C   0  0  0  0  0  0  0  0  0
    6.3148   -0.3837    0.0000 C   0  0  0  0  0  0  0  0  0
    7.0292    0.0288    0.0000 C   0  0  0  0  0  0  0  0  0
    7.7437   -0.3837    0.0000 C   0  0  0  0  0  0  0  0  0
    8.4974   -0.0481    0.0000 N   0  0  0  0  0  0  0  0  0
    9.0494   -0.6612    0.0000 C   0  0  0  0  0  0  0  0  0
    8.6369   -1.3757    0.0000 N   0  0  0  0  0  0  0  0  0
    7.8299   -1.2042    0.0000 C   0  0  0  0  0  0  0  0  0
    4.1713    0.8538    0.0000 N   0  0  0  0  0  0  0  0  0
  1  2  1  0  0  0  0
  2  3  4  0  0  0  0
  2  7  4  0  0  0  0
  3  4  4  0  0  0  0
  4  5  4  0  0  0  0
  4  8  1  0  0  0  0
  5  6  4  0  0  0  0
  6  7  4  0  0  0  0
  8  9  1  0  0  0  0
  9 10  1  0  0  0  0
 10 11  1  0  0  0  0
 10 20  2  0  0  0  0
 11 12  1  0  0  0  0
 12 13  1  0  0  0  0
 13 14  1  0  0  0  0
 14 15  1  0  0  0  0
 15 16  4  0  0  0  0
 15 19  4  0  0  0  0
 16 17  4  0  0  0  0
 17 18  4  0  0  0  0
 18 19  4  0  0  0  0
M  STY  1   1 DAT
M  SAL   1  1  18
M  SDT   1 MRV_IMPLICIT_H                                        
M  SDD   1     0.0000    0.0000    DR    ALL  0       0  
M  SED   1 IMPL_H1
M  END
>  <Name_Molregno>
676277

>  <HISTAMINE H3>
8.1

>  <HISTAMINE H4>
7.8

$$$$
676279
  Marvin  02231216192D 0   1.00000     0.00000     0

 20 21  0  0  0  0  0  0  0  0999 V2000
   -0.9702    0.0061    0.0000 S   0  0  0  0  0  0  0  0  0
   -1.6846    0.4186    0.0000 C   0  0  0  0  0  0  0  0  0
   -2.3991    0.0061    0.0000 C   0  0  0  0  0  0  0  0  0
   -3.1136    0.4186    0.0000 C   0  0  0  0  0  0  0  0  0
   -3.8281    0.0061    0.0000 C   0  0  0  0  0  0  0  0  0
   -3.9143   -0.8143    0.0000 N   0  0  0  0  0  0  0  0  0
   -4.7213   -0.9859    0.0000 C   0  0  0  0  0  0  0  0  0
   -5.1338   -0.2714    0.0000 N   0  0  0  0  0  0  0  0  0
   -4.5817    0.3417    0.0000 C   0  0  0  0  0  0  0  0  0
   -0.2557    0.4186    0.0000 C   0  0  0  0  0  0  0  0  0
    0.4588    0.0061    0.0000 N   0  0  0  0  0  0  0  0  0
    1.1732    0.4186    0.0000 C   0  0  0  0  0  0  0  0  0
    1.8877    0.0061    0.0000 C   0  0  0  0  0  0  0  0  0
    2.6022    0.4186    0.0000 C   0  0  0  0  0  0  0  0  0
    3.3167    0.0061    0.0000 C   0  0  0  0  0  0  0  0  0
    3.3167   -0.8189    0.0000 C   0  0  0  0  0  0  0  0  0
    4.0311   -1.2314    0.0000 F   0  0  0  0  0  0  0  0  0
    2.6022   -1.2314    0.0000 C   0  0  0  0  0  0  0  0  0
    1.8877   -0.8189    0.0000 C   0  0  0  0  0  0  0  0  0
   -0.2557    1.2436    0.0000 N   0  0  0  0  0  0  0  0  0
  1  2  1  0  0  0  0
  1 10  1  0  0  0  0
  2  3  1  0  0  0  0
  3  4  1  0  0  0  0
  4  5  1  0  0  0  0
  5  6  4  0  0  0  0
  5  9  4  0  0  0  0
  6  7  4  0  0  0  0
  7  8  4  0  0  0  0
  8  9  4  0  0  0  0
 10 11  1  0  0  0  0
 10 20  2  0  0  0  0
 11 12  1  0  0  0  0
 12 13  1  0  0  0  0
 13 14  4  0  0  0  0
 13 19  4  0  0  0  0
 14 15  4  0  0  0  0
 15 16  4  0  0  0  0
 16 17  1  0  0  0  0
 16 18  4  0  0  0  0
 18 19  4  0  0  0  0
M  STY  1   1 DAT
M  SAL   1  1   8
M  SDT   1 MRV_IMPLICIT_H                                        
M  SDD   1     0.0000    0.0000    DR    ALL  0       0  
M  SED   1 IMPL_H1
M  END
>  <Name_Molregno>
676279

>  <HISTAMINE H3>
8.3

>  <HISTAMINE H4>
7.6

$$$$
676280
  Marvin  02231216192D 0   1.00000     0.00000     0

 20 21  0  0  0  0  0  0  0  0999 V2000
   -0.9702    0.0061    0.0000 S   0  0  0  0  0  0  0  0  0
   -1.6846    0.4186    0.0000 C   0  0  0  0  0  0  0  0  0
   -2.3991    0.0061    0.0000 C   0  0  0  0  0  0  0  0  0
   -3.1136    0.4186    0.0000 C   0  0  0  0  0  0  0  0  0
   -3.8281    0.0061    0.0000 C   0  0  0  0  0  0  0  0  0
   -3.9143   -0.8143    0.0000 N   0  0  0  0  0  0  0  0  0
   -4.7213   -0.9859    0.0000 C   0  0  0  0  0  0  0  0  0
   -5.1338   -0.2714    0.0000 N   0  0  0  0  0  0  0  0  0
   -4.5817    0.3417    0.0000 C   0  0  0  0  0  0  0  0  0
   -0.2557    0.4186    0.0000 C   0  0  0  0  0  0  0  0  0
    0.4588    0.0061    0.0000 N   0  0  0  0  0  0  0  0  0
    1.1732    0.4186    0.0000 C   0  0  0  0  0  0  0  0  0
    1.8877    0.0061    0.0000 C   0  0  0  0  0  0  0  0  0
    2.6022    0.4186    0.0000 C   0  0  0  0  0  0  0  0  0
    3.3167    0.0061    0.0000 C   0  0  0  0  0  0  0  0  0
    3.3167   -0.8189    0.0000 C   0  0  0  0  0  0  0  0  0
    2.6022   -1.2314    0.0000 C   0  0  0  0  0  0  0  0  0
    1.8877   -0.8189    0.0000 C   0  0  0  0  0  0  0  0  0
    4.0311   -1.2314    0.0000 C   0  0  0  0  0  0  0  0  0
   -0.2557    1.2436    0.0000 N   0  0  0  0  0  0  0  0  0
  1  2  1  0  0  0  0
  1 10  1  0  0  0  0
  2  3  1  0  0  0  0
  3  4  1  0  0  0  0
  4  5  1  0  0  0  0
  5  6  4  0  0  0  0
  5  9  4  0  0  0  0
  6  7  4  0  0  0  0
  7  8  4  0  0  0  0
  8  9  4  0  0  0  0
 10 11  1  0  0  0  0
 10 20  2  0  0  0  0
 11 12  1  0  0  0  0
 12 13  1  0  0  0  0
 13 14  4  0  0  0  0
 13 18  4  0  0  0  0
 14 15  4  0  0  0  0
 15 16  4  0  0  0  0
 16 17  4  0  0  0  0
 16 19  1  0  0  0  0
 17 18  4  0  0  0  0
M  STY  1   1 DAT
M  SAL   1  1   8
M  SDT   1 MRV_IMPLICIT_H                                        
M  SDD   1     0.0000    0.0000    DR    ALL  0       0  
M  SED   1 IMPL_H1
M  END
>  <Name_Molregno>
676280

>  <HISTAMINE H3>
8.2

>  <HISTAMINE H4>
7.6

$$$$
676281
  Marvin  02231216192D 0   1.00000     0.00000     0

 20 21  0  0  0  0  0  0  0  0999 V2000
   -1.1789    0.0037    0.0000 S   0  0  0  0  0  0  0  0  0
   -1.8934   -0.4088    0.0000 C   0  0  0  0  0  0  0  0  0
   -2.6078    0.0037    0.0000 C   0  0  0  0  0  0  0  0  0
   -3.3223   -0.4088    0.0000 C   0  0  0  0  0  0  0  0  0
   -4.0368    0.0037    0.0000 C   0  0  0  0  0  0  0  0  0
   -4.7904   -0.3319    0.0000 N   0  0  0  0  0  0  0  0  0
   -5.3425    0.2812    0.0000 C   0  0  0  0  0  0  0  0  0
   -4.9300    0.9957    0.0000 N   0  0  0  0  0  0  0  0  0
   -4.1230    0.8242    0.0000 C   0  0  0  0  0  0  0  0  0
   -0.4644   -0.4088    0.0000 C   0  0  0  0  0  0  0  0  0
    0.2501    0.0037    0.0000 N   0  0  0  0  0  0  0  0  0
    0.9645   -0.4088    0.0000 C   0  0  0  0  0  0  0  0  0
    1.6790    0.0037    0.0000 C   0  0  0  0  0  0  0  0  0
    2.3935   -0.4088    0.0000 C   0  0  0  0  0  0  0  0  0
    3.1079    0.0037    0.0000 C   0  0  0  0  0  0  0  0  0
    3.8224   -0.4088    0.0000 C   0  0  0  0  0  0  0  0  0
    3.8224   -1.2338    0.0000 C   0  0  0  0  0  0  0  0  0
    3.1079   -1.6463    0.0000 C   0  0  0  0  0  0  0  0  0
    2.3935   -1.2338    0.0000 C   0  0  0  0  0  0  0  0  0
   -0.4644   -1.2338    0.0000 N   0  0  0  0  0  0  0  0  0
  1  2  1  0  0  0  0
  1 10  1  0  0  0  0
  2  3  1  0  0  0  0
  3  4  1  0  0  0  0
  4  5  1  0  0  0  0
  5  6  4  0  0  0  0
  5  9  4  0  0  0  0
  6  7  4  0  0  0  0
  7  8  4  0  0  0  0
  8  9  4  0  0  0  0
 10 11  1  0  0  0  0
 10 20  2  0  0  0  0
 11 12  1  0  0  0  0
 12 13  1  0  0  0  0
 13 14  1  0  0  0  0
 14 15  4  0  0  0  0
 14 19  4  0  0  0  0
 15 16  4  0  0  0  0
 16 17  4  0  0  0  0
 17 18  4  0  0  0  0
 18 19  4  0  0  0  0
M  STY  1   1 DAT
M  SAL   1  1   8
M  SDT   1 MRV_IMPLICIT_H                                        
M  SDD   1     0.0000    0.0000    DR    ALL  0       0  
M  SED   1 IMPL_H1
M  END
>  <Name_Molregno>
676281

>  <HISTAMINE H3>
7.7

>  <HISTAMINE H4>
7.2

$$$$
676282
  Marvin  02231216192D 0   1.00000     0.00000     0

 21 22  0  0  0  0  0  0  0  0999 V2000
   -1.8634   -0.0023    0.0000 S   0  0  0  0  0  0  0  0  0
   -2.5778    0.4102    0.0000 C   0  0  0  0  0  0  0  0  0
   -3.2923   -0.0023    0.0000 C   0  0  0  0  0  0  0  0  0
   -4.0068    0.4102    0.0000 C   0  0  0  0  0  0  0  0  0
   -4.7213   -0.0023    0.0000 C   0  0  0  0  0  0  0  0  0
   -4.8075   -0.8228    0.0000 N   0  0  0  0  0  0  0  0  0
   -5.6145   -0.9943    0.0000 C   0  0  0  0  0  0  0  0  0
   -6.0270   -0.2798    0.0000 N   0  0  0  0  0  0  0  0  0
   -5.4749    0.3333    0.0000 C   0  0  0  0  0  0  0  0  0
   -1.1489    0.4102    0.0000 C   0  0  0  0  0  0  0  0  0
   -0.4344   -0.0023    0.0000 N   0  0  0  0  0  0  0  0  0
    0.2800    0.4102    0.0000 C   0  0  0  0  0  0  0  0  0
    0.9945   -0.0023    0.0000 C   0  0  0  0  0  0  0  0  0
    1.7090    0.4102    0.0000 C   0  0  0  0  0  0  0  0  0
    2.4235   -0.0023    0.0000 C   0  0  0  0  0  0  0  0  0
    3.1379    0.4102    0.0000 C   0  0  0  0  0  0  0  0  0
    3.8524   -0.0023    0.0000 C   0  0  0  0  0  0  0  0  0
    3.8524   -0.8273    0.0000 C   0  0  0  0  0  0  0  0  0
    3.1379   -1.2398    0.0000 C   0  0  0  0  0  0  0  0  0
    2.4235   -0.8273    0.0000 C   0  0  0  0  0  0  0  0  0
   -1.1489    1.2352    0.0000 N   0  0  0  0  0  0  0  0  0
  1  2  1  0  0  0  0
  1 10  1  0  0  0  0
  2  3  1  0  0  0  0
  3  4  1  0  0  0  0
  4  5  1  0  0  0  0
  5  6  4  0  0  0  0
  5  9  4  0  0  0  0
  6  7  4  0  0  0  0
  7  8  4  0  0  0  0
  8  9  4  0  0  0  0
 10 11  1  0  0  0  0
 10 21  2  0  0  0  0
 11 12  1  0  0  0  0
 12 13  1  0  0  0  0
 13 14  1  0  0  0  0
 14 15  1  0  0  0  0
 15 16  4  0  0  0  0
 15 20  4  0  0  0  0
 16 17  4  0  0  0  0
 17 18  4  0  0  0  0
 18 19  4  0  0  0  0
 19 20  4  0  0  0  0
M  STY  1   1 DAT
M  SAL   1  1   8
M  SDT   1 MRV_IMPLICIT_H                                        
M  SDD   1     0.0000    0.0000    DR    ALL  0       0  
M  SED   1 IMPL_H1
M  END
>  <Name_Molregno>
676282

>  <HISTAMINE H3>
8

>  <HISTAMINE H4>
7.3

$$$$
676283
  Marvin  02231216192D 0   1.00000     0.00000     0

 21 22  0  0  0  0  0  0  0  0999 V2000
   -0.1150   -0.0143    0.0000 Cl  0  0  0  0  0  0  0  0  0
    0.5994   -0.4268    0.0000 C   0  0  0  0  0  0  0  0  0
    1.3139   -0.0143    0.0000 C   0  0  0  0  0  0  0  0  0
    2.0284   -0.4268    0.0000 C   0  0  0  0  0  0  0  0  0
    2.0284   -1.2518    0.0000 C   0  0  0  0  0  0  0  0  0
    1.3139   -1.6643    0.0000 C   0  0  0  0  0  0  0  0  0
    0.5994   -1.2518    0.0000 C   0  0  0  0  0  0  0  0  0
   -0.1150   -1.6643    0.0000 Cl  0  0  0  0  0  0  0  0  0
    2.7428   -0.0143    0.0000 C   0  0  0  0  0  0  0  0  0
    3.4573   -0.4268    0.0000 N   0  0  0  0  0  0  0  0  0
    4.1718   -0.0143    0.0000 C   0  0  0  0  0  0  0  0  0
    4.8863   -0.4268    0.0000 S   0  0  0  0  0  0  0  0  0
    5.6007   -0.0143    0.0000 C   0  0  0  0  0  0  0  0  0
    6.3152   -0.4268    0.0000 C   0  0  0  0  0  0  0  0  0
    7.0297   -0.0143    0.0000 C   0  0  0  0  0  0  0  0  0
    7.7441   -0.4268    0.0000 C   0  0  0  0  0  0  0  0  0
    8.4978   -0.0913    0.0000 N   0  0  0  0  0  0  0  0  0
    9.0499   -0.7044    0.0000 C   0  0  0  0  0  0  0  0  0
    8.6374   -1.4188    0.0000 N   0  0  0  0  0  0  0  0  0
    7.8304   -1.2473    0.0000 C   0  0  0  0  0  0  0  0  0
    4.1718    0.8107    0.0000 N   0  0  0  0  0  0  0  0  0
  1  2  1  0  0  0  0
  2  3  4  0  0  0  0
  2  7  4  0  0  0  0
  3  4  4  0  0  0  0
  4  5  4  0  0  0  0
  4  9  1  0  0  0  0
  5  6  4  0  0  0  0
  6  7  4  0  0  0  0
  7  8  1  0  0  0  0
  9 10  1  0  0  0  0
 10 11  1  0  0  0  0
 11 12  1  0  0  0  0
 11 21  2  0  0  0  0
 12 13  1  0  0  0  0
 13 14  1  0  0  0  0
 14 15  1  0  0  0  0
 15 16  1  0  0  0  0
 16 17  4  0  0  0  0
 16 20  4  0  0  0  0
 17 18  4  0  0  0  0
 18 19  4  0  0  0  0
 19 20  4  0  0  0  0
M  STY  1   1 DAT
M  SAL   1  1  19
M  SDT   1 MRV_IMPLICIT_H                                        
M  SDD   1     0.0000    0.0000    DR    ALL  0       0  
M  SED   1 IMPL_H1
M  END
>  <Name_Molregno>
676283

>  <HISTAMINE H3>
8.2

>  <HISTAMINE H4>
8.8

$$$$
5-HT-N-ACETYL
  Marvin  02231216192D 0   1.00000     0.00000     0

 19 20  0  0  1  0  0  0  0  0999 V2000
    0.4065   -1.6301    0.0000 Cl  0  0  0  0  0  0  0  0  0
    1.1210   -1.2176    0.0000 C   0  0  0  0  0  0  0  0  0
    1.1210   -0.3926    0.0000 C   0  0  0  0  0  0  0  0  0
    1.8355    0.0199    0.0000 C   0  0  0  0  0  0  0  0  0
    2.5499   -0.3926    0.0000 C   0  0  0  0  0  0  0  0  0
    2.5499   -1.2176    0.0000 C   0  0  0  0  0  0  0  0  0
    1.8355   -1.6301    0.0000 C   0  0  0  0  0  0  0  0  0
    3.2644    0.0199    0.0000 C   0  0  0  0  0  0  0  0  0
    3.9789   -0.3926    0.0000 C   0  0  0  0  0  0  0  0  0
    4.6934    0.0199    0.0000 C   0  0  0  0  0  0  0  0  0
    5.4078   -0.3926    0.0000 N   0  0  0  0  0  0  0  0  0
    6.1223    0.0199    0.0000 C   0  0  0  0  0  0  0  0  0
    5.4078   -1.2176    0.0000 C   0  0  0  0  0  0  0  0  0
    3.2644    0.8449    0.0000 C   0  0  0  0  0  0  0  0  0
    2.5499    1.2574    0.0000 N   0  0  0  0  0  0  0  0  0
    2.5499    2.0824    0.0000 C   0  0  0  0  0  0  0  0  0
    3.2644    2.4949    0.0000 C   0  0  0  0  0  0  0  0  0
    3.9789    2.0824    0.0000 C   0  0  0  0  0  0  0  0  0
    3.9789    1.2574    0.0000 C   0  0  0  0  0  0  0  0  0
  1  2  1  0  0  0  0
  2  3  4  0  0  0  0
  2  7  4  0  0  0  0
  3  4  4  0  0  0  0
  4  5  4  0  0  0  0
  5  6  4  0  0  0  0
  5  8  1  0  0  0  0
  6  7  4  0  0  0  0
  8  9  1  0  0  0  0
  8 14  1  0  0  0  0
  9 10  1  0  0  0  0
 10 11  1  0  0  0  0
 11 12  1  0  0  0  0
 11 13  1  0  0  0  0
 14 15  4  0  0  0  0
 14 19  4  0  0  0  0
 15 16  4  0  0  0  0
 16 17  4  0  0  0  0
 17 18  4  0  0  0  0
 18 19  4  0  0  0  0
M  END
>  <Name_Molregno>
5-HT-N-ACETYL

>  <5-HT2A>
5

>  <5-HT2C>
5

>  <HISTAMINE H1>
8.28

>  <HISTAMINE H4>
5.54

$$$$
9-OH-risperidone
  Marvin  02231216192D 0   1.00000     0.00000     0

 31 35  0  0  1  0  0  0  0  0999 V2000
    1.7758   -2.6889    0.0000 F   0  0  0  0  0  0  0  0  0
    2.0308   -1.9043    0.0000 C   0  0  0  0  0  0  0  0  0
    1.4788   -1.2912    0.0000 C   0  0  0  0  0  0  0  0  0
    1.7337   -0.5066    0.0000 C   0  0  0  0  0  0  0  0  0
    1.3212    0.2079    0.0000 O   0  0  0  0  0  0  0  0  0
    1.8732    0.8210    0.0000 N   0  0  0  0  0  0  0  0  0
    2.6269    0.4854    0.0000 C   0  0  0  0  0  0  0  0  0
    2.5407   -0.3350    0.0000 C   0  0  0  0  0  0  0  0  0
    3.0927   -0.9481    0.0000 C   0  0  0  0  0  0  0  0  0
    2.8378   -1.7327    0.0000 C   0  0  0  0  0  0  0  0  0
    3.3414    0.8979    0.0000 C   0  0  0  0  0  0  0  0  0
    3.3414    1.7229    0.0000 C   0  0  0  0  0  0  0  0  0
    4.0558    2.1354    0.0000 C   0  0  0  0  0  0  0  0  0
    4.7703    1.7229    0.0000 N   0  0  0  0  0  0  0  0  0
    4.7703    0.8979    0.0000 C   0  0  0  0  0  0  0  0  0
    4.0558    0.4854    0.0000 C   0  0  0  0  0  0  0  0  0
    5.4848    2.1354    0.0000 C   0  0  0  0  0  0  0  0  0
    6.1993    1.7229    0.0000 C   0  0  0  0  0  0  0  0  0
    6.9137    2.1354    0.0000 C   0  0  0  0  0  0  0  0  0
    7.6282    1.7229    0.0000 C   0  0  0  0  0  0  0  0  0
    7.6282    0.8979    0.0000 O   0  0  0  0  0  0  0  0  0
    8.3427    2.1354    0.0000 N   0  0  0  0  0  0  0  0  0
    8.3427    2.9604    0.0000 C   0  0  0  0  0  0  0  0  0
    7.6282    3.3729    0.0000 N   0  0  0  0  0  0  0  0  0
    6.9137    2.9604    0.0000 C   0  0  0  0  0  0  0  0  0
    6.1993    3.3729    0.0000 C   0  0  0  0  0  0  0  0  0
    9.0571    3.3729    0.0000 C   0  0  0  0  0  0  0  0  0
    9.0571    4.1979    0.0000 O   0  0  0  0  0  0  0  0  0
    9.7716    2.9604    0.0000 C   0  0  0  0  0  0  0  0  0
    9.7716    2.1354    0.0000 C   0  0  0  0  0  0  0  0  0
    9.0571    1.7229    0.0000 C   0  0  0  0  0  0  0  0  0
  1  2  1  0  0  0  0
  2  3  4  0  0  0  0
  2 10  4  0  0  0  0
  3  4  4  0  0  0  0
  4  5  4  0  0  0  0
  4  8  4  0  0  0  0
  5  6  4  0  0  0  0
  6  7  4  0  0  0  0
  7  8  4  0  0  0  0
  7 11  1  0  0  0  0
  8  9  4  0  0  0  0
  9 10  4  0  0  0  0
 11 12  1  0  0  0  0
 11 16  1  0  0  0  0
 12 13  1  0  0  0  0
 13 14  1  0  0  0  0
 14 15  1  0  0  0  0
 14 17  1  0  0  0  0
 15 16  1  0  0  0  0
 17 18  1  0  0  0  0
 18 19  1  0  0  0  0
 19 20  1  0  0  0  0
 19 25  2  0  0  0  0
 20 21  2  0  0  0  0
 20 22  1  0  0  0  0
 22 23  1  0  0  0  0
 22 31  1  0  0  0  0
 23 24  2  0  0  0  0
 23 27  1  0  0  0  0
 24 25  1  0  0  0  0
 25 26  1  0  0  0  0
 27 28  1  0  0  0  0
 27 29  1  0  0  0  0
 29 30  1  0  0  0  0
 30 31  1  0  0  0  0
M  END
>  <Name_Molregno>
9-OH-risperidone

>  <5-HT1A>
6.24

>  <5-HT1B>
7.51

>  <5-HT1D>
7.44

>  <5-HT1E>
5.49

>  <5-HT2A>
9

>  <5-HT2C>
7.32

>  <5-HT3>
5

>  <5-HT5>
6.56

>  <5-HT6>
5.62

>  <5-HT7>
8.57

>  <Alpha-1A>
8.6

>  <Alpha-1B>
9.15

>  <Alpha-2A>
7.92

>  <Alpha-2B>
7.63

>  <Alpha-2C>
8.2

>  <Beta-1>
5.15

>  <Beta-2>
5.15

>  <DOPAMINE D1>
7.39

>  <DOPAMINE D2>
8.61

>  <DOPAMINE D3>
9.07

>  <DOPAMINE D4>
7.4

>  <DOPAMINE D5>
7.54

>  <Dopamine transporter>
5

>  <HISTAMINE H1>
8.07

>  <HISTAMINE H2>
6.92

>  <HISTAMINE H4>
5.06

>  <Muscarinic acetylcholine receptor M1>
5

>  <Muscarinic acetylcholine receptor M2>
5

>  <Muscarinic acetylcholine receptor M3>
5

>  <Muscarinic acetylcholine receptor M4>
5

>  <Muscarinic acetylcholine receptor M5>
5

>  <Norepinephrine transporter>
5

>  <Serotonin transporter>
5.71

$$$$
alpha-methylhistamine
  Marvin  02231216192D 0   1.00000     0.00000     0

  9  9  0  0  1  0  0  0  0  0999 V2000
    0.7212   -1.2558    0.0000 N   0  0  0  0  0  0  0  0  0
    0.4663   -2.0404    0.0000 C   0  0  0  0  0  0  0  0  0
   -0.3587   -2.0404    0.0000 N   0  0  0  0  0  0  0  0  0
   -0.6137   -1.2558    0.0000 C   0  0  0  0  0  0  0  0  0
    0.0538   -0.7708    0.0000 C   0  0  0  0  0  0  0  0  0
    0.0538    0.0542    0.0000 C   0  0  0  0  0  0  0  0  0
    0.7682    0.4667    0.0000 C   0  0  0  0  0  0  0  0  0
    0.7682    1.2917    0.0000 N   0  0  0  0  0  0  0  0  0
    1.4827    0.0542    0.0000 C   0  0  0  0  0  0  0  0  0
  1  2  4  0  0  0  0
  1  5  4  0  0  0  0
  2  3  4  0  0  0  0
  3  4  4  0  0  0  0
  4  5  4  0  0  0  0
  5  6  1  0  0  0  0
  6  7  1  0  0  0  0
  7  8  1  0  0  0  0
  7  9  1  0  0  0  0
M  STY  1   1 DAT
M  SAL   1  1   1
M  SDT   1 MRV_IMPLICIT_H                                        
M  SDD   1     0.0000    0.0000    DR    ALL  0       0  
M  SED   1 IMPL_H1
M  END
>  <Name_Molregno>
alpha-methylhistamine

>  <HISTAMINE H3>
9.07

>  <HISTAMINE H4>
6.35

$$$$
AMITRIPTYLINE
  Marvin  02231216192D 0   1.00000     0.00000     0

 21 23  0  0  0  0  0  0  0  0999 V2000
    0.4326    2.9044    0.0000 N   0  0  0  0  0  0  0  0  0
    1.1470    2.4919    0.0000 C   0  0  0  0  0  0  0  0  0
    1.8615    2.9044    0.0000 C   0  0  0  0  0  0  0  0  0
    2.5760    2.4919    0.0000 C   0  0  0  0  0  0  0  0  0
    2.5760    1.6669    0.0000 C   0  0  0  0  0  0  0  0  0
    3.3193    1.3089    0.0000 C   0  0  0  0  0  0  0  0  0
    3.5029    0.5046    0.0000 C   0  0  0  0  0  0  0  0  0
    2.9885   -0.1404    0.0000 C   0  0  0  0  0  0  0  0  0
    2.1635   -0.1404    0.0000 C   0  0  0  0  0  0  0  0  0
    1.6491    0.5046    0.0000 C   0  0  0  0  0  0  0  0  0
    1.8327    1.3089    0.0000 C   0  0  0  0  0  0  0  0  0
    1.2279    1.8701    0.0000 C   0  0  0  0  0  0  0  0  0
    0.4396    1.6269    0.0000 C   0  0  0  0  0  0  0  0  0
    0.2560    0.8226    0.0000 C   0  0  0  0  0  0  0  0  0
    0.8608    0.2615    0.0000 C   0  0  0  0  0  0  0  0  0
    4.2912    0.2615    0.0000 C   0  0  0  0  0  0  0  0  0
    4.8960    0.8226    0.0000 C   0  0  0  0  0  0  0  0  0
    4.7124    1.6269    0.0000 C   0  0  0  0  0  0  0  0  0
    3.9241    1.8701    0.0000 C   0  0  0  0  0  0  0  0  0
   -0.2819    2.4919    0.0000 C   0  0  0  0  0  0  0  0  0
    0.4326    3.7294    0.0000 C   0  0  0  0  0  0  0  0  0
  1  2  1  0  0  0  0
  1 20  1  0  0  0  0
  1 21  1  0  0  0  0
  2  3  1  0  0  0  0
  3  4  1  0  0  0  0
  4  5  2  0  0  0  0
  5  6  1  0  0  0  0
  5 11  1  0  0  0  0
  6  7  4  0  0  0  0
  6 19  4  0  0  0  0
  7  8  1  0  0  0  0
  7 16  4  0  0  0  0
  8  9  1  0  0  0  0
  9 10  1  0  0  0  0
 10 11  4  0  0  0  0
 10 15  4  0  0  0  0
 11 12  4  0  0  0  0
 12 13  4  0  0  0  0
 13 14  4  0  0  0  0
 14 15  4  0  0  0  0
 16 17  4  0  0  0  0
 17 18  4  0  0  0  0
 18 19  4  0  0  0  0
M  END
>  <Name_Molregno>
AMITRIPTYLINE

>  <5-HT1A>
6.35

>  <5-HT2A>
7.64

>  <5-HT6>
7.02

>  <DOPAMINE D1>
7.05

>  <DOPAMINE D2>
6.42

>  <DOPAMINE D3>
6.69

>  <DOPAMINE D5>
6.77

>  <Dopamine transporter>
5.4

>  <HISTAMINE H1>
9.08

>  <HISTAMINE H3>
6

>  <HISTAMINE H4>
7.47

>  <Muscarinic acetylcholine receptor M1>
7.89

>  <Muscarinic acetylcholine receptor M2>
7.93

>  <Muscarinic acetylcholine receptor M3>
7.65

>  <Muscarinic acetylcholine receptor M4>
8.14

>  <Muscarinic acetylcholine receptor M5>
7.71

>  <Norepinephrine transporter>
7.45

>  <Serotonin transporter>
8

$$$$
ARIPIPRAZOLE
  Marvin  02231216192D 0   1.00000     0.00000     0

 30 33  0  0  0  0  0  0  0  0999 V2000
   -8.7485    0.0493    0.0000 Cl  0  0  0  0  0  0  0  0  0
   -8.7485   -0.7757    0.0000 C   0  0  0  0  0  0  0  0  0
   -8.0340   -1.1882    0.0000 C   0  0  0  0  0  0  0  0  0
   -7.3195   -0.7757    0.0000 N   0  0  0  0  0  0  0  0  0
   -7.3195    0.0493    0.0000 C   0  0  0  0  0  0  0  0  0
   -6.6051    0.4618    0.0000 C   0  0  0  0  0  0  0  0  0
   -5.8906    0.0493    0.0000 N   0  0  0  0  0  0  0  0  0
   -5.8906   -0.7757    0.0000 C   0  0  0  0  0  0  0  0  0
   -6.6051   -1.1882    0.0000 C   0  0  0  0  0  0  0  0  0
   -5.1761    0.4618    0.0000 C   0  0  0  0  0  0  0  0  0
   -4.4616    0.0493    0.0000 C   0  0  0  0  0  0  0  0  0
   -3.7472    0.4618    0.0000 C   0  0  0  0  0  0  0  0  0
   -3.0327    0.0493    0.0000 C   0  0  0  0  0  0  0  0  0
   -2.3182    0.4618    0.0000 O   0  0  0  0  0  0  0  0  0
   -1.6038    0.0493    0.0000 C   0  0  0  0  0  0  0  0  0
   -0.8893    0.4618    0.0000 C   0  0  0  0  0  0  0  0  0
   -0.1748    0.0493    0.0000 C   0  0  0  0  0  0  0  0  0
    0.5397    0.4618    0.0000 N   0  0  0  0  0  0  0  0  0
    1.2541    0.0493    0.0000 C   0  0  0  0  0  0  0  0  0
    1.9686    0.4618    0.0000 O   0  0  0  0  0  0  0  0  0
    1.2541   -0.7757    0.0000 C   0  0  0  0  0  0  0  0  0
    0.5397   -1.1882    0.0000 C   0  0  0  0  0  0  0  0  0
   -0.1748   -0.7757    0.0000 C   0  0  0  0  0  0  0  0  0
   -0.8893   -1.1882    0.0000 C   0  0  0  0  0  0  0  0  0
   -1.6038   -0.7757    0.0000 C   0  0  0  0  0  0  0  0  0
   -8.0340   -2.0132    0.0000 C   0  0  0  0  0  0  0  0  0
   -8.7485   -2.4257    0.0000 C   0  0  0  0  0  0  0  0  0
   -9.4629   -2.0132    0.0000 C   0  0  0  0  0  0  0  0  0
   -9.4629   -1.1882    0.0000 C   0  0  0  0  0  0  0  0  0
  -10.1774   -0.7757    0.0000 Cl  0  0  0  0  0  0  0  0  0
  1  2  1  0  0  0  0
  2  3  4  0  0  0  0
  2 29  4  0  0  0  0
  3  4  1  0  0  0  0
  3 26  4  0  0  0  0
  4  5  1  0  0  0  0
  4  9  1  0  0  0  0
  5  6  1  0  0  0  0
  6  7  1  0  0  0  0
  7  8  1  0  0  0  0
  7 10  1  0  0  0  0
  8  9  1  0  0  0  0
 10 11  1  0  0  0  0
 11 12  1  0  0  0  0
 12 13  1  0  0  0  0
 13 14  1  0  0  0  0
 14 15  1  0  0  0  0
 15 16  4  0  0  0  0
 15 25  4  0  0  0  0
 16 17  4  0  0  0  0
 17 18  1  0  0  0  0
 17 23  4  0  0  0  0
 18 19  1  0  0  0  0
 19 20  2  0  0  0  0
 19 21  1  0  0  0  0
 21 22  1  0  0  0  0
 22 23  1  0  0  0  0
 23 24  4  0  0  0  0
 24 25  4  0  0  0  0
 26 27  4  0  0  0  0
 27 28  4  0  0  0  0
 28 29  4  0  0  0  0
 29 30  1  0  0  0  0
M  END
>  <Name_Molregno>
ARIPIPRAZOLE

>  <5-HT1A>
8.21

>  <5-HT1B>
6.08

>  <5-HT1D>
7.18

>  <5-HT1E>
5.1

>  <5-HT2A>
7.85

>  <5-HT2C>
7.48

>  <5-HT3>
6.25

>  <5-HT5>
5.91

>  <5-HT6>
6.32

>  <5-HT7>
7.81

>  <Alpha-1A>
7.59

>  <Alpha-1B>
7.46

>  <Alpha-2A>
7.13

>  <Alpha-2B>
6.99

>  <Alpha-2C>
7.42

>  <Beta-1>
6.85

>  <Beta-2>
6.79

>  <DOPAMINE D1>
6.06

>  <DOPAMINE D2>
8.72

>  <DOPAMINE D3>
8.45

>  <DOPAMINE D4>
6.51

>  <DOPAMINE D5>
5.69

>  <Dopamine transporter>
5.49

>  <HISTAMINE H1>
7.56

>  <HISTAMINE H2>
5

>  <HISTAMINE H4>
5

>  <Muscarinic acetylcholine receptor M1>
5.17

>  <Muscarinic acetylcholine receptor M2>
5.45

>  <Muscarinic acetylcholine receptor M3>
5.33

>  <Muscarinic acetylcholine receptor M4>
5.82

>  <Muscarinic acetylcholine receptor M5>
5.63

>  <Norepinephrine transporter>
5.68

>  <Serotonin transporter>
6.48

$$$$
Burimamide
  Marvin  02231216192D 0   1.00000     0.00000     0

 14 14  0  0  0  0  0  0  0  0999 V2000
    0.7471   -1.0385    0.0000 S   0  0  0  0  0  0  0  0  0
    0.7471   -1.8635    0.0000 C   0  0  0  0  0  0  0  0  0
    0.0326   -2.2760    0.0000 N   0  0  0  0  0  0  0  0  0
   -0.6819   -1.8635    0.0000 C   0  0  0  0  0  0  0  0  0
   -1.3964   -2.2760    0.0000 C   0  0  0  0  0  0  0  0  0
   -2.1108   -1.8635    0.0000 C   0  0  0  0  0  0  0  0  0
   -2.8253   -2.2760    0.0000 C   0  0  0  0  0  0  0  0  0
   -3.5398   -1.8635    0.0000 C   0  0  0  0  0  0  0  0  0
   -4.2934   -2.1990    0.0000 N   0  0  0  0  0  0  0  0  0
   -4.8455   -1.5859    0.0000 C   0  0  0  0  0  0  0  0  0
   -4.4330   -0.8715    0.0000 N   0  0  0  0  0  0  0  0  0
   -3.6260   -1.0430    0.0000 C   0  0  0  0  0  0  0  0  0
    1.4615   -2.2760    0.0000 N   0  0  0  0  0  0  0  0  0
    2.1760   -1.8635    0.0000 C   0  0  0  0  0  0  0  0  0
  1  2  2  0  0  0  0
  2  3  1  0  0  0  0
  2 13  1  0  0  0  0
  3  4  1  0  0  0  0
  4  5  1  0  0  0  0
  5  6  1  0  0  0  0
  6  7  1  0  0  0  0
  7  8  1  0  0  0  0
  8  9  4  0  0  0  0
  8 12  4  0  0  0  0
  9 10  4  0  0  0  0
 10 11  4  0  0  0  0
 11 12  4  0  0  0  0
 13 14  1  0  0  0  0
M  STY  1   1 DAT
M  SAL   1  1   9
M  SDT   1 MRV_IMPLICIT_H                                        
M  SDD   1     0.0000    0.0000    DR    ALL  0       0  
M  SED   1 IMPL_H1
M  END
>  <Name_Molregno>
Burimamide

>  <HISTAMINE H3>
7.09

>  <HISTAMINE H4>
6.74

$$$$
Cathinone
  Marvin  02231216192D 0   1.00000     0.00000     0

 11 11  0  0  1  0  0  0  0  0999 V2000
    1.9974    0.2298    0.0000 O   0  0  0  0  0  0  0  0  0
    1.2829   -0.1827    0.0000 C   0  0  0  0  0  0  0  0  0
    0.5684    0.2298    0.0000 C   0  0  0  0  0  0  0  0  0
    0.5684    1.0548    0.0000 N   0  0  0  0  0  0  0  0  0
   -0.1461   -0.1827    0.0000 C   0  0  0  0  0  0  0  0  0
    1.2829   -1.0077    0.0000 C   0  0  0  0  0  0  0  0  0
    1.9974   -1.4202    0.0000 C   0  0  0  0  0  0  0  0  0
    1.9974   -2.2452    0.0000 C   0  0  0  0  0  0  0  0  0
    1.2829   -2.6577    0.0000 C   0  0  0  0  0  0  0  0  0
    0.5684   -2.2452    0.0000 C   0  0  0  0  0  0  0  0  0
    0.5684   -1.4202    0.0000 C   0  0  0  0  0  0  0  0  0
  1  2  2  0  0  0  0
  2  3  1  0  0  0  0
  2  6  1  0  0  0  0
  3  4  1  0  0  0  0
  3  5  1  0  0  0  0
  6  7  4  0  0  0  0
  6 11  4  0  0  0  0
  7  8  4  0  0  0  0
  8  9  4  0  0  0  0
  9 10  4  0  0  0  0
 10 11  4  0  0  0  0
M  END
>  <Name_Molregno>
Cathinone

>  <5-HT1A>
5

>  <5-HT1B>
5

>  <5-HT1D>
5

>  <5-HT1E>
5

>  <5-HT3>
5

>  <5-HT5>
5

>  <5-HT6>
5

>  <5-HT7>
5.57

>  <Alpha-1A>
5

>  <Alpha-1B>
5

>  <Alpha-2A>
5.17

>  <Alpha-2B>
6.04

>  <Alpha-2C>
6.12

>  <Beta-1>
5

>  <Beta-2>
5

>  <DOPAMINE D1>
5

>  <DOPAMINE D2>
5

>  <DOPAMINE D4>
5

>  <DOPAMINE D5>
5

>  <Dopamine transporter>
6.37

>  <HISTAMINE H1>
5

>  <HISTAMINE H2>
5

>  <HISTAMINE H4>
5

>  <Muscarinic acetylcholine receptor M1>
5

>  <Muscarinic acetylcholine receptor M2>
5

>  <Muscarinic acetylcholine receptor M3>
5

>  <Muscarinic acetylcholine receptor M4>
5

>  <Muscarinic acetylcholine receptor M5>
5

>  <Norepinephrine transporter>
6.76

>  <Serotonin transporter>
5.32

$$$$
CHLORPROMAZINE
  Marvin  02231216192D 0   1.00000     0.00000     0

 21 23  0  0  0  0  0  0  0  0999 V2000
   -1.3730   -3.5598    0.0000 Cl  0  0  0  0  0  0  0  0  0
   -2.0875   -3.1473    0.0000 C   0  0  0  0  0  0  0  0  0
   -2.0875   -2.3223    0.0000 C   0  0  0  0  0  0  0  0  0
   -2.8019   -1.9098    0.0000 C   0  0  0  0  0  0  0  0  0
   -2.8019   -1.0848    0.0000 N   0  0  0  0  0  0  0  0  0
   -3.5164   -0.6723    0.0000 C   0  0  0  0  0  0  0  0  0
   -4.2309   -1.0848    0.0000 C   0  0  0  0  0  0  0  0  0
   -4.2309   -1.9098    0.0000 S   0  0  0  0  0  0  0  0  0
   -3.5164   -2.3223    0.0000 C   0  0  0  0  0  0  0  0  0
   -3.5164   -3.1473    0.0000 C   0  0  0  0  0  0  0  0  0
   -2.8019   -3.5598    0.0000 C   0  0  0  0  0  0  0  0  0
   -4.9453   -0.6723    0.0000 C   0  0  0  0  0  0  0  0  0
   -4.9453    0.1527    0.0000 C   0  0  0  0  0  0  0  0  0
   -4.2309    0.5652    0.0000 C   0  0  0  0  0  0  0  0  0
   -3.5164    0.1527    0.0000 C   0  0  0  0  0  0  0  0  0
   -2.0875   -0.6723    0.0000 C   0  0  0  0  0  0  0  0  0
   -1.3730   -1.0848    0.0000 C   0  0  0  0  0  0  0  0  0
   -0.6585   -0.6723    0.0000 C   0  0  0  0  0  0  0  0  0
    0.0560   -1.0848    0.0000 N   0  0  0  0  0  0  0  0  0
    0.7704   -0.6723    0.0000 C   0  0  0  0  0  0  0  0  0
    0.0560   -1.9098    0.0000 C   0  0  0  0  0  0  0  0  0
  1  2  1  0  0  0  0
  2  3  4  0  0  0  0
  2 11  4  0  0  0  0
  3  4  4  0  0  0  0
  4  5  1  0  0  0  0
  4  9  4  0  0  0  0
  5  6  1  0  0  0  0
  5 16  1  0  0  0  0
  6  7  4  0  0  0  0
  6 15  4  0  0  0  0
  7  8  1  0  0  0  0
  7 12  4  0  0  0  0
  8  9  1  0  0  0  0
  9 10  4  0  0  0  0
 10 11  4  0  0  0  0
 12 13  4  0  0  0  0
 13 14  4  0  0  0  0
 14 15  4  0  0  0  0
 16 17  1  0  0  0  0
 17 18  1  0  0  0  0
 18 19  1  0  0  0  0
 19 20  1  0  0  0  0
 19 21  1  0  0  0  0
M  END
>  <Name_Molregno>
CHLORPROMAZINE

>  <5-HT1A>
5.98

>  <5-HT1B>
5.83

>  <5-HT1D>
6.34

>  <5-HT1E>
6.46

>  <5-HT2A>
8.36

>  <5-HT2C>
7.74

>  <5-HT3>
6.01

>  <5-HT5>
6.93

>  <5-HT6>
7.59

>  <5-HT7>
7.54

>  <Alpha-1A>
9.55

>  <Alpha-1B>
9.09

>  <Alpha-2A>
6.71

>  <Alpha-2B>
7.81

>  <Alpha-2C>
7.36

>  <Beta-1>
5

>  <Beta-2>
5

>  <DOPAMINE D1>
7.1

>  <DOPAMINE D2>
8.51

>  <DOPAMINE D3>
8.58

>  <DOPAMINE D4>
8.03

>  <DOPAMINE D5>
6.82

>  <Dopamine transporter>
5

>  <HISTAMINE H1>
8.47

>  <HISTAMINE H2>
6.76

>  <HISTAMINE H3>
6

>  <HISTAMINE H4>
6.3

>  <Muscarinic acetylcholine receptor M1>
7.36

>  <Muscarinic acetylcholine receptor M2>
6.67

>  <Muscarinic acetylcholine receptor M3>
7.25

>  <Muscarinic acetylcholine receptor M4>
7.11

>  <Muscarinic acetylcholine receptor M5>
7.5

>  <Norepinephrine transporter>
5.61

>  <Serotonin transporter>
6.54

$$$$
CIMETIDINE
  Marvin  02231216192D 0   1.00000     0.00000     0

 17 17  0  0  0  0  0  0  0  0999 V2000
   -1.4925   -0.0975    0.0000 S   0  0  0  0  0  0  0  0  0
   -2.2070   -0.5100    0.0000 C   0  0  0  0  0  0  0  0  0
   -2.9215   -0.0975    0.0000 C   0  0  0  0  0  0  0  0  0
   -3.6752   -0.4331    0.0000 N   0  0  0  0  0  0  0  0  0
   -4.2272    0.1800    0.0000 C   0  0  0  0  0  0  0  0  0
   -3.8147    0.8945    0.0000 N   0  0  0  0  0  0  0  0  0
   -3.0077    0.7230    0.0000 C   0  0  0  0  0  0  0  0  0
   -2.3946    1.2750    0.0000 C   0  0  0  0  0  0  0  0  0
   -0.7781   -0.5100    0.0000 C   0  0  0  0  0  0  0  0  0
   -0.0636   -0.0975    0.0000 C   0  0  0  0  0  0  0  0  0
    0.6509   -0.5100    0.0000 N   0  0  0  0  0  0  0  0  0
    1.3653   -0.0975    0.0000 C   0  0  0  0  0  0  0  0  0
    1.3653    0.7275    0.0000 N   0  0  0  0  0  0  0  0  0
    2.0798    1.1400    0.0000 C   0  0  0  0  0  0  0  0  0
    2.0798   -0.5100    0.0000 N   0  0  0  0  0  0  0  0  0
    2.7943   -0.0975    0.0000 C   0  0  0  0  0  0  0  0  0
    3.5088    0.3150    0.0000 N   0  0  0  0  0  0  0  0  0
  1  2  1  0  0  0  0
  1  9  1  0  0  0  0
  2  3  1  0  0  0  0
  3  4  4  0  0  0  0
  3  7  4  0  0  0  0
  4  5  4  0  0  0  0
  5  6  4  0  0  0  0
  6  7  4  0  0  0  0
  7  8  1  0  0  0  0
  9 10  1  0  0  0  0
 10 11  1  0  0  0  0
 11 12  1  0  0  0  0
 12 13  2  0  0  0  0
 12 15  1  0  0  0  0
 13 14  1  0  0  0  0
 15 16  1  0  0  0  0
 16 17  3  0  0  0  0
M  STY  1   1 DAT
M  SAL   1  1   6
M  SDT   1 MRV_IMPLICIT_H                                        
M  SDD   1     0.0000    0.0000    DR    ALL  0       0  
M  SED   1 IMPL_H1
M  END
>  <Name_Molregno>
CIMETIDINE

>  <5-HT2A>
5.15

>  <HISTAMINE H1>
5

>  <HISTAMINE H3>
5

>  <HISTAMINE H4>
5

$$$$
cinnarizine
  Marvin  02231216192D 0   1.00000     0.00000     0

 28 31  0  0  0  0  0  0  0  0999 V2000
   -0.2043    1.2377    0.0000 N   0  0  0  0  0  0  0  0  0
    0.5102    0.8252    0.0000 C   0  0  0  0  0  0  0  0  0
    0.5102    0.0002    0.0000 C   0  0  0  0  0  0  0  0  0
   -0.2043   -0.4123    0.0000 N   0  0  0  0  0  0  0  0  0
   -0.9187    0.0002    0.0000 C   0  0  0  0  0  0  0  0  0
   -0.9187    0.8252    0.0000 C   0  0  0  0  0  0  0  0  0
   -0.2043   -1.2373    0.0000 C   0  0  0  0  0  0  0  0  0
   -0.9187   -1.6498    0.0000 C   0  0  0  0  0  0  0  0  0
   -0.9187   -2.4748    0.0000 C   0  0  0  0  0  0  0  0  0
   -1.6332   -2.8873    0.0000 C   0  0  0  0  0  0  0  0  0
   -1.6332   -3.7123    0.0000 C   0  0  0  0  0  0  0  0  0
   -2.3477   -4.1248    0.0000 C   0  0  0  0  0  0  0  0  0
   -3.0622   -3.7123    0.0000 C   0  0  0  0  0  0  0  0  0
   -3.0622   -2.8873    0.0000 C   0  0  0  0  0  0  0  0  0
   -2.3477   -2.4748    0.0000 C   0  0  0  0  0  0  0  0  0
   -0.2043    2.0627    0.0000 C   0  0  0  0  0  0  0  0  0
    0.5102    2.4752    0.0000 C   0  0  0  0  0  0  0  0  0
    0.5102    3.3002    0.0000 C   0  0  0  0  0  0  0  0  0
    1.2247    3.7127    0.0000 C   0  0  0  0  0  0  0  0  0
    1.9391    3.3002    0.0000 C   0  0  0  0  0  0  0  0  0
    1.9391    2.4752    0.0000 C   0  0  0  0  0  0  0  0  0
    1.2247    2.0627    0.0000 C   0  0  0  0  0  0  0  0  0
   -0.9187    2.4752    0.0000 C   0  0  0  0  0  0  0  0  0
   -1.6332    2.0627    0.0000 C   0  0  0  0  0  0  0  0  0
   -2.3477    2.4752    0.0000 C   0  0  0  0  0  0  0  0  0
   -2.3477    3.3002    0.0000 C   0  0  0  0  0  0  0  0  0
   -1.6332    3.7127    0.0000 C   0  0  0  0  0  0  0  0  0
   -0.9187    3.3002    0.0000 C   0  0  0  0  0  0  0  0  0
  1  2  1  0  0  0  0
  1  6  1  0  0  0  0
  1 16  1  0  0  0  0
  2  3  1  0  0  0  0
  3  4  1  0  0  0  0
  4  5  1  0  0  0  0
  4  7  1  0  0  0  0
  5  6  1  0  0  0  0
  7  8  1  0  0  0  0
  8  9  2  0  0  0  0
  9 10  1  0  0  0  0
 10 11  4  0  0  0  0
 10 15  4  0  0  0  0
 11 12  4  0  0  0  0
 12 13  4  0  0  0  0
 13 14  4  0  0  0  0
 14 15  4  0  0  0  0
 16 17  1  0  0  0  0
 16 23  1  0  0  0  0
 17 18  4  0  0  0  0
 17 22  4  0  0  0  0
 18 19  4  0  0  0  0
 19 20  4  0  0  0  0
 20 21  4  0  0  0  0
 21 22  4  0  0  0  0
 23 24  4  0  0  0  0
 23 28  4  0  0  0  0
 24 25  4  0  0  0  0
 25 26  4  0  0  0  0
 26 27  4  0  0  0  0
 27 28  4  0  0  0  0
M  END
>  <Name_Molregno>
cinnarizine

>  <HISTAMINE H4>
6.85

$$$$
cis-Thiothixene
  Marvin  02231216192D 0   1.00000     0.00000     0

 30 33  0  0  0  0  0  0  0  0999 V2000
    1.0940   -3.6931    0.0000 S   0  0  0  0  0  0  0  0  0
    1.8085   -3.2806    0.0000 C   0  0  0  0  0  0  0  0  0
    1.8085   -2.4556    0.0000 C   0  0  0  0  0  0  0  0  0
    2.5230   -2.0431    0.0000 C   0  0  0  0  0  0  0  0  0
    3.2375   -2.4556    0.0000 C   0  0  0  0  0  0  0  0  0
    3.9519   -2.0431    0.0000 S   0  0  0  0  0  0  0  0  0
    3.5394   -1.3286    0.0000 O   0  0  0  0  0  0  0  0  0
    4.3644   -2.7575    0.0000 O   0  0  0  0  0  0  0  0  0
    4.6664   -1.6306    0.0000 N   0  0  0  0  0  0  0  0  0
    5.3809   -2.0431    0.0000 C   0  0  0  0  0  0  0  0  0
    4.6664   -0.8056    0.0000 C   0  0  0  0  0  0  0  0  0
    3.2375   -3.2806    0.0000 C   0  0  0  0  0  0  0  0  0
    2.5230   -3.6931    0.0000 C   0  0  0  0  0  0  0  0  0
    1.0940   -2.0431    0.0000 C   0  0  0  0  0  0  0  0  0
    0.3796   -2.4556    0.0000 C   0  0  0  0  0  0  0  0  0
    0.3796   -3.2806    0.0000 C   0  0  0  0  0  0  0  0  0
   -0.3349   -3.6931    0.0000 C   0  0  0  0  0  0  0  0  0
   -1.0494   -3.2806    0.0000 C   0  0  0  0  0  0  0  0  0
   -1.0494   -2.4556    0.0000 C   0  0  0  0  0  0  0  0  0
   -0.3349   -2.0431    0.0000 C   0  0  0  0  0  0  0  0  0
    1.0940   -1.2181    0.0000 C   0  0  0  0  0  0  0  0  0
    0.3796   -0.8056    0.0000 C   0  0  0  0  0  0  0  0  0
   -0.3349   -1.2181    0.0000 C   0  0  0  0  0  0  0  0  0
   -1.0494   -0.8056    0.0000 N   0  0  0  0  0  0  0  0  0
   -1.7638   -1.2181    0.0000 C   0  0  0  0  0  0  0  0  0
   -2.4783   -0.8056    0.0000 C   0  0  0  0  0  0  0  0  0
   -2.4783    0.0194    0.0000 N   0  0  0  0  0  0  0  0  0
   -1.7638    0.4319    0.0000 C   0  0  0  0  0  0  0  0  0
   -1.0494    0.0194    0.0000 C   0  0  0  0  0  0  0  0  0
   -3.1928    0.4319    0.0000 C   0  0  0  0  0  0  0  0  0
  1  2  1  0  0  0  0
  1 16  1  0  0  0  0
  2  3  4  0  0  0  0
  2 13  4  0  0  0  0
  3  4  4  0  0  0  0
  3 14  1  0  0  0  0
  4  5  4  0  0  0  0
  5  6  1  0  0  0  0
  5 12  4  0  0  0  0
  6  7  2  0  0  0  0
  6  8  2  0  0  0  0
  6  9  1  0  0  0  0
  9 10  1  0  0  0  0
  9 11  1  0  0  0  0
 12 13  4  0  0  0  0
 14 15  1  0  0  0  0
 14 21  2  0  0  0  0
 15 16  4  0  0  0  0
 15 20  4  0  0  0  0
 16 17  4  0  0  0  0
 17 18  4  0  0  0  0
 18 19  4  0  0  0  0
 19 20  4  0  0  0  0
 21 22  1  0  0  0  0
 22 23  1  0  0  0  0
 23 24  1  0  0  0  0
 24 25  1  0  0  0  0
 24 29  1  0  0  0  0
 25 26  1  0  0  0  0
 26 27  1  0  0  0  0
 27 28  1  0  0  0  0
 27 30  1  0  0  0  0
 28 29  1  0  0  0  0
M  END
>  <Name_Molregno>
cis-Thiothixene

>  <5-HT1A>
6.39

>  <5-HT1B>
6.82

>  <5-HT1D>
6.18

>  <5-HT1E>
5

>  <5-HT2A>
7.42

>  <5-HT2C>
5.87

>  <5-HT3>
5.73

>  <5-HT5>
6.44

>  <5-HT6>
6.62

>  <5-HT7>
7.82

>  <Alpha-1A>
7.94

>  <Alpha-1B>
7.46

>  <Alpha-2A>
7.1

>  <Alpha-2B>
7.3

>  <Alpha-2C>
7.28

>  <Beta-1>
5

>  <Beta-2>
5

>  <DOPAMINE D1>
7.29

>  <DOPAMINE D2>
9.56

>  <DOPAMINE D3>
9.41

>  <DOPAMINE D4>
6.86

>  <DOPAMINE D5>
6.58

>  <Dopamine transporter>
5

>  <HISTAMINE H1>
8.23

>  <HISTAMINE H2>
6.39

>  <HISTAMINE H4>
5

>  <Muscarinic acetylcholine receptor M1>
5.3

>  <Muscarinic acetylcholine receptor M2>
5.34

>  <Muscarinic acetylcholine receptor M3>
5.27

>  <Muscarinic acetylcholine receptor M4>
5.4

>  <Muscarinic acetylcholine receptor M5>
5.32

>  <Norepinephrine transporter>
5

>  <Serotonin transporter>
5.41

$$$$
clemizole
  Marvin  02231216192D 0   1.00000     0.00000     0

 23 26  0  0  0  0  0  0  0  0999 V2000
    5.3247   -2.4305    0.0000 Cl  0  0  0  0  0  0  0  0  0
    4.7726   -1.8174    0.0000 C   0  0  0  0  0  0  0  0  0
    3.9657   -1.9890    0.0000 C   0  0  0  0  0  0  0  0  0
    3.4136   -1.3759    0.0000 C   0  0  0  0  0  0  0  0  0
    3.6686   -0.5913    0.0000 C   0  0  0  0  0  0  0  0  0
    4.4756   -0.4197    0.0000 C   0  0  0  0  0  0  0  0  0
    5.0276   -1.0328    0.0000 C   0  0  0  0  0  0  0  0  0
    3.1165    0.0218    0.0000 C   0  0  0  0  0  0  0  0  0
    3.3715    0.8065    0.0000 N   0  0  0  0  0  0  0  0  0
    4.1561    1.0614    0.0000 C   0  0  0  0  0  0  0  0  0
    4.1561    1.8864    0.0000 C   0  0  0  0  0  0  0  0  0
    3.3715    2.1413    0.0000 N   0  0  0  0  0  0  0  0  0
    2.8866    1.4739    0.0000 C   0  0  0  0  0  0  0  0  0
    2.0616    1.4739    0.0000 C   0  0  0  0  0  0  0  0  0
    1.6491    2.1884    0.0000 N   0  0  0  0  0  0  0  0  0
    0.8286    2.2746    0.0000 C   0  0  0  0  0  0  0  0  0
    0.6571    3.0816    0.0000 C   0  0  0  0  0  0  0  0  0
    1.3715    3.4941    0.0000 C   0  0  0  0  0  0  0  0  0
    1.9846    2.9420    0.0000 C   0  0  0  0  0  0  0  0  0
    4.8706    2.2989    0.0000 C   0  0  0  0  0  0  0  0  0
    5.5851    1.8864    0.0000 C   0  0  0  0  0  0  0  0  0
    5.5851    1.0614    0.0000 C   0  0  0  0  0  0  0  0  0
    4.8706    0.6489    0.0000 C   0  0  0  0  0  0  0  0  0
  1  2  1  0  0  0  0
  2  3  4  0  0  0  0
  2  7  4  0  0  0  0
  3  4  4  0  0  0  0
  4  5  4  0  0  0  0
  5  6  4  0  0  0  0
  5  8  1  0  0  0  0
  6  7  4  0  0  0  0
  8  9  1  0  0  0  0
  9 10  4  0  0  0  0
  9 13  4  0  0  0  0
 10 11  4  0  0  0  0
 10 23  4  0  0  0  0
 11 12  4  0  0  0  0
 11 20  4  0  0  0  0
 12 13  4  0  0  0  0
 13 14  1  0  0  0  0
 14 15  1  0  0  0  0
 15 16  1  0  0  0  0
 15 19  1  0  0  0  0
 16 17  1  0  0  0  0
 17 18  1  0  0  0  0
 18 19  1  0  0  0  0
 20 21  4  0  0  0  0
 21 22  4  0  0  0  0
 22 23  4  0  0  0  0
M  END
>  <Name_Molregno>
clemizole

>  <HISTAMINE H4>
6.4

$$$$
Clobenpropit
  Marvin  02231216192D 0   1.00000     0.00000     0

 20 21  0  0  0  0  0  0  0  0999 V2000
    0.2554    0.9207    0.0000 Cl  0  0  0  0  0  0  0  0  0
    0.9699    1.3332    0.0000 C   0  0  0  0  0  0  0  0  0
    0.9699    2.1582    0.0000 C   0  0  0  0  0  0  0  0  0
    1.6844    2.5707    0.0000 C   0  0  0  0  0  0  0  0  0
    2.3988    2.1582    0.0000 C   0  0  0  0  0  0  0  0  0
    2.3988    1.3332    0.0000 C   0  0  0  0  0  0  0  0  0
    1.6844    0.9207    0.0000 C   0  0  0  0  0  0  0  0  0
    3.1133    2.5707    0.0000 C   0  0  0  0  0  0  0  0  0
    3.8278    2.1582    0.0000 N   0  0  0  0  0  0  0  0  0
    3.8278    1.3332    0.0000 C   0  0  0  0  0  0  0  0  0
    4.5422    0.9207    0.0000 S   0  0  0  0  0  0  0  0  0
    5.2567    1.3332    0.0000 C   0  0  0  0  0  0  0  0  0
    5.9712    0.9207    0.0000 C   0  0  0  0  0  0  0  0  0
    6.6857    1.3332    0.0000 C   0  0  0  0  0  0  0  0  0
    7.4001    0.9207    0.0000 C   0  0  0  0  0  0  0  0  0
    8.1538    1.2562    0.0000 N   0  0  0  0  0  0  0  0  0
    8.7058    0.6431    0.0000 C   0  0  0  0  0  0  0  0  0
    8.2933   -0.0713    0.0000 N   0  0  0  0  0  0  0  0  0
    7.4864    0.1002    0.0000 C   0  0  0  0  0  0  0  0  0
    3.1133    0.9207    0.0000 N   0  0  0  0  0  0  0  0  0
  1  2  1  0  0  0  0
  2  3  4  0  0  0  0
  2  7  4  0  0  0  0
  3  4  4  0  0  0  0
  4  5  4  0  0  0  0
  5  6  4  0  0  0  0
  5  8  1  0  0  0  0
  6  7  4  0  0  0  0
  8  9  1  0  0  0  0
  9 10  2  0  0  0  0
 10 11  1  0  0  0  0
 10 20  1  0  0  0  0
 11 12  1  0  0  0  0
 12 13  1  0  0  0  0
 13 14  1  0  0  0  0
 14 15  1  0  0  0  0
 15 16  4  0  0  0  0
 15 19  4  0  0  0  0
 16 17  4  0  0  0  0
 17 18  4  0  0  0  0
 18 19  4  0  0  0  0
M  STY  1   1 DAT
M  SAL   1  1  16
M  SDT   1 MRV_IMPLICIT_H                                        
M  SDD   1     0.0000    0.0000    DR    ALL  0       0  
M  SED   1 IMPL_H1
M  END
>  <Name_Molregno>
Clobenpropit

>  <Alpha-2A>
7.76

>  <Alpha-2C>
7.8

>  <HISTAMINE H1>
5.56

>  <HISTAMINE H2>
5.24

>  <HISTAMINE H3>
8.4

>  <HISTAMINE H4>
7.64

$$$$
CLOBENPROPIT-2
  Marvin  02231216192D 0   1.00000     0.00000     0

 20 21  0  0  0  0  0  0  0  0999 V2000
   -0.1733   -2.3952    0.0000 Cl  0  0  0  0  0  0  0  0  0
    0.5412   -1.9827    0.0000 C   0  0  0  0  0  0  0  0  0
    0.5412   -1.1577    0.0000 C   0  0  0  0  0  0  0  0  0
    1.2557   -0.7452    0.0000 C   0  0  0  0  0  0  0  0  0
    1.9702   -1.1577    0.0000 C   0  0  0  0  0  0  0  0  0
    1.9702   -1.9827    0.0000 C   0  0  0  0  0  0  0  0  0
    1.2557   -2.3952    0.0000 C   0  0  0  0  0  0  0  0  0
    2.6846   -0.7452    0.0000 C   0  0  0  0  0  0  0  0  0
    3.3991   -1.1577    0.0000 N   0  0  0  0  0  0  0  0  0
    4.1136   -0.7452    0.0000 C   0  0  0  0  0  0  0  0  0
    4.8280   -1.1577    0.0000 S   0  0  0  0  0  0  0  0  0
    5.5425   -0.7452    0.0000 C   0  0  0  0  0  0  0  0  0
    6.2570   -1.1577    0.0000 C   0  0  0  0  0  0  0  0  0
    6.9715   -0.7452    0.0000 C   0  0  0  0  0  0  0  0  0
    7.6859   -1.1577    0.0000 C   0  0  0  0  0  0  0  0  0
    8.4396   -0.8222    0.0000 N   0  0  0  0  0  0  0  0  0
    8.9916   -1.4353    0.0000 C   0  0  0  0  0  0  0  0  0
    8.5791   -2.1497    0.0000 N   0  0  0  0  0  0  0  0  0
    7.7722   -1.9782    0.0000 C   0  0  0  0  0  0  0  0  0
    4.1136    0.0798    0.0000 N   0  0  0  0  0  0  0  0  0
  1  2  1  0  0  0  0
  2  3  4  0  0  0  0
  2  7  4  0  0  0  0
  3  4  4  0  0  0  0
  4  5  4  0  0  0  0
  5  6  4  0  0  0  0
  5  8  1  0  0  0  0
  6  7  4  0  0  0  0
  8  9  1  0  0  0  0
  9 10  1  0  0  0  0
 10 11  1  0  0  0  0
 10 20  2  0  0  0  0
 11 12  1  0  0  0  0
 12 13  1  0  0  0  0
 13 14  1  0  0  0  0
 14 15  1  0  0  0  0
 15 16  4  0  0  0  0
 15 19  4  0  0  0  0
 16 17  4  0  0  0  0
 17 18  4  0  0  0  0
 18 19  4  0  0  0  0
M  STY  1   1 DAT
M  SAL   1  1  18
M  SDT   1 MRV_IMPLICIT_H                                        
M  SDD   1     0.0000    0.0000    DR    ALL  0       0  
M  SED   1 IMPL_H1
M  END
>  <Name_Molregno>
CLOBENPROPIT-2

>  <HISTAMINE H3>
8.62

>  <HISTAMINE H4>
8.37

$$$$
CLOZAPINE
  Marvin  02231216192D 0   1.00000     0.00000     0

 23 26  0  0  0  0  0  0  0  0999 V2000
   -0.5622   -2.2603    0.0000 Cl  0  0  0  0  0  0  0  0  0
    0.2262   -2.5035    0.0000 C   0  0  0  0  0  0  0  0  0
    0.8309   -1.9424    0.0000 C   0  0  0  0  0  0  0  0  0
    1.6193   -2.1855    0.0000 C   0  0  0  0  0  0  0  0  0
    2.1337   -1.5405    0.0000 N   0  0  0  0  0  0  0  0  0
    2.9587   -1.5405    0.0000 C   0  0  0  0  0  0  0  0  0
    3.3166   -0.7972    0.0000 N   0  0  0  0  0  0  0  0  0
    2.8519   -0.1156    0.0000 C   0  0  0  0  0  0  0  0  0
    3.2098    0.6277    0.0000 C   0  0  0  0  0  0  0  0  0
    4.0325    0.6894    0.0000 N   0  0  0  0  0  0  0  0  0
    4.4973    0.0077    0.0000 C   0  0  0  0  0  0  0  0  0
    4.1393   -0.7356    0.0000 C   0  0  0  0  0  0  0  0  0
    4.3905    1.4327    0.0000 C   0  0  0  0  0  0  0  0  0
    3.4730   -2.1855    0.0000 C   0  0  0  0  0  0  0  0  0
    3.2895   -2.9898    0.0000 C   0  0  0  0  0  0  0  0  0
    2.5462   -3.3478    0.0000 N   0  0  0  0  0  0  0  0  0
    1.8029   -2.9898    0.0000 C   0  0  0  0  0  0  0  0  0
    1.1981   -3.5510    0.0000 C   0  0  0  0  0  0  0  0  0
    0.4098   -3.3078    0.0000 C   0  0  0  0  0  0  0  0  0
    3.8942   -3.5510    0.0000 C   0  0  0  0  0  0  0  0  0
    4.6826   -3.3078    0.0000 C   0  0  0  0  0  0  0  0  0
    4.8662   -2.5035    0.0000 C   0  0  0  0  0  0  0  0  0
    4.2614   -1.9424    0.0000 C   0  0  0  0  0  0  0  0  0
  1  2  1  0  0  0  0
  2  3  4  0  0  0  0
  2 19  4  0  0  0  0
  3  4  4  0  0  0  0
  4  5  1  0  0  0  0
  4 17  4  0  0  0  0
  5  6  1  0  0  0  0
  6  7  1  0  0  0  0
  6 14  2  0  0  0  0
  7  8  1  0  0  0  0
  7 12  1  0  0  0  0
  8  9  1  0  0  0  0
  9 10  1  0  0  0  0
 10 11  1  0  0  0  0
 10 13  1  0  0  0  0
 11 12  1  0  0  0  0
 14 15  1  0  0  0  0
 14 23  1  0  0  0  0
 15 16  2  0  0  0  0
 15 20  1  0  0  0  0
 16 17  1  0  0  0  0
 17 18  4  0  0  0  0
 18 19  4  0  0  0  0
 20 21  2  0  0  0  0
 21 22  1  0  0  0  0
 22 23  2  0  0  0  0
M  END
>  <Name_Molregno>
CLOZAPINE

>  <5-HT1A>
6.88

>  <5-HT1B>
6.33

>  <5-HT1D>
6.27

>  <5-HT1E>
6.19

>  <5-HT2A>
8.22

>  <5-HT2C>
8

>  <5-HT3>
6.62

>  <5-HT5>
5.41

>  <5-HT6>
7.9

>  <5-HT7>
8.05

>  <Alpha-1A>
8.8

>  <Alpha-1B>
8.15

>  <Alpha-2A>
7.15

>  <Alpha-2B>
7.61

>  <Alpha-2C>
7.88

>  <Beta-1>
5.15

>  <Beta-2>
5.39

>  <DOPAMINE D1>
6.69

>  <DOPAMINE D2>
6.9

>  <DOPAMINE D3>
6.62

>  <DOPAMINE D4>
7.62

>  <DOPAMINE D5>
6.62

>  <Dopamine transporter>
5

>  <HISTAMINE H1>
8.81

>  <HISTAMINE H2>
6.82

>  <HISTAMINE H3>
5.25

>  <HISTAMINE H4>
6.15

>  <Muscarinic acetylcholine receptor M1>
8.26

>  <Muscarinic acetylcholine receptor M2>
7.17

>  <Muscarinic acetylcholine receptor M3>
7.59

>  <Muscarinic acetylcholine receptor M4>
7.85

>  <Muscarinic acetylcholine receptor M5>
7.79

>  <Norepinephrine transporter>
5.5

>  <Serotonin transporter>
5.73

$$$$
CLOZAPINE-2
  Marvin  02231216192D 0   1.00000     0.00000     0

 23 26  0  0  0  0  0  0  0  0999 V2000
   -0.5622   -2.2603    0.0000 Cl  0  0  0  0  0  0  0  0  0
    0.2262   -2.5035    0.0000 C   0  0  0  0  0  0  0  0  0
    0.8309   -1.9424    0.0000 C   0  0  0  0  0  0  0  0  0
    1.6193   -2.1855    0.0000 C   0  0  0  0  0  0  0  0  0
    2.1337   -1.5405    0.0000 N   0  0  0  0  0  0  0  0  0
    2.9587   -1.5405    0.0000 C   0  0  0  0  0  0  0  0  0
    3.3166   -0.7972    0.0000 N   0  0  0  0  0  0  0  0  0
    2.8519   -0.1156    0.0000 C   0  0  0  0  0  0  0  0  0
    3.2098    0.6277    0.0000 C   0  0  0  0  0  0  0  0  0
    4.0325    0.6894    0.0000 N   0  0  0  0  0  0  0  0  0
    4.4973    0.0077    0.0000 C   0  0  0  0  0  0  0  0  0
    4.1393   -0.7356    0.0000 C   0  0  0  0  0  0  0  0  0
    4.3905    1.4327    0.0000 C   0  0  0  0  0  0  0  0  0
    3.4730   -2.1855    0.0000 C   0  0  0  0  0  0  0  0  0
    3.2895   -2.9898    0.0000 C   0  0  0  0  0  0  0  0  0
    2.5462   -3.3478    0.0000 N   0  0  0  0  0  0  0  0  0
    1.8029   -2.9898    0.0000 C   0  0  0  0  0  0  0  0  0
    1.1981   -3.5510    0.0000 C   0  0  0  0  0  0  0  0  0
    0.4098   -3.3078    0.0000 C   0  0  0  0  0  0  0  0  0
    3.8942   -3.5510    0.0000 C   0  0  0  0  0  0  0  0  0
    4.6826   -3.3078    0.0000 C   0  0  0  0  0  0  0  0  0
    4.8662   -2.5035    0.0000 C   0  0  0  0  0  0  0  0  0
    4.2614   -1.9424    0.0000 C   0  0  0  0  0  0  0  0  0
  1  2  1  0  0  0  0
  2  3  4  0  0  0  0
  2 19  4  0  0  0  0
  3  4  4  0  0  0  0
  4  5  1  0  0  0  0
  4 17  4  0  0  0  0
  5  6  2  0  0  0  0
  6  7  1  0  0  0  0
  6 14  1  0  0  0  0
  7  8  1  0  0  0  0
  7 12  1  0  0  0  0
  8  9  1  0  0  0  0
  9 10  1  0  0  0  0
 10 11  1  0  0  0  0
 10 13  1  0  0  0  0
 11 12  1  0  0  0  0
 14 15  4  0  0  0  0
 14 23  4  0  0  0  0
 15 16  1  0  0  0  0
 15 20  4  0  0  0  0
 16 17  1  0  0  0  0
 17 18  4  0  0  0  0
 18 19  4  0  0  0  0
 20 21  4  0  0  0  0
 21 22  4  0  0  0  0
 22 23  4  0  0  0  0
M  END
>  <Name_Molregno>
CLOZAPINE-2

>  <5-HT1A>
6.92

>  <5-HT2A>
8.15

>  <5-HT2C>
7.92

>  <5-HT3>
6.4

>  <5-HT5>
6

>  <5-HT6>
7.85

>  <5-HT7>
7.47

>  <Alpha-2A>
7.62

>  <Alpha-2C>
8.54

>  <DOPAMINE D1>
7

>  <DOPAMINE D2>
7.03

>  <DOPAMINE D3>
6.48

>  <DOPAMINE D4>
7.6

>  <DOPAMINE D5>
6.7

>  <HISTAMINE H1>
8.77

>  <HISTAMINE H3>
6.1

>  <HISTAMINE H4>
6.75

>  <Muscarinic acetylcholine receptor M1>
8.47

>  <Muscarinic acetylcholine receptor M4>
7.9

>  <Serotonin transporter>
5.41

$$$$
CYPROHEPTADINE
  Marvin  02231216192D 0   1.00000     0.00000     0

 22 25  0  0  0  0  0  0  0  0999 V2000
    2.3061   -2.3673    0.0000 N   0  0  0  0  0  0  0  0  0
    1.5917   -1.9548    0.0000 C   0  0  0  0  0  0  0  0  0
    1.5917   -1.1298    0.0000 C   0  0  0  0  0  0  0  0  0
    2.3061   -0.7173    0.0000 C   0  0  0  0  0  0  0  0  0
    3.0206   -1.1298    0.0000 C   0  0  0  0  0  0  0  0  0
    3.0206   -1.9548    0.0000 C   0  0  0  0  0  0  0  0  0
    2.3061    0.1077    0.0000 C   0  0  0  0  0  0  0  0  0
    3.0494    0.4657    0.0000 C   0  0  0  0  0  0  0  0  0
    3.2330    1.2700    0.0000 C   0  0  0  0  0  0  0  0  0
    2.7186    1.9150    0.0000 C   0  0  0  0  0  0  0  0  0
    1.8936    1.9150    0.0000 C   0  0  0  0  0  0  0  0  0
    1.3792    1.2700    0.0000 C   0  0  0  0  0  0  0  0  0
    1.5628    0.4657    0.0000 C   0  0  0  0  0  0  0  0  0
    0.9581   -0.0955    0.0000 C   0  0  0  0  0  0  0  0  0
    0.1697    0.1477    0.0000 C   0  0  0  0  0  0  0  0  0
   -0.0139    0.9520    0.0000 C   0  0  0  0  0  0  0  0  0
    0.5909    1.5132    0.0000 C   0  0  0  0  0  0  0  0  0
    4.0214    1.5132    0.0000 C   0  0  0  0  0  0  0  0  0
    4.6261    0.9520    0.0000 C   0  0  0  0  0  0  0  0  0
    4.4425    0.1477    0.0000 C   0  0  0  0  0  0  0  0  0
    3.6542   -0.0955    0.0000 C   0  0  0  0  0  0  0  0  0
    2.3061   -3.1923    0.0000 C   0  0  0  0  0  0  0  0  0
  1  2  1  0  0  0  0
  1  6  1  0  0  0  0
  1 22  1  0  0  0  0
  2  3  1  0  0  0  0
  3  4  1  0  0  0  0
  4  5  1  0  0  0  0
  4  7  2  0  0  0  0
  5  6  1  0  0  0  0
  7  8  1  0  0  0  0
  7 13  1  0  0  0  0
  8  9  4  0  0  0  0
  8 21  4  0  0  0  0
  9 10  1  0  0  0  0
  9 18  4  0  0  0  0
 10 11  2  0  0  0  0
 11 12  1  0  0  0  0
 12 13  4  0  0  0  0
 12 17  4  0  0  0  0
 13 14  4  0  0  0  0
 14 15  4  0  0  0  0
 15 16  4  0  0  0  0
 16 17  4  0  0  0  0
 18 19  4  0  0  0  0
 19 20  4  0  0  0  0
 20 21  4  0  0  0  0
M  END
>  <Name_Molregno>
CYPROHEPTADINE

>  <5-HT1A>
7.12

>  <5-HT1D>
5.89

>  <5-HT2A>
8.42

>  <5-HT2C>
8.65

>  <5-HT6>
6.85

>  <5-HT7>
6.91

>  <DOPAMINE D1>
6.93

>  <DOPAMINE D2>
6.95

>  <DOPAMINE D3>
8.1

>  <HISTAMINE H1>
10.22

>  <HISTAMINE H3>
5

>  <HISTAMINE H4>
5.85

>  <Muscarinic acetylcholine receptor M1>
7.92

>  <Muscarinic acetylcholine receptor M2>
8.15

>  <Muscarinic acetylcholine receptor M3>
7.92

>  <Muscarinic acetylcholine receptor M4>
8.1

>  <Muscarinic acetylcholine receptor M5>
7.93

$$$$
D-cystine
  Marvin  02231216192D 0   1.00000     0.00000     0

 14 13  0  0  1  0  0  0  0  0999 V2000
    0.5597    0.5534    0.0000 S   0  0  0  0  0  0  0  0  0
   -0.1548    0.1409    0.0000 S   0  0  0  0  0  0  0  0  0
   -0.8693    0.5534    0.0000 C   0  0  0  0  0  0  0  0  0
   -1.5838    0.1409    0.0000 C   0  0  0  0  0  0  0  0  0
   -1.5838   -0.6841    0.0000 N   0  0  0  0  0  0  0  0  0
   -2.2982    0.5534    0.0000 C   0  0  0  0  0  0  0  0  0
   -3.0127    0.1409    0.0000 O   0  0  0  0  0  0  0  0  0
   -2.2982    1.3784    0.0000 O   0  0  0  0  0  0  0  0  0
    1.2741    0.1409    0.0000 C   0  0  0  0  0  0  0  0  0
    1.9886    0.5534    0.0000 C   0  0  0  0  0  0  0  0  0
    1.9886    1.3784    0.0000 N   0  0  0  0  0  0  0  0  0
    2.7031    0.1409    0.0000 C   0  0  0  0  0  0  0  0  0
    3.4175    0.5534    0.0000 O   0  0  0  0  0  0  0  0  0
    2.7031   -0.6841    0.0000 O   0  0  0  0  0  0  0  0  0
  1  2  1  0  0  0  0
  1  9  1  0  0  0  0
  2  3  1  0  0  0  0
  3  4  1  0  0  0  0
  4  5  1  0  0  0  0
  4  6  1  0  0  0  0
  6  7  1  0  0  0  0
  6  8  2  0  0  0  0
  9 10  1  0  0  0  0
 10 11  1  0  0  0  0
 10 12  1  0  0  0  0
 12 13  1  0  0  0  0
 12 14  2  0  0  0  0
M  END
>  <Name_Molregno>
D-cystine

>  <5-HT1A>
5

>  <5-HT1B>
5

>  <5-HT1D>
5

>  <5-HT3>
5

>  <5-HT5>
5

>  <5-HT6>
5

>  <5-HT7>
5

>  <Alpha-1A>
5

>  <Alpha-1B>
5

>  <Alpha-2A>
5

>  <Alpha-2B>
5

>  <Alpha-2C>
5

>  <DOPAMINE D1>
5

>  <DOPAMINE D2>
5

>  <DOPAMINE D3>
5

>  <DOPAMINE D5>
5

>  <Dopamine transporter>
5

>  <HISTAMINE H1>
5

>  <HISTAMINE H2>
5

>  <HISTAMINE H4>
5

>  <Muscarinic acetylcholine receptor M1>
5

>  <Muscarinic acetylcholine receptor M2>
5

>  <Muscarinic acetylcholine receptor M3>
5

>  <Muscarinic acetylcholine receptor M4>
5

>  <Muscarinic acetylcholine receptor M5>
5

>  <Norepinephrine transporter>
5

>  <Serotonin transporter>
5

$$$$
Diphenhydramine
  Marvin  02231216192D 0   1.00000     0.00000     0

 19 20  0  0  0  0  0  0  0  0999 V2000
    0.5098    1.4209    0.0000 O   0  0  0  0  0  0  0  0  0
   -0.2047    1.0084    0.0000 C   0  0  0  0  0  0  0  0  0
   -0.9192    1.4209    0.0000 C   0  0  0  0  0  0  0  0  0
   -1.6337    1.0084    0.0000 C   0  0  0  0  0  0  0  0  0
   -2.3481    1.4209    0.0000 C   0  0  0  0  0  0  0  0  0
   -2.3481    2.2459    0.0000 C   0  0  0  0  0  0  0  0  0
   -1.6337    2.6584    0.0000 C   0  0  0  0  0  0  0  0  0
   -0.9192    2.2459    0.0000 C   0  0  0  0  0  0  0  0  0
   -0.2047    0.1834    0.0000 C   0  0  0  0  0  0  0  0  0
    0.5098   -0.2291    0.0000 C   0  0  0  0  0  0  0  0  0
    0.5098   -1.0541    0.0000 C   0  0  0  0  0  0  0  0  0
   -0.2047   -1.4666    0.0000 C   0  0  0  0  0  0  0  0  0
   -0.9192   -1.0541    0.0000 C   0  0  0  0  0  0  0  0  0
   -0.9192   -0.2291    0.0000 C   0  0  0  0  0  0  0  0  0
    1.2242    1.0084    0.0000 C   0  0  0  0  0  0  0  0  0
    1.9387    1.4209    0.0000 C   0  0  0  0  0  0  0  0  0
    2.6532    1.0084    0.0000 N   0  0  0  0  0  0  0  0  0
    3.3676    1.4209    0.0000 C   0  0  0  0  0  0  0  0  0
    2.6532    0.1834    0.0000 C   0  0  0  0  0  0  0  0  0
  1  2  1  0  0  0  0
  1 15  1  0  0  0  0
  2  3  1  0  0  0  0
  2  9  1  0  0  0  0
  3  4  4  0  0  0  0
  3  8  4  0  0  0  0
  4  5  4  0  0  0  0
  5  6  4  0  0  0  0
  6  7  4  0  0  0  0
  7  8  4  0  0  0  0
  9 10  4  0  0  0  0
  9 14  4  0  0  0  0
 10 11  4  0  0  0  0
 11 12  4  0  0  0  0
 12 13  4  0  0  0  0
 13 14  4  0  0  0  0
 15 16  1  0  0  0  0
 16 17  1  0  0  0  0
 17 18  1  0  0  0  0
 17 19  1  0  0  0  0
M  END
>  <Name_Molregno>
Diphenhydramine

>  <HISTAMINE H1>
7.78

>  <HISTAMINE H3>
5

>  <HISTAMINE H4>
5

>  <Muscarinic acetylcholine receptor M1>
7

>  <Muscarinic acetylcholine receptor M2>
6.92

>  <Muscarinic acetylcholine receptor M3>
6.64

>  <Muscarinic acetylcholine receptor M4>
6.95

>  <Muscarinic acetylcholine receptor M5>
6.59

$$$$
DL-homocysteine
  Marvin  02231216192D 0   1.00000     0.00000     0

  8  7  0  0  1  0  0  0  0  0999 V2000
   -0.0519    0.0021    0.0000 S   0  0  0  0  0  0  0  0  0
    0.6626    0.4146    0.0000 C   0  0  0  0  0  0  0  0  0
    1.3770    0.0021    0.0000 C   0  0  0  0  0  0  0  0  0
    2.0915    0.4146    0.0000 C   0  0  0  0  0  0  0  0  0
    2.0915    1.2396    0.0000 N   0  0  0  0  0  0  0  0  0
    2.8060    0.0021    0.0000 C   0  0  0  0  0  0  0  0  0
    3.5205    0.4146    0.0000 O   0  0  0  0  0  0  0  0  0
    2.8060   -0.8229    0.0000 O   0  0  0  0  0  0  0  0  0
  1  2  1  0  0  0  0
  2  3  1  0  0  0  0
  3  4  1  0  0  0  0
  4  5  1  0  0  0  0
  4  6  1  0  0  0  0
  6  7  1  0  0  0  0
  6  8  2  0  0  0  0
M  END
>  <Name_Molregno>
DL-homocysteine

>  <5-HT1A>
5

>  <5-HT1B>
5

>  <5-HT1D>
5

>  <5-HT3>
5

>  <5-HT5>
5

>  <5-HT6>
5

>  <5-HT7>
5

>  <Alpha-1A>
5

>  <Alpha-1B>
5

>  <Alpha-2A>
5

>  <Alpha-2B>
5

>  <Alpha-2C>
5

>  <DOPAMINE D1>
5

>  <DOPAMINE D2>
5

>  <DOPAMINE D3>
5

>  <DOPAMINE D5>
5

>  <Dopamine transporter>
5

>  <HISTAMINE H1>
5

>  <HISTAMINE H2>
5

>  <HISTAMINE H4>
5

>  <Muscarinic acetylcholine receptor M1>
5

>  <Muscarinic acetylcholine receptor M2>
5

>  <Muscarinic acetylcholine receptor M3>
5

>  <Muscarinic acetylcholine receptor M4>
5

>  <Muscarinic acetylcholine receptor M5>
5

>  <Norepinephrine transporter>
5

>  <Serotonin transporter>
5

$$$$
D-methionine
  Marvin  02231216192D 0   1.00000     0.00000     0

  9  8  0  0  1  0  0  0  0  0999 V2000
   -0.3763    1.2394    0.0000 S   0  0  0  0  0  0  0  0  0
    0.3381    0.8269    0.0000 C   0  0  0  0  0  0  0  0  0
    1.0526    1.2394    0.0000 C   0  0  0  0  0  0  0  0  0
    1.7671    0.8269    0.0000 C   0  0  0  0  0  0  0  0  0
    1.7671    0.0019    0.0000 N   0  0  0  0  0  0  0  0  0
    2.4816    1.2394    0.0000 C   0  0  0  0  0  0  0  0  0
    3.1960    0.8269    0.0000 O   0  0  0  0  0  0  0  0  0
    2.4816    2.0644    0.0000 O   0  0  0  0  0  0  0  0  0
   -1.0908    0.8269    0.0000 C   0  0  0  0  0  0  0  0  0
  1  2  1  0  0  0  0
  1  9  1  0  0  0  0
  2  3  1  0  0  0  0
  3  4  1  0  0  0  0
  4  5  1  0  0  0  0
  4  6  1  0  0  0  0
  6  7  1  0  0  0  0
  6  8  2  0  0  0  0
M  END
>  <Name_Molregno>
D-methionine

>  <5-HT1A>
5

>  <5-HT1B>
5

>  <5-HT1D>
5

>  <5-HT3>
5

>  <5-HT5>
5

>  <5-HT6>
5

>  <5-HT7>
5

>  <Alpha-1A>
5

>  <Alpha-1B>
5

>  <Alpha-2A>
5

>  <Alpha-2B>
5

>  <Alpha-2C>
5

>  <DOPAMINE D1>
5

>  <DOPAMINE D2>
5

>  <DOPAMINE D3>
5

>  <DOPAMINE D5>
5

>  <Dopamine transporter>
5

>  <HISTAMINE H1>
5

>  <HISTAMINE H2>
5

>  <HISTAMINE H4>
5

>  <Muscarinic acetylcholine receptor M1>
5

>  <Muscarinic acetylcholine receptor M2>
5

>  <Muscarinic acetylcholine receptor M3>
5

>  <Muscarinic acetylcholine receptor M4>
5

>  <Muscarinic acetylcholine receptor M5>
5

>  <Norepinephrine transporter>
5

>  <Serotonin transporter>
5

$$$$
DOXEPIN
  Marvin  02231216192D 0   1.00000     0.00000     0

 21 23  0  0  0  0  0  0  0  0999 V2000
    0.5748    0.1771    0.0000 O   0  0  0  0  0  0  0  0  0
    1.3998    0.1771    0.0000 C   0  0  0  0  0  0  0  0  0
    1.9142   -0.4679    0.0000 C   0  0  0  0  0  0  0  0  0
    1.7306   -1.2722    0.0000 C   0  0  0  0  0  0  0  0  0
    2.3354   -1.8333    0.0000 C   0  0  0  0  0  0  0  0  0
    3.1237   -1.5902    0.0000 C   0  0  0  0  0  0  0  0  0
    3.3073   -0.7858    0.0000 C   0  0  0  0  0  0  0  0  0
    2.7026   -0.2247    0.0000 C   0  0  0  0  0  0  0  0  0
    0.9873   -1.6301    0.0000 C   0  0  0  0  0  0  0  0  0
    0.2440   -1.2722    0.0000 C   0  0  0  0  0  0  0  0  0
    0.0604   -0.4679    0.0000 C   0  0  0  0  0  0  0  0  0
   -0.7279   -0.2247    0.0000 C   0  0  0  0  0  0  0  0  0
   -1.3327   -0.7858    0.0000 C   0  0  0  0  0  0  0  0  0
   -1.1491   -1.5902    0.0000 C   0  0  0  0  0  0  0  0  0
   -0.3607   -1.8333    0.0000 C   0  0  0  0  0  0  0  0  0
    0.9873   -2.4551    0.0000 C   0  0  0  0  0  0  0  0  0
    0.2729   -2.8676    0.0000 C   0  0  0  0  0  0  0  0  0
    0.2729   -3.6926    0.0000 C   0  0  0  0  0  0  0  0  0
   -0.4416   -4.1051    0.0000 N   0  0  0  0  0  0  0  0  0
   -0.4416   -4.9301    0.0000 C   0  0  0  0  0  0  0  0  0
   -1.1561   -3.6926    0.0000 C   0  0  0  0  0  0  0  0  0
  1  2  1  0  0  0  0
  1 11  1  0  0  0  0
  2  3  1  0  0  0  0
  3  4  4  0  0  0  0
  3  8  4  0  0  0  0
  4  5  4  0  0  0  0
  4  9  1  0  0  0  0
  5  6  4  0  0  0  0
  6  7  4  0  0  0  0
  7  8  4  0  0  0  0
  9 10  1  0  0  0  0
  9 16  2  0  0  0  0
 10 11  4  0  0  0  0
 10 15  4  0  0  0  0
 11 12  4  0  0  0  0
 12 13  4  0  0  0  0
 13 14  4  0  0  0  0
 14 15  4  0  0  0  0
 16 17  1  0  0  0  0
 17 18  1  0  0  0  0
 18 19  1  0  0  0  0
 19 20  1  0  0  0  0
 19 21  1  0  0  0  0
M  END
>  <Name_Molregno>
DOXEPIN

>  <5-HT1A>
6.56

>  <DOPAMINE D2>
6.44

>  <Dopamine transporter>
5

>  <HISTAMINE H1>
9.68

>  <HISTAMINE H4>
6.98

>  <Muscarinic acetylcholine receptor M1>
7.42

>  <Muscarinic acetylcholine receptor M2>
6.8

>  <Muscarinic acetylcholine receptor M3>
7.28

>  <Muscarinic acetylcholine receptor M4>
7.09

>  <Muscarinic acetylcholine receptor M5>
7.12

>  <Norepinephrine transporter>
7.53

>  <Serotonin transporter>
7.17

$$$$
Ephedrine
  Marvin  02231216192D 0   1.00000     0.00000     0

 12 12  0  0  1  0  0  0  0  0999 V2000
    1.9192   -0.0549    0.0000 O   0  0  0  0  0  0  0  0  0
    1.2047   -0.4674    0.0000 C   0  0  0  0  0  0  0  0  0
    0.4903   -0.0549    0.0000 C   0  0  0  0  0  0  0  0  0
    0.4903    0.7701    0.0000 N   0  0  0  0  0  0  0  0  0
   -0.2242    1.1826    0.0000 C   0  0  0  0  0  0  0  0  0
   -0.2242   -0.4674    0.0000 C   0  0  0  0  0  0  0  0  0
    1.2047   -1.2924    0.0000 C   0  0  0  0  0  0  0  0  0
    1.9192   -1.7049    0.0000 C   0  0  0  0  0  0  0  0  0
    1.9192   -2.5299    0.0000 C   0  0  0  0  0  0  0  0  0
    1.2047   -2.9424    0.0000 C   0  0  0  0  0  0  0  0  0
    0.4903   -2.5299    0.0000 C   0  0  0  0  0  0  0  0  0
    0.4903   -1.7049    0.0000 C   0  0  0  0  0  0  0  0  0
  1  2  1  0  0  0  0
  2  3  1  0  0  0  0
  2  7  1  0  0  0  0
  3  4  1  0  0  0  0
  3  6  1  0  0  0  0
  4  5  1  0  0  0  0
  7  8  4  0  0  0  0
  7 12  4  0  0  0  0
  8  9  4  0  0  0  0
  9 10  4  0  0  0  0
 10 11  4  0  0  0  0
 11 12  4  0  0  0  0
M  END
>  <Name_Molregno>
Ephedrine

>  <5-HT1A>
5

>  <5-HT1B>
5

>  <5-HT1D>
5

>  <5-HT1E>
5

>  <5-HT3>
5

>  <5-HT5>
5

>  <5-HT6>
5

>  <5-HT7>
5.33

>  <Alpha-1A>
5

>  <Alpha-1B>
5

>  <Alpha-2A>
5.17

>  <Alpha-2B>
5.48

>  <Alpha-2C>
5.51

>  <Beta-1>
5

>  <Beta-2>
5

>  <DOPAMINE D1>
5

>  <DOPAMINE D2>
5

>  <DOPAMINE D4>
5

>  <DOPAMINE D5>
5

>  <Dopamine transporter>
5.38

>  <HISTAMINE H1>
5

>  <HISTAMINE H2>
5

>  <HISTAMINE H4>
5

>  <Muscarinic acetylcholine receptor M1>
5

>  <Muscarinic acetylcholine receptor M2>
5

>  <Muscarinic acetylcholine receptor M3>
5

>  <Muscarinic acetylcholine receptor M4>
5

>  <Muscarinic acetylcholine receptor M5>
5

>  <Norepinephrine transporter>
5.79

>  <Serotonin transporter>
5

$$$$
ETORICOXIB
  Marvin  02231216192D 0   1.00000     0.00000     0

 24 26  0  0  0  0  0  0  0  0999 V2000
    1.3103    1.0543    0.0000 Cl  0  0  0  0  0  0  0  0  0
    1.3103    0.2293    0.0000 C   0  0  0  0  0  0  0  0  0
    2.0248   -0.1832    0.0000 C   0  0  0  0  0  0  0  0  0
    2.0248   -1.0082    0.0000 C   0  0  0  0  0  0  0  0  0
    1.3103   -1.4207    0.0000 C   0  0  0  0  0  0  0  0  0
    0.5958   -1.0082    0.0000 N   0  0  0  0  0  0  0  0  0
    0.5958   -0.1832    0.0000 C   0  0  0  0  0  0  0  0  0
    1.3103   -2.2457    0.0000 C   0  0  0  0  0  0  0  0  0
    2.0248   -2.6582    0.0000 C   0  0  0  0  0  0  0  0  0
    2.0248   -3.4832    0.0000 C   0  0  0  0  0  0  0  0  0
    1.3103   -3.8957    0.0000 C   0  0  0  0  0  0  0  0  0
    0.5958   -3.4832    0.0000 N   0  0  0  0  0  0  0  0  0
    0.5958   -2.6582    0.0000 C   0  0  0  0  0  0  0  0  0
    1.3103   -4.7207    0.0000 C   0  0  0  0  0  0  0  0  0
    2.7392   -1.4207    0.0000 C   0  0  0  0  0  0  0  0  0
    3.4537   -1.0082    0.0000 C   0  0  0  0  0  0  0  0  0
    4.1682   -1.4207    0.0000 C   0  0  0  0  0  0  0  0  0
    4.1682   -2.2457    0.0000 C   0  0  0  0  0  0  0  0  0
    4.8826   -2.6582    0.0000 S   0  0  0  0  0  0  0  0  0
    5.5971   -3.0707    0.0000 O   0  0  0  0  0  0  0  0  0
    4.4701   -3.3727    0.0000 O   0  0  0  0  0  0  0  0  0
    5.2951   -1.9437    0.0000 C   0  0  0  0  0  0  0  0  0
    3.4537   -2.6582    0.0000 C   0  0  0  0  0  0  0  0  0
    2.7392   -2.2457    0.0000 C   0  0  0  0  0  0  0  0  0
  1  2  1  0  0  0  0
  2  3  4  0  0  0  0
  2  7  4  0  0  0  0
  3  4  4  0  0  0  0
  4  5  4  0  0  0  0
  4 15  1  0  0  0  0
  5  6  4  0  0  0  0
  5  8  1  0  0  0  0
  6  7  4  0  0  0  0
  8  9  4  0  0  0  0
  8 13  4  0  0  0  0
  9 10  4  0  0  0  0
 10 11  4  0  0  0  0
 11 12  4  0  0  0  0
 11 14  1  0  0  0  0
 12 13  4  0  0  0  0
 15 16  4  0  0  0  0
 15 24  4  0  0  0  0
 16 17  4  0  0  0  0
 17 18  4  0  0  0  0
 18 19  1  0  0  0  0
 18 23  4  0  0  0  0
 19 20  2  0  0  0  0
 19 21  2  0  0  0  0
 19 22  1  0  0  0  0
 23 24  4  0  0  0  0
M  END
>  <Name_Molregno>
ETORICOXIB

>  <5-HT1A>
5

>  <5-HT1B>
5

>  <5-HT1D>
5

>  <5-HT1E>
5

>  <5-HT2A>
5

>  <5-HT3>
5

>  <5-HT6>
5

>  <5-HT7>
5

>  <Alpha-1A>
5

>  <Alpha-1B>
5

>  <Alpha-2A>
5

>  <Alpha-2B>
5

>  <Alpha-2C>
5

>  <DOPAMINE D1>
5

>  <DOPAMINE D2>
5

>  <DOPAMINE D5>
5

>  <Dopamine transporter>
5

>  <HISTAMINE H2>
5

>  <HISTAMINE H4>
5

>  <Muscarinic acetylcholine receptor M1>
5

>  <Norepinephrine transporter>
5

>  <Serotonin transporter>
5

$$$$
FLUPHENAZINE
  Marvin  02231216192D 0   1.00000     0.00000     0

 38 41  0  0  0  0  0  0  0  0999 V2000
   -7.1492   -1.5262    0.0000 S   0  0  0  0  0  0  0  0  0
   -7.1492   -2.3512    0.0000 C   0  0  0  0  0  0  0  0  0
   -6.4348   -2.7637    0.0000 C   0  0  0  0  0  0  0  0  0
   -5.7203   -2.3512    0.0000 N   0  0  0  0  0  0  0  0  0
   -5.7203   -1.5262    0.0000 C   0  0  0  0  0  0  0  0  0
   -6.4348   -1.1137    0.0000 C   0  0  0  0  0  0  0  0  0
   -6.4348   -0.2887    0.0000 C   0  0  0  0  0  0  0  0  0
   -5.7203    0.1238    0.0000 C   0  0  0  0  0  0  0  0  0
   -5.0058   -0.2887    0.0000 C   0  0  0  0  0  0  0  0  0
   -5.0058   -1.1137    0.0000 C   0  0  0  0  0  0  0  0  0
   -5.0058   -2.7637    0.0000 C   0  0  0  0  0  0  0  0  0
   -4.2914   -2.3512    0.0000 C   0  0  0  0  0  0  0  0  0
   -3.5769   -2.7637    0.0000 C   0  0  0  0  0  0  0  0  0
   -2.8624   -2.3512    0.0000 N   0  0  0  0  0  0  0  0  0
   -2.8624   -1.5262    0.0000 C   0  0  0  0  0  0  0  0  0
   -2.1479   -1.1137    0.0000 C   0  0  0  0  0  0  0  0  0
   -1.4335   -1.5262    0.0000 N   0  0  0  0  0  0  0  0  0
   -1.4335   -2.3512    0.0000 C   0  0  0  0  0  0  0  0  0
   -2.1479   -2.7637    0.0000 C   0  0  0  0  0  0  0  0  0
   -0.7190   -1.1137    0.0000 C   0  0  0  0  0  0  0  0  0
   -0.0045   -1.5262    0.0000 C   0  0  0  0  0  0  0  0  0
    0.7099   -1.1137    0.0000 O   0  0  0  0  0  0  0  0  0
    1.4244   -1.5262    0.0000 C   0  0  0  0  0  0  0  0  0
    1.4244   -2.3512    0.0000 O   0  0  0  0  0  0  0  0  0
    2.1389   -1.1137    0.0000 C   0  0  0  0  0  0  0  0  0
    2.8534   -1.5262    0.0000 C   0  0  0  0  0  0  0  0  0
    3.5678   -1.1137    0.0000 C   0  0  0  0  0  0  0  0  0
    4.2823   -1.5262    0.0000 C   0  0  0  0  0  0  0  0  0
    4.9968   -1.1137    0.0000 C   0  0  0  0  0  0  0  0  0
    5.7112   -1.5262    0.0000 C   0  0  0  0  0  0  0  0  0
   -6.4348   -3.5887    0.0000 C   0  0  0  0  0  0  0  0  0
   -7.1492   -4.0012    0.0000 C   0  0  0  0  0  0  0  0  0
   -7.8637   -3.5887    0.0000 C   0  0  0  0  0  0  0  0  0
   -7.8637   -2.7637    0.0000 C   0  0  0  0  0  0  0  0  0
   -7.1492   -4.8262    0.0000 C   0  0  0  0  0  0  0  0  0
   -7.1492   -5.6512    0.0000 F   0  0  0  0  0  0  0  0  0
   -7.9742   -4.8262    0.0000 F   0  0  0  0  0  0  0  0  0
   -6.3242   -4.8262    0.0000 F   0  0  0  0  0  0  0  0  0
  1  2  1  0  0  0  0
  1  6  1  0  0  0  0
  2  3  4  0  0  0  0
  2 34  4  0  0  0  0
  3  4  1  0  0  0  0
  3 31  4  0  0  0  0
  4  5  1  0  0  0  0
  4 11  1  0  0  0  0
  5  6  4  0  0  0  0
  5 10  4  0  0  0  0
  6  7  4  0  0  0  0
  7  8  4  0  0  0  0
  8  9  4  0  0  0  0
  9 10  4  0  0  0  0
 11 12  1  0  0  0  0
 12 13  1  0  0  0  0
 13 14  1  0  0  0  0
 14 15  1  0  0  0  0
 14 19  1  0  0  0  0
 15 16  1  0  0  0  0
 16 17  1  0  0  0  0
 17 18  1  0  0  0  0
 17 20  1  0  0  0  0
 18 19  1  0  0  0  0
 20 21  1  0  0  0  0
 21 22  1  0  0  0  0
 22 23  1  0  0  0  0
 23 24  2  0  0  0  0
 23 25  1  0  0  0  0
 25 26  1  0  0  0  0
 26 27  1  0  0  0  0
 27 28  1  0  0  0  0
 28 29  1  0  0  0  0
 29 30  1  0  0  0  0
 31 32  4  0  0  0  0
 32 33  4  0  0  0  0
 32 35  1  0  0  0  0
 33 34  4  0  0  0  0
 35 36  1  0  0  0  0
 35 37  1  0  0  0  0
 35 38  1  0  0  0  0
M  END
>  <Name_Molregno>
FLUPHENAZINE

>  <5-HT1A>
6.41

>  <5-HT1B>
6.48

>  <5-HT1D>
6.48

>  <5-HT1E>
6.27

>  <5-HT2A>
7.87

>  <5-HT2C>
6.05

>  <5-HT3>
5

>  <5-HT5>
6.84

>  <5-HT6>
7.46

>  <5-HT7>
8.1

>  <Alpha-1A>
8.19

>  <Alpha-1B>
7.89

>  <Alpha-2A>
6.5

>  <Alpha-2B>
7.09

>  <Alpha-2C>
7.54

>  <Beta-1>
5

>  <Beta-2>
5

>  <DOPAMINE D1>
7.55

>  <DOPAMINE D2>
9.22

>  <DOPAMINE D3>
9.33

>  <DOPAMINE D4>
7.52

>  <DOPAMINE D5>
7.82

>  <Dopamine transporter>
5

>  <HISTAMINE H1>
7.72

>  <HISTAMINE H2>
6.25

>  <HISTAMINE H3>
6

>  <HISTAMINE H4>
5

>  <Muscarinic acetylcholine receptor M1>
5.96

>  <Muscarinic acetylcholine receptor M2>
5.14

>  <Muscarinic acetylcholine receptor M3>
5.84

>  <Muscarinic acetylcholine receptor M4>
5.27

>  <Muscarinic acetylcholine receptor M5>
6.45

>  <Norepinephrine transporter>
5.51

>  <Serotonin transporter>
5.23

$$$$
HALOPERIDOL
  Marvin  02231216192D 0   1.00000     0.00000     0

 26 28  0  0  0  0  0  0  0  0999 V2000
    1.7138    2.6466    0.0000 Cl  0  0  0  0  0  0  0  0  0
    1.9960    1.8714    0.0000 C   0  0  0  0  0  0  0  0  0
    2.8084    1.7281    0.0000 C   0  0  0  0  0  0  0  0  0
    3.0906    0.9529    0.0000 C   0  0  0  0  0  0  0  0  0
    2.5603    0.3209    0.0000 C   0  0  0  0  0  0  0  0  0
    1.7478    0.4642    0.0000 C   0  0  0  0  0  0  0  0  0
    1.4657    1.2394    0.0000 C   0  0  0  0  0  0  0  0  0
    2.8425   -0.4543    0.0000 C   0  0  0  0  0  0  0  0  0
    2.0300   -0.5976    0.0000 O   0  0  0  0  0  0  0  0  0
    3.5569   -0.0418    0.0000 C   0  0  0  0  0  0  0  0  0
    4.2714   -0.4543    0.0000 C   0  0  0  0  0  0  0  0  0
    4.2714   -1.2793    0.0000 N   0  0  0  0  0  0  0  0  0
    3.5569   -1.6918    0.0000 C   0  0  0  0  0  0  0  0  0
    2.8425   -1.2793    0.0000 C   0  0  0  0  0  0  0  0  0
    4.9859   -1.6918    0.0000 C   0  0  0  0  0  0  0  0  0
    5.7003   -1.2793    0.0000 C   0  0  0  0  0  0  0  0  0
    6.4148   -1.6918    0.0000 C   0  0  0  0  0  0  0  0  0
    7.1293   -1.2793    0.0000 C   0  0  0  0  0  0  0  0  0
    7.1293   -0.4543    0.0000 O   0  0  0  0  0  0  0  0  0
    7.8438   -1.6918    0.0000 C   0  0  0  0  0  0  0  0  0
    8.5582   -1.2793    0.0000 C   0  0  0  0  0  0  0  0  0
    9.2727   -1.6918    0.0000 C   0  0  0  0  0  0  0  0  0
    9.2727   -2.5168    0.0000 C   0  0  0  0  0  0  0  0  0
    9.9872   -2.9293    0.0000 F   0  0  0  0  0  0  0  0  0
    8.5582   -2.9293    0.0000 C   0  0  0  0  0  0  0  0  0
    7.8438   -2.5168    0.0000 C   0  0  0  0  0  0  0  0  0
  1  2  1  0  0  0  0
  2  3  4  0  0  0  0
  2  7  4  0  0  0  0
  3  4  4  0  0  0  0
  4  5  4  0  0  0  0
  5  6  4  0  0  0  0
  5  8  1  0  0  0  0
  6  7  4  0  0  0  0
  8  9  1  0  0  0  0
  8 10  1  0  0  0  0
  8 14  1  0  0  0  0
 10 11  1  0  0  0  0
 11 12  1  0  0  0  0
 12 13  1  0  0  0  0
 12 15  1  0  0  0  0
 13 14  1  0  0  0  0
 15 16  1  0  0  0  0
 16 17  1  0  0  0  0
 17 18  1  0  0  0  0
 18 19  2  0  0  0  0
 18 20  1  0  0  0  0
 20 21  4  0  0  0  0
 20 26  4  0  0  0  0
 21 22  4  0  0  0  0
 22 23  4  0  0  0  0
 23 24  1  0  0  0  0
 23 25  4  0  0  0  0
 25 26  4  0  0  0  0
M  END
>  <Name_Molregno>
HALOPERIDOL

>  <5-HT1A>
5.67

>  <5-HT1B>
6.63

>  <5-HT1D>
5.56

>  <5-HT1E>
5.15

>  <5-HT2A>
7.01

>  <5-HT2C>
5.24

>  <5-HT3>
5

>  <5-HT5>
5.65

>  <5-HT6>
5.28

>  <5-HT7>
6.32

>  <Alpha-1A>
7.92

>  <Alpha-1B>
8.1

>  <Alpha-2A>
6.04

>  <Alpha-2B>
6.32

>  <Alpha-2C>
6.34

>  <Beta-1>
5

>  <Beta-2>
5.15

>  <DOPAMINE D1>
7.22

>  <DOPAMINE D2>
8.75

>  <DOPAMINE D3>
8.33

>  <DOPAMINE D4>
8.29

>  <DOPAMINE D5>
7.03

>  <Dopamine transporter>
5

>  <HISTAMINE H1>
6.04

>  <HISTAMINE H2>
6

>  <HISTAMINE H4>
5

>  <Muscarinic acetylcholine receptor M1>
5.4

>  <Muscarinic acetylcholine receptor M2>
5

>  <Muscarinic acetylcholine receptor M3>
5

>  <Muscarinic acetylcholine receptor M4>
5

>  <Muscarinic acetylcholine receptor M5>
5.59

>  <Norepinephrine transporter>
5.68

>  <Serotonin transporter>
5.74

$$$$
HISTAMINE
  Marvin  02231216192D 0   1.00000     0.00000     0

  8  8  0  0  0  0  0  0  0  0999 V2000
    1.0236   -1.0521    0.0000 N   0  0  0  0  0  0  0  0  0
    0.7687   -1.8367    0.0000 C   0  0  0  0  0  0  0  0  0
   -0.0563   -1.8367    0.0000 N   0  0  0  0  0  0  0  0  0
   -0.3113   -1.0521    0.0000 C   0  0  0  0  0  0  0  0  0
    0.3562   -0.5672    0.0000 C   0  0  0  0  0  0  0  0  0
    0.3562    0.2578    0.0000 C   0  0  0  0  0  0  0  0  0
    1.0706    0.6703    0.0000 C   0  0  0  0  0  0  0  0  0
    1.0706    1.4953    0.0000 N   0  0  0  0  0  0  0  0  0
  1  2  4  0  0  0  0
  1  5  4  0  0  0  0
  2  3  4  0  0  0  0
  3  4  4  0  0  0  0
  4  5  4  0  0  0  0
  5  6  1  0  0  0  0
  6  7  1  0  0  0  0
  7  8  1  0  0  0  0
M  STY  1   1 DAT
M  SAL   1  1   1
M  SDT   1 MRV_IMPLICIT_H                                        
M  SDD   1     0.0000    0.0000    DR    ALL  0       0  
M  SED   1 IMPL_H1
M  END
>  <Name_Molregno>
HISTAMINE

>  <5-HT2A>
5

>  <5-HT3>
5

>  <5-HT7>
5

>  <HISTAMINE H1>
5.5

>  <HISTAMINE H2>
5

>  <HISTAMINE H3>
7.87

>  <HISTAMINE H4>
7.46

$$$$
Imetit
  Marvin  02231216192D 0   1.00000     0.00000     0

 11 11  0  0  0  0  0  0  0  0999 V2000
    2.3375    0.0073    0.0000 S   0  0  0  0  0  0  0  0  0
    1.6230   -0.4052    0.0000 C   0  0  0  0  0  0  0  0  0
    0.9085    0.0073    0.0000 C   0  0  0  0  0  0  0  0  0
    0.1941   -0.4052    0.0000 C   0  0  0  0  0  0  0  0  0
    0.1078   -1.2257    0.0000 N   0  0  0  0  0  0  0  0  0
   -0.6992   -1.3972    0.0000 C   0  0  0  0  0  0  0  0  0
   -1.1117   -0.6827    0.0000 N   0  0  0  0  0  0  0  0  0
   -0.5596   -0.0696    0.0000 C   0  0  0  0  0  0  0  0  0
    3.0519   -0.4052    0.0000 C   0  0  0  0  0  0  0  0  0
    3.7664    0.0073    0.0000 N   0  0  0  0  0  0  0  0  0
    3.0519   -1.2302    0.0000 N   0  0  0  0  0  0  0  0  0
  1  2  1  0  0  0  0
  1  9  1  0  0  0  0
  2  3  1  0  0  0  0
  3  4  1  0  0  0  0
  4  5  4  0  0  0  0
  4  8  4  0  0  0  0
  5  6  4  0  0  0  0
  6  7  4  0  0  0  0
  7  8  4  0  0  0  0
  9 10  1  0  0  0  0
  9 11  2  0  0  0  0
M  STY  1   1 DAT
M  SAL   1  1   5
M  SDT   1 MRV_IMPLICIT_H                                        
M  SDD   1     0.0000    0.0000    DR    ALL  0       0  
M  SED   1 IMPL_H1
M  END
>  <Name_Molregno>
Imetit

>  <HISTAMINE H3>
8.35

>  <HISTAMINE H4>
6.99

$$$$
IMETIT-2
  Marvin  02231216192D 0   1.00000     0.00000     0

 11 11  0  0  0  0  0  0  0  0999 V2000
    2.3375    0.0073    0.0000 S   0  0  0  0  0  0  0  0  0
    1.6230   -0.4052    0.0000 C   0  0  0  0  0  0  0  0  0
    0.9085    0.0073    0.0000 C   0  0  0  0  0  0  0  0  0
    0.1941   -0.4052    0.0000 C   0  0  0  0  0  0  0  0  0
    0.1078   -1.2257    0.0000 N   0  0  0  0  0  0  0  0  0
   -0.6992   -1.3972    0.0000 C   0  0  0  0  0  0  0  0  0
   -1.1117   -0.6827    0.0000 N   0  0  0  0  0  0  0  0  0
   -0.5596   -0.0696    0.0000 C   0  0  0  0  0  0  0  0  0
    3.0519   -0.4052    0.0000 C   0  0  0  0  0  0  0  0  0
    3.7664    0.0073    0.0000 N   0  0  0  0  0  0  0  0  0
    3.0519   -1.2302    0.0000 N   0  0  0  0  0  0  0  0  0
  1  2  1  0  0  0  0
  1  9  1  0  0  0  0
  2  3  1  0  0  0  0
  3  4  1  0  0  0  0
  4  5  4  0  0  0  0
  4  8  4  0  0  0  0
  5  6  4  0  0  0  0
  6  7  4  0  0  0  0
  7  8  4  0  0  0  0
  9 10  1  0  0  0  0
  9 11  2  0  0  0  0
M  STY  1   1 DAT
M  SAL   1  1   7
M  SDT   1 MRV_IMPLICIT_H                                        
M  SDD   1     0.0000    0.0000    DR    ALL  0       0  
M  SED   1 IMPL_H1
M  END
>  <Name_Molregno>
IMETIT-2

>  <HISTAMINE H3>
9.02

>  <HISTAMINE H4>
8.32

$$$$
Immepip
  Marvin  02231216192D 0   1.00000     0.00000     0

 12 13  0  0  0  0  0  0  0  0999 V2000
    1.5604   -1.6758    0.0000 N   0  0  0  0  0  0  0  0  0
    1.3055   -2.4604    0.0000 C   0  0  0  0  0  0  0  0  0
    0.4805   -2.4604    0.0000 N   0  0  0  0  0  0  0  0  0
    0.2255   -1.6758    0.0000 C   0  0  0  0  0  0  0  0  0
    0.8930   -1.1908    0.0000 C   0  0  0  0  0  0  0  0  0
    0.8930   -0.3658    0.0000 C   0  0  0  0  0  0  0  0  0
    1.6075    0.0467    0.0000 C   0  0  0  0  0  0  0  0  0
    1.6075    0.8717    0.0000 C   0  0  0  0  0  0  0  0  0
    2.3219    1.2842    0.0000 C   0  0  0  0  0  0  0  0  0
    3.0364    0.8717    0.0000 N   0  0  0  0  0  0  0  0  0
    3.0364    0.0467    0.0000 C   0  0  0  0  0  0  0  0  0
    2.3219   -0.3658    0.0000 C   0  0  0  0  0  0  0  0  0
  1  2  4  0  0  0  0
  1  5  4  0  0  0  0
  2  3  4  0  0  0  0
  3  4  4  0  0  0  0
  4  5  4  0  0  0  0
  5  6  1  0  0  0  0
  6  7  1  0  0  0  0
  7  8  1  0  0  0  0
  7 12  1  0  0  0  0
  8  9  1  0  0  0  0
  9 10  1  0  0  0  0
 10 11  1  0  0  0  0
 11 12  1  0  0  0  0
M  STY  1   1 DAT
M  SAL   1  1   1
M  SDT   1 MRV_IMPLICIT_H                                        
M  SDD   1     0.0000    0.0000    DR    ALL  0       0  
M  SED   1 IMPL_H1
M  END
>  <Name_Molregno>
Immepip

>  <HISTAMINE H3>
7.73

>  <HISTAMINE H4>
8.05

$$$$
Impromidine
  Marvin  02231216192D 0   1.00000     0.00000     0

 22 23  0  0  0  0  0  0  0  0999 V2000
   -3.8767   -0.9205    0.0000 S   0  0  0  0  0  0  0  0  0
   -4.5911   -0.5080    0.0000 C   0  0  0  0  0  0  0  0  0
   -5.3056   -0.9205    0.0000 C   0  0  0  0  0  0  0  0  0
   -5.3918   -1.7410    0.0000 N   0  0  0  0  0  0  0  0  0
   -6.1988   -1.9125    0.0000 C   0  0  0  0  0  0  0  0  0
   -6.6113   -1.1980    0.0000 N   0  0  0  0  0  0  0  0  0
   -6.0593   -0.5849    0.0000 C   0  0  0  0  0  0  0  0  0
   -6.2308    0.2220    0.0000 C   0  0  0  0  0  0  0  0  0
   -3.1622   -0.5080    0.0000 C   0  0  0  0  0  0  0  0  0
   -2.4477   -0.9205    0.0000 C   0  0  0  0  0  0  0  0  0
   -1.7332   -0.5080    0.0000 N   0  0  0  0  0  0  0  0  0
   -1.0188   -0.9205    0.0000 C   0  0  0  0  0  0  0  0  0
   -0.3043   -0.5080    0.0000 N   0  0  0  0  0  0  0  0  0
   -0.3043    0.3170    0.0000 C   0  0  0  0  0  0  0  0  0
    0.4102    0.7295    0.0000 C   0  0  0  0  0  0  0  0  0
    0.4102    1.5545    0.0000 C   0  0  0  0  0  0  0  0  0
    1.1246    1.9670    0.0000 C   0  0  0  0  0  0  0  0  0
    1.2109    2.7875    0.0000 N   0  0  0  0  0  0  0  0  0
    2.0178    2.9590    0.0000 C   0  0  0  0  0  0  0  0  0
    2.4303    2.2445    0.0000 N   0  0  0  0  0  0  0  0  0
    1.8783    1.6314    0.0000 C   0  0  0  0  0  0  0  0  0
   -1.0188   -1.7455    0.0000 N   0  0  0  0  0  0  0  0  0
  1  2  1  0  0  0  0
  1  9  1  0  0  0  0
  2  3  1  0  0  0  0
  3  4  4  0  0  0  0
  3  7  4  0  0  0  0
  4  5  4  0  0  0  0
  5  6  4  0  0  0  0
  6  7  4  0  0  0  0
  7  8  1  0  0  0  0
  9 10  1  0  0  0  0
 10 11  1  0  0  0  0
 11 12  1  0  0  0  0
 12 13  2  0  0  0  0
 12 22  1  0  0  0  0
 13 14  1  0  0  0  0
 14 15  1  0  0  0  0
 15 16  1  0  0  0  0
 16 17  1  0  0  0  0
 17 18  4  0  0  0  0
 17 21  4  0  0  0  0
 18 19  4  0  0  0  0
 19 20  4  0  0  0  0
 20 21  4  0  0  0  0
M  STY  2   1 DAT   2 DAT
M  SAL   1  1   6
M  SDT   1 MRV_IMPLICIT_H                                        
M  SDD   1     0.0000    0.0000    DR    ALL  0       0  
M  SED   1 IMPL_H1
M  SAL   2  1  18
M  SDT   2 MRV_IMPLICIT_H                                        
M  SDD   2     0.0000    0.0000    DR    ALL  0       0  
M  SED   2 IMPL_H1
M  END
>  <Name_Molregno>
Impromidine

>  <HISTAMINE H3>
7.17

>  <HISTAMINE H4>
7.91

$$$$
L-cysteic-acid
  Marvin  02231216192D 0   1.00000     0.00000     0

 10  9  0  0  1  0  0  0  0  0999 V2000
   -1.9749    0.1579    0.0000 S   0  0  0  0  0  0  0  0  0
   -2.6894    0.5704    0.0000 O   0  0  0  0  0  0  0  0  0
   -2.3874   -0.5565    0.0000 O   0  0  0  0  0  0  0  0  0
   -1.5624    0.8724    0.0000 O   0  0  0  0  0  0  0  0  0
   -1.2605   -0.2546    0.0000 C   0  0  0  0  0  0  0  0  0
   -0.5460    0.1579    0.0000 C   0  0  0  0  0  0  0  0  0
   -0.5460    0.9829    0.0000 N   0  0  0  0  0  0  0  0  0
    0.1685   -0.2546    0.0000 C   0  0  0  0  0  0  0  0  0
    0.8829    0.1579    0.0000 O   0  0  0  0  0  0  0  0  0
    0.1685   -1.0796    0.0000 O   0  0  0  0  0  0  0  0  0
  1  2  2  0  0  0  0
  1  3  2  0  0  0  0
  1  4  1  0  0  0  0
  1  5  1  0  0  0  0
  5  6  1  0  0  0  0
  6  7  1  0  0  0  0
  6  8  1  0  0  0  0
  8  9  1  0  0  0  0
  8 10  2  0  0  0  0
M  END
>  <Name_Molregno>
L-cysteic-acid

>  <5-HT1A>
5

>  <5-HT1B>
5

>  <5-HT1D>
5

>  <5-HT3>
5

>  <5-HT5>
5

>  <5-HT6>
5

>  <5-HT7>
5

>  <Alpha-1A>
5

>  <Alpha-1B>
5

>  <Alpha-2A>
5

>  <Alpha-2C>
5

>  <DOPAMINE D1>
5

>  <DOPAMINE D2>
5

>  <DOPAMINE D3>
5

>  <DOPAMINE D5>
5

>  <Dopamine transporter>
5

>  <HISTAMINE H1>
5

>  <HISTAMINE H2>
5

>  <HISTAMINE H4>
5

>  <Muscarinic acetylcholine receptor M1>
5

>  <Muscarinic acetylcholine receptor M2>
5

>  <Muscarinic acetylcholine receptor M3>
5

>  <Muscarinic acetylcholine receptor M4>
5

>  <Muscarinic acetylcholine receptor M5>
5

>  <Norepinephrine transporter>
5

>  <Serotonin transporter>
5

$$$$
L-cysteine
  Marvin  02231216192D 0   1.00000     0.00000     0

  7  6  0  0  1  0  0  0  0  0999 V2000
    1.5580    2.1190    0.0000 S   0  0  0  0  0  0  0  0  0
    1.1455    1.4045    0.0000 C   0  0  0  0  0  0  0  0  0
    1.5580    0.6901    0.0000 C   0  0  0  0  0  0  0  0  0
    2.3830    0.6901    0.0000 N   0  0  0  0  0  0  0  0  0
    1.1455   -0.0244    0.0000 C   0  0  0  0  0  0  0  0  0
    1.5580   -0.7389    0.0000 O   0  0  0  0  0  0  0  0  0
    0.3205   -0.0244    0.0000 O   0  0  0  0  0  0  0  0  0
  1  2  1  0  0  0  0
  2  3  1  0  0  0  0
  3  4  1  0  0  0  0
  3  5  1  0  0  0  0
  5  6  1  0  0  0  0
  5  7  2  0  0  0  0
M  END
>  <Name_Molregno>
L-cysteine

>  <5-HT1A>
5

>  <5-HT1B>
5

>  <5-HT1D>
5

>  <5-HT3>
5

>  <5-HT5>
5

>  <5-HT6>
5

>  <5-HT7>
5

>  <Alpha-1A>
5

>  <Alpha-1B>
5

>  <Alpha-2A>
5

>  <Alpha-2B>
5

>  <Alpha-2C>
5

>  <DOPAMINE D1>
5

>  <DOPAMINE D2>
5

>  <DOPAMINE D3>
5

>  <DOPAMINE D5>
5

>  <Dopamine transporter>
5

>  <HISTAMINE H1>
5

>  <HISTAMINE H2>
5

>  <HISTAMINE H4>
5

>  <Muscarinic acetylcholine receptor M1>
5

>  <Muscarinic acetylcholine receptor M2>
5

>  <Muscarinic acetylcholine receptor M3>
5

>  <Muscarinic acetylcholine receptor M4>
5

>  <Muscarinic acetylcholine receptor M5>
5

>  <Norepinephrine transporter>
5

>  <Serotonin transporter>
5

$$$$
L-cysteine-sulfinic-acid
  Marvin  02231216192D 0   1.00000     0.00000     0

  9  8  0  0  1  0  0  0  0  0999 V2000
   -2.0945    0.5537    0.0000 S   0  0  0  0  0  0  0  0  0
   -2.8090    0.1412    0.0000 O   0  0  0  0  0  0  0  0  0
   -2.0945    1.3787    0.0000 O   0  0  0  0  0  0  0  0  0
   -1.3800    0.1412    0.0000 C   0  0  0  0  0  0  0  0  0
   -0.6656    0.5537    0.0000 C   0  0  0  0  0  0  0  0  0
   -0.6656    1.3787    0.0000 N   0  0  0  0  0  0  0  0  0
    0.0489    0.1412    0.0000 C   0  0  0  0  0  0  0  0  0
    0.7634    0.5537    0.0000 O   0  0  0  0  0  0  0  0  0
    0.0489   -0.6838    0.0000 O   0  0  0  0  0  0  0  0  0
  1  2  2  0  0  0  0
  1  3  1  0  0  0  0
  1  4  1  0  0  0  0
  4  5  1  0  0  0  0
  5  6  1  0  0  0  0
  5  7  1  0  0  0  0
  7  8  1  0  0  0  0
  7  9  2  0  0  0  0
M  END
>  <Name_Molregno>
L-cysteine-sulfinic-acid

>  <5-HT1A>
5

>  <5-HT1B>
5

>  <5-HT1D>
5

>  <5-HT3>
5

>  <5-HT5>
5

>  <5-HT6>
5

>  <5-HT7>
5

>  <Alpha-1A>
5

>  <Alpha-1B>
5

>  <Alpha-2A>
5

>  <Alpha-2B>
5

>  <Alpha-2C>
5

>  <DOPAMINE D1>
5

>  <DOPAMINE D2>
5

>  <DOPAMINE D3>
5

>  <DOPAMINE D5>
5

>  <Dopamine transporter>
5

>  <HISTAMINE H1>
5

>  <HISTAMINE H2>
5

>  <HISTAMINE H4>
5

>  <Muscarinic acetylcholine receptor M1>
5

>  <Muscarinic acetylcholine receptor M2>
5

>  <Muscarinic acetylcholine receptor M3>
5

>  <Muscarinic acetylcholine receptor M4>
5

>  <Muscarinic acetylcholine receptor M5>
5

>  <Norepinephrine transporter>
5

>  <Serotonin transporter>
5

$$$$
L-homocysteine-thiolactone
  Marvin  02231216192D 0   1.00000     0.00000     0

  7  7  0  0  1  0  0  0  0  0999 V2000
    1.4299   -0.7189    0.0000 S   0  0  0  0  0  0  0  0  0
    1.1749   -1.5035    0.0000 C   0  0  0  0  0  0  0  0  0
    0.3499   -1.5035    0.0000 C   0  0  0  0  0  0  0  0  0
    0.0950   -0.7189    0.0000 C   0  0  0  0  0  0  0  0  0
   -0.6896   -0.4639    0.0000 N   0  0  0  0  0  0  0  0  0
    0.7624   -0.2339    0.0000 C   0  0  0  0  0  0  0  0  0
    0.7624    0.5911    0.0000 O   0  0  0  0  0  0  0  0  0
  1  2  1  0  0  0  0
  1  6  1  0  0  0  0
  2  3  1  0  0  0  0
  3  4  1  0  0  0  0
  4  5  1  0  0  0  0
  4  6  1  0  0  0  0
  6  7  2  0  0  0  0
M  END
>  <Name_Molregno>
L-homocysteine-thiolactone

>  <5-HT1A>
5

>  <5-HT3>
5

>  <5-HT5>
5

>  <5-HT6>
5

>  <5-HT7>
5

>  <Alpha-1A>
5

>  <Alpha-1B>
5

>  <Alpha-2A>
5

>  <Alpha-2B>
5

>  <Alpha-2C>
5

>  <DOPAMINE D1>
5

>  <DOPAMINE D2>
5

>  <DOPAMINE D5>
5

>  <Dopamine transporter>
5

>  <HISTAMINE H1>
5

>  <HISTAMINE H2>
5

>  <HISTAMINE H4>
5

>  <Muscarinic acetylcholine receptor M1>
5

>  <Muscarinic acetylcholine receptor M2>
5

>  <Muscarinic acetylcholine receptor M3>
5

>  <Muscarinic acetylcholine receptor M4>
5

>  <Muscarinic acetylcholine receptor M5>
5

>  <Norepinephrine transporter>
5

>  <Serotonin transporter>
5

$$$$
LOXAPINE
  Marvin  02231216192D 0   1.00000     0.00000     0

 23 26  0  0  0  0  0  0  0  0999 V2000
    3.9671    1.6854    0.0000 Cl  0  0  0  0  0  0  0  0  0
    3.1788    1.4422    0.0000 C   0  0  0  0  0  0  0  0  0
    2.5740    2.0033    0.0000 C   0  0  0  0  0  0  0  0  0
    1.7856    1.7602    0.0000 C   0  0  0  0  0  0  0  0  0
    1.6021    0.9558    0.0000 C   0  0  0  0  0  0  0  0  0
    0.8588    0.5979    0.0000 O   0  0  0  0  0  0  0  0  0
    0.1155    0.9558    0.0000 C   0  0  0  0  0  0  0  0  0
   -0.0681    1.7602    0.0000 C   0  0  0  0  0  0  0  0  0
    0.4463    2.4052    0.0000 N   0  0  0  0  0  0  0  0  0
    1.2713    2.4052    0.0000 C   0  0  0  0  0  0  0  0  0
    1.6292    3.1485    0.0000 N   0  0  0  0  0  0  0  0  0
    1.1645    3.8301    0.0000 C   0  0  0  0  0  0  0  0  0
    1.5224    4.5734    0.0000 C   0  0  0  0  0  0  0  0  0
    2.3451    4.6351    0.0000 N   0  0  0  0  0  0  0  0  0
    2.8099    3.9534    0.0000 C   0  0  0  0  0  0  0  0  0
    2.4519    3.2101    0.0000 C   0  0  0  0  0  0  0  0  0
    2.7031    5.3784    0.0000 C   0  0  0  0  0  0  0  0  0
   -0.8565    2.0033    0.0000 C   0  0  0  0  0  0  0  0  0
   -1.4612    1.4422    0.0000 C   0  0  0  0  0  0  0  0  0
   -1.2776    0.6379    0.0000 C   0  0  0  0  0  0  0  0  0
   -0.4893    0.3947    0.0000 C   0  0  0  0  0  0  0  0  0
    2.2068    0.3947    0.0000 C   0  0  0  0  0  0  0  0  0
    2.9952    0.6379    0.0000 C   0  0  0  0  0  0  0  0  0
  1  2  1  0  0  0  0
  2  3  4  0  0  0  0
  2 23  4  0  0  0  0
  3  4  4  0  0  0  0
  4  5  4  0  0  0  0
  4 10  1  0  0  0  0
  5  6  1  0  0  0  0
  5 22  4  0  0  0  0
  6  7  1  0  0  0  0
  7  8  4  0  0  0  0
  7 21  4  0  0  0  0
  8  9  1  0  0  0  0
  8 18  4  0  0  0  0
  9 10  2  0  0  0  0
 10 11  1  0  0  0  0
 11 12  1  0  0  0  0
 11 16  1  0  0  0  0
 12 13  1  0  0  0  0
 13 14  1  0  0  0  0
 14 15  1  0  0  0  0
 14 17  1  0  0  0  0
 15 16  1  0  0  0  0
 18 19  4  0  0  0  0
 19 20  4  0  0  0  0
 20 21  4  0  0  0  0
 22 23  4  0  0  0  0
M  END
>  <Name_Molregno>
LOXAPINE

>  <5-HT1A>
5.59

>  <5-HT1B>
6.41

>  <5-HT1D>
5.46

>  <5-HT1E>
5.85

>  <5-HT2A>
8.43

>  <5-HT2C>
7.9

>  <5-HT3>
6.72

>  <5-HT5>
6.11

>  <5-HT6>
7.46

>  <5-HT7>
7.06

>  <Alpha-1A>
7.51

>  <Alpha-1B>
7.28

>  <Alpha-2A>
6.82

>  <Alpha-2B>
6.97

>  <Alpha-2C>
7.1

>  <Beta-1>
5

>  <Beta-2>
5

>  <DOPAMINE D1>
7.27

>  <DOPAMINE D2>
7.74

>  <DOPAMINE D3>
7.64

>  <DOPAMINE D4>
8.04

>  <DOPAMINE D5>
7.12

>  <Dopamine transporter>
5

>  <HISTAMINE H1>
8.33

>  <HISTAMINE H2>
6.68

>  <HISTAMINE H4>
5.32

>  <Muscarinic acetylcholine receptor M1>
6.98

>  <Muscarinic acetylcholine receptor M2>
6.38

>  <Muscarinic acetylcholine receptor M3>
6.74

>  <Muscarinic acetylcholine receptor M4>
6.09

>  <Muscarinic acetylcholine receptor M5>
6.83

>  <Norepinephrine transporter>
5.24

>  <Serotonin transporter>
5

$$$$
Meloxicam
  Marvin  02231216192D 0   1.00000     0.00000     0

 23 25  0  0  0  0  0  0  0  0999 V2000
    1.0530    2.3261    0.0000 S   0  0  0  0  0  0  0  0  0
    0.2461    2.4976    0.0000 C   0  0  0  0  0  0  0  0  0
   -0.1664    1.7831    0.0000 C   0  0  0  0  0  0  0  0  0
    0.3856    1.1700    0.0000 N   0  0  0  0  0  0  0  0  0
    1.1393    1.5056    0.0000 C   0  0  0  0  0  0  0  0  0
    1.8537    1.0931    0.0000 N   0  0  0  0  0  0  0  0  0
    1.8537    0.2681    0.0000 C   0  0  0  0  0  0  0  0  0
    1.1393   -0.1444    0.0000 O   0  0  0  0  0  0  0  0  0
    2.5682   -0.1444    0.0000 C   0  0  0  0  0  0  0  0  0
    2.5682   -0.9694    0.0000 N   0  0  0  0  0  0  0  0  0
    3.2827   -1.3819    0.0000 S   0  0  0  0  0  0  0  0  0
    2.7524   -2.0139    0.0000 O   0  0  0  0  0  0  0  0  0
    3.8130   -2.0139    0.0000 O   0  0  0  0  0  0  0  0  0
    3.9972   -0.9694    0.0000 C   0  0  0  0  0  0  0  0  0
    3.9972   -0.1444    0.0000 C   0  0  0  0  0  0  0  0  0
    4.7116    0.2681    0.0000 C   0  0  0  0  0  0  0  0  0
    5.4261   -0.1444    0.0000 C   0  0  0  0  0  0  0  0  0
    5.4261   -0.9694    0.0000 C   0  0  0  0  0  0  0  0  0
    4.7116   -1.3819    0.0000 C   0  0  0  0  0  0  0  0  0
    3.2827    0.2681    0.0000 C   0  0  0  0  0  0  0  0  0
    3.2827    1.0931    0.0000 O   0  0  0  0  0  0  0  0  0
    1.8537   -1.3819    0.0000 C   0  0  0  0  0  0  0  0  0
   -0.0895    3.2513    0.0000 C   0  0  0  0  0  0  0  0  0
  1  2  4  0  0  0  0
  1  5  4  0  0  0  0
  2  3  4  0  0  0  0
  2 23  1  0  0  0  0
  3  4  4  0  0  0  0
  4  5  4  0  0  0  0
  5  6  1  0  0  0  0
  6  7  1  0  0  0  0
  7  8  1  0  0  0  0
  7  9  2  0  0  0  0
  9 10  1  0  0  0  0
  9 20  1  0  0  0  0
 10 11  1  0  0  0  0
 10 22  1  0  0  0  0
 11 12  2  0  0  0  0
 11 13  2  0  0  0  0
 11 14  1  0  0  0  0
 14 15  4  0  0  0  0
 14 19  4  0  0  0  0
 15 16  4  0  0  0  0
 15 20  1  0  0  0  0
 16 17  4  0  0  0  0
 17 18  4  0  0  0  0
 18 19  4  0  0  0  0
 20 21  2  0  0  0  0
M  END
>  <Name_Molregno>
Meloxicam

>  <5-HT1A>
5

>  <5-HT1B>
5

>  <5-HT1D>
5

>  <5-HT1E>
5

>  <5-HT2A>
5

>  <5-HT3>
5

>  <5-HT5>
5

>  <5-HT6>
5

>  <5-HT7>
5

>  <Alpha-1A>
5

>  <Alpha-1B>
5

>  <Alpha-2A>
5

>  <Alpha-2B>
5

>  <Alpha-2C>
5

>  <DOPAMINE D1>
5

>  <DOPAMINE D2>
5

>  <DOPAMINE D4>
5

>  <DOPAMINE D5>
5

>  <Dopamine transporter>
5

>  <HISTAMINE H1>
5

>  <HISTAMINE H2>
5

>  <HISTAMINE H4>
5

>  <Muscarinic acetylcholine receptor M2>
5

>  <Muscarinic acetylcholine receptor M5>
5

>  <Norepinephrine transporter>
5

>  <Serotonin transporter>
5

$$$$
Methcathinone
  Marvin  02231216192D 0   1.00000     0.00000     0

 12 12  0  0  1  0  0  0  0  0999 V2000
    1.9192   -0.0549    0.0000 O   0  0  0  0  0  0  0  0  0
    1.2047   -0.4674    0.0000 C   0  0  0  0  0  0  0  0  0
    0.4903   -0.0549    0.0000 C   0  0  0  0  0  0  0  0  0
    0.4903    0.7701    0.0000 N   0  0  0  0  0  0  0  0  0
   -0.2242    1.1826    0.0000 C   0  0  0  0  0  0  0  0  0
   -0.2242   -0.4674    0.0000 C   0  0  0  0  0  0  0  0  0
    1.2047   -1.2924    0.0000 C   0  0  0  0  0  0  0  0  0
    1.9192   -1.7049    0.0000 C   0  0  0  0  0  0  0  0  0
    1.9192   -2.5299    0.0000 C   0  0  0  0  0  0  0  0  0
    1.2047   -2.9424    0.0000 C   0  0  0  0  0  0  0  0  0
    0.4903   -2.5299    0.0000 C   0  0  0  0  0  0  0  0  0
    0.4903   -1.7049    0.0000 C   0  0  0  0  0  0  0  0  0
  1  2  2  0  0  0  0
  2  3  1  0  0  0  0
  2  7  1  0  0  0  0
  3  4  1  0  0  0  0
  3  6  1  0  0  0  0
  4  5  1  0  0  0  0
  7  8  4  0  0  0  0
  7 12  4  0  0  0  0
  8  9  4  0  0  0  0
  9 10  4  0  0  0  0
 10 11  4  0  0  0  0
 11 12  4  0  0  0  0
M  END
>  <Name_Molregno>
Methcathinone

>  <5-HT1A>
5

>  <5-HT1B>
5

>  <5-HT1D>
5

>  <5-HT1E>
5

>  <5-HT3>
5

>  <5-HT5>
5

>  <5-HT6>
5

>  <5-HT7>
6

>  <Alpha-1A>
5

>  <Alpha-1B>
5

>  <Alpha-2A>
5.04

>  <Alpha-2B>
5.81

>  <Alpha-2C>
6.22

>  <Beta-1>
5

>  <Beta-2>
5

>  <DOPAMINE D1>
5

>  <DOPAMINE D2>
5

>  <DOPAMINE D4>
5

>  <DOPAMINE D5>
5

>  <Dopamine transporter>
6.41

>  <HISTAMINE H1>
5

>  <HISTAMINE H2>
5

>  <HISTAMINE H4>
5

>  <Muscarinic acetylcholine receptor M1>
5

>  <Muscarinic acetylcholine receptor M2>
5

>  <Muscarinic acetylcholine receptor M3>
5

>  <Muscarinic acetylcholine receptor M4>
5

>  <Muscarinic acetylcholine receptor M5>
5

>  <Norepinephrine transporter>
6.87

>  <Serotonin transporter>
5.38

$$$$
METHIMEPIP
  Marvin  02231216192D 0   1.00000     0.00000     0

 13 14  0  0  0  0  0  0  0  0999 V2000
   -3.1437   -1.2213    0.0000 N   0  0  0  0  0  0  0  0  0
   -3.3986   -0.4367    0.0000 C   0  0  0  0  0  0  0  0  0
   -2.7312    0.0482    0.0000 C   0  0  0  0  0  0  0  0  0
   -2.0638   -0.4367    0.0000 N   0  0  0  0  0  0  0  0  0
   -2.3187   -1.2213    0.0000 C   0  0  0  0  0  0  0  0  0
   -2.7312    0.8732    0.0000 C   0  0  0  0  0  0  0  0  0
   -2.0167    1.2857    0.0000 C   0  0  0  0  0  0  0  0  0
   -2.0167    2.1107    0.0000 C   0  0  0  0  0  0  0  0  0
   -1.3022    2.5232    0.0000 C   0  0  0  0  0  0  0  0  0
   -0.5878    2.1107    0.0000 N   0  0  0  0  0  0  0  0  0
   -0.5878    1.2857    0.0000 C   0  0  0  0  0  0  0  0  0
   -1.3022    0.8732    0.0000 C   0  0  0  0  0  0  0  0  0
    0.1267    2.5232    0.0000 C   0  0  0  0  0  0  0  0  0
  1  2  4  0  0  0  0
  1  5  4  0  0  0  0
  2  3  4  0  0  0  0
  3  4  4  0  0  0  0
  3  6  1  0  0  0  0
  4  5  4  0  0  0  0
  6  7  1  0  0  0  0
  7  8  1  0  0  0  0
  7 12  1  0  0  0  0
  8  9  1  0  0  0  0
  9 10  1  0  0  0  0
 10 11  1  0  0  0  0
 10 13  1  0  0  0  0
 11 12  1  0  0  0  0
M  STY  1   1 DAT
M  SAL   1  1   1
M  SDT   1 MRV_IMPLICIT_H                                        
M  SDD   1     0.0000    0.0000    DR    ALL  0       0  
M  SED   1 IMPL_H1
M  END
>  <Name_Molregno>
METHIMEPIP

>  <HISTAMINE H1>
5

>  <HISTAMINE H2>
5

>  <HISTAMINE H3>
9

>  <HISTAMINE H4>
5.7

$$$$
MIANSERIN
  Marvin  02231216192D 0   1.00000     0.00000     0

 20 23  0  0  1  0  0  0  0  0999 V2000
   -0.0097    0.0139    0.0000 N   0  0  0  0  0  0  0  0  0
    0.8153    0.0139    0.0000 C   0  0  0  0  0  0  0  0  0
    1.3296   -0.6312    0.0000 C   0  0  0  0  0  0  0  0  0
    1.1460   -1.4355    0.0000 C   0  0  0  0  0  0  0  0  0
    0.4028   -1.7934    0.0000 C   0  0  0  0  0  0  0  0  0
   -0.3405   -1.4355    0.0000 C   0  0  0  0  0  0  0  0  0
   -0.5241   -0.6312    0.0000 C   0  0  0  0  0  0  0  0  0
   -1.3125   -0.3880    0.0000 C   0  0  0  0  0  0  0  0  0
   -1.9172   -0.9491    0.0000 C   0  0  0  0  0  0  0  0  0
   -1.7337   -1.7534    0.0000 C   0  0  0  0  0  0  0  0  0
   -0.9453   -1.9966    0.0000 C   0  0  0  0  0  0  0  0  0
    1.7508   -1.9966    0.0000 C   0  0  0  0  0  0  0  0  0
    2.5392   -1.7534    0.0000 C   0  0  0  0  0  0  0  0  0
    2.7227   -0.9491    0.0000 C   0  0  0  0  0  0  0  0  0
    2.1180   -0.3880    0.0000 C   0  0  0  0  0  0  0  0  0
    1.2278    0.7283    0.0000 C   0  0  0  0  0  0  0  0  0
    0.8153    1.4428    0.0000 N   0  0  0  0  0  0  0  0  0
   -0.0097    1.4428    0.0000 C   0  0  0  0  0  0  0  0  0
   -0.4222    0.7283    0.0000 C   0  0  0  0  0  0  0  0  0
    1.2278    2.1573    0.0000 C   0  0  0  0  0  0  0  0  0
  1  2  1  0  0  0  0
  1  7  1  0  0  0  0
  1 19  1  0  0  0  0
  2  3  1  0  0  0  0
  2 16  1  0  0  0  0
  3  4  4  0  0  0  0
  3 15  4  0  0  0  0
  4  5  1  0  0  0  0
  4 12  4  0  0  0  0
  5  6  1  0  0  0  0
  6  7  4  0  0  0  0
  6 11  4  0  0  0  0
  7  8  4  0  0  0  0
  8  9  4  0  0  0  0
  9 10  4  0  0  0  0
 10 11  4  0  0  0  0
 12 13  4  0  0  0  0
 13 14  4  0  0  0  0
 14 15  4  0  0  0  0
 16 17  1  0  0  0  0
 17 18  1  0  0  0  0
 17 20  1  0  0  0  0
 18 19  1  0  0  0  0
M  END
>  <Name_Molregno>
MIANSERIN

>  <5-HT1A>
6.15

>  <5-HT1D>
6.53

>  <5-HT2A>
8.13

>  <5-HT2C>
8.5

>  <5-HT6>
7.2

>  <5-HT7>
7.28

>  <Alpha-2A>
8.32

>  <Alpha-2B>
7.57

>  <Alpha-2C>
8.42

>  <DOPAMINE D1>
6.11

>  <DOPAMINE D2>
5.69

>  <DOPAMINE D3>
5.55

>  <Dopamine transporter>
5.03

>  <HISTAMINE H1>
9.13

>  <HISTAMINE H4>
6.12

>  <Norepinephrine transporter>
7.15

>  <Serotonin transporter>
5.4

$$$$
N-(4-Acetamidophenyl)indomethacinamide
  Marvin  02231216192D 0   1.00000     0.00000     0

 37 40  0  0  0  0  0  0  0  0999 V2000
    0.5106    2.7433    0.0000 Cl  0  0  0  0  0  0  0  0  0
    1.3311    2.6571    0.0000 C   0  0  0  0  0  0  0  0  0
    1.8160    3.3245    0.0000 C   0  0  0  0  0  0  0  0  0
    2.6365    3.2383    0.0000 C   0  0  0  0  0  0  0  0  0
    2.9720    2.4846    0.0000 C   0  0  0  0  0  0  0  0  0
    2.4871    1.8172    0.0000 C   0  0  0  0  0  0  0  0  0
    1.6666    1.9034    0.0000 C   0  0  0  0  0  0  0  0  0
    3.7925    2.3984    0.0000 C   0  0  0  0  0  0  0  0  0
    4.2774    3.0658    0.0000 O   0  0  0  0  0  0  0  0  0
    4.1281    1.6447    0.0000 N   0  0  0  0  0  0  0  0  0
    3.7156    0.9302    0.0000 C   0  0  0  0  0  0  0  0  0
    4.2676    0.3171    0.0000 C   0  0  0  0  0  0  0  0  0
    4.0127   -0.4675    0.0000 C   0  0  0  0  0  0  0  0  0
    3.2057   -0.6390    0.0000 C   0  0  0  0  0  0  0  0  0
    2.9508   -1.4236    0.0000 O   0  0  0  0  0  0  0  0  0
    2.1438   -1.5952    0.0000 C   0  0  0  0  0  0  0  0  0
    2.6537   -0.0259    0.0000 C   0  0  0  0  0  0  0  0  0
    2.9086    0.7587    0.0000 C   0  0  0  0  0  0  0  0  0
    5.0213    0.6527    0.0000 C   0  0  0  0  0  0  0  0  0
    5.7358    0.2402    0.0000 C   0  0  0  0  0  0  0  0  0
    5.7358   -0.5848    0.0000 C   0  0  0  0  0  0  0  0  0
    5.0213   -0.9973    0.0000 O   0  0  0  0  0  0  0  0  0
    6.4502   -0.9973    0.0000 N   0  0  0  0  0  0  0  0  0
    7.1647   -0.5848    0.0000 C   0  0  0  0  0  0  0  0  0
    7.1647    0.2402    0.0000 C   0  0  0  0  0  0  0  0  0
    7.8792    0.6527    0.0000 C   0  0  0  0  0  0  0  0  0
    7.8792    1.4777    0.0000 C   0  0  0  0  0  0  0  0  0
    8.5936    1.8902    0.0000 C   0  0  0  0  0  0  0  0  0
    9.3081    1.4777    0.0000 C   0  0  0  0  0  0  0  0  0
   10.0226    1.8902    0.0000 N   0  0  0  0  0  0  0  0  0
   10.7371    1.4777    0.0000 C   0  0  0  0  0  0  0  0  0
   11.4515    1.8902    0.0000 O   0  0  0  0  0  0  0  0  0
   10.7371    0.6527    0.0000 C   0  0  0  0  0  0  0  0  0
    9.3081    0.6527    0.0000 C   0  0  0  0  0  0  0  0  0
    8.5936    0.2402    0.0000 C   0  0  0  0  0  0  0  0  0
    4.9351    1.4732    0.0000 C   0  0  0  0  0  0  0  0  0
    5.5481    2.0252    0.0000 C   0  0  0  0  0  0  0  0  0
  1  2  1  0  0  0  0
  2  3  4  0  0  0  0
  2  7  4  0  0  0  0
  3  4  4  0  0  0  0
  4  5  4  0  0  0  0
  5  6  4  0  0  0  0
  5  8  1  0  0  0  0
  6  7  4  0  0  0  0
  8  9  2  0  0  0  0
  8 10  1  0  0  0  0
 10 11  4  0  0  0  0
 10 36  4  0  0  0  0
 11 12  4  0  0  0  0
 11 18  4  0  0  0  0
 12 13  4  0  0  0  0
 12 19  4  0  0  0  0
 13 14  4  0  0  0  0
 14 15  1  0  0  0  0
 14 17  4  0  0  0  0
 15 16  1  0  0  0  0
 17 18  4  0  0  0  0
 19 20  1  0  0  0  0
 19 36  4  0  0  0  0
 20 21  1  0  0  0  0
 21 22  2  0  0  0  0
 21 23  1  0  0  0  0
 23 24  1  0  0  0  0
 24 25  1  0  0  0  0
 25 26  1  0  0  0  0
 26 27  4  0  0  0  0
 26 35  4  0  0  0  0
 27 28  4  0  0  0  0
 28 29  4  0  0  0  0
 29 30  1  0  0  0  0
 29 34  4  0  0  0  0
 30 31  1  0  0  0  0
 31 32  2  0  0  0  0
 31 33  1  0  0  0  0
 34 35  4  0  0  0  0
 36 37  1  0  0  0  0
M  END
>  <Name_Molregno>
N-(4-Acetamidophenyl)indomethacinamide

>  <5-HT1A>
5

>  <5-HT1B>
5

>  <5-HT1E>
5

>  <5-HT2A>
5

>  <5-HT3>
5

>  <5-HT6>
5

>  <5-HT7>
5

>  <Alpha-1A>
5

>  <Alpha-1B>
5

>  <Alpha-2A>
5

>  <Alpha-2B>
5

>  <Alpha-2C>
5

>  <DOPAMINE D1>
5

>  <DOPAMINE D2>
5

>  <DOPAMINE D5>
5

>  <Dopamine transporter>
5

>  <HISTAMINE H1>
5

>  <HISTAMINE H2>
5

>  <HISTAMINE H4>
5

>  <Muscarinic acetylcholine receptor M2>
5

>  <Muscarinic acetylcholine receptor M5>
5

>  <Serotonin transporter>
5

$$$$
Naproxen
  Marvin  02231216192D 0   1.00000     0.00000     0

 17 18  0  0  1  0  0  0  0  0999 V2000
   -5.3383   -1.4581    0.0000 O   0  0  0  0  0  0  0  0  0
   -6.0528   -1.0456    0.0000 C   0  0  0  0  0  0  0  0  0
   -4.6238   -1.0456    0.0000 C   0  0  0  0  0  0  0  0  0
   -3.9093   -1.4581    0.0000 C   0  0  0  0  0  0  0  0  0
   -3.1949   -1.0456    0.0000 C   0  0  0  0  0  0  0  0  0
   -3.1949   -0.2206    0.0000 C   0  0  0  0  0  0  0  0  0
   -2.4804    0.1919    0.0000 C   0  0  0  0  0  0  0  0  0
   -1.7659   -0.2206    0.0000 C   0  0  0  0  0  0  0  0  0
   -1.7659   -1.0456    0.0000 C   0  0  0  0  0  0  0  0  0
   -2.4804   -1.4581    0.0000 C   0  0  0  0  0  0  0  0  0
   -1.0515    0.1919    0.0000 C   0  0  0  0  0  0  0  0  0
   -0.3370   -0.2206    0.0000 C   0  0  0  0  0  0  0  0  0
    0.3775    0.1919    0.0000 O   0  0  0  0  0  0  0  0  0
   -0.3370   -1.0456    0.0000 O   0  0  0  0  0  0  0  0  0
   -1.0515    1.0169    0.0000 C   0  0  0  0  0  0  0  0  0
   -3.9093    0.1919    0.0000 C   0  0  0  0  0  0  0  0  0
   -4.6238   -0.2206    0.0000 C   0  0  0  0  0  0  0  0  0
  1  2  1  0  0  0  0
  1  3  1  0  0  0  0
  3  4  4  0  0  0  0
  3 17  4  0  0  0  0
  4  5  4  0  0  0  0
  5  6  4  0  0  0  0
  5 10  4  0  0  0  0
  6  7  4  0  0  0  0
  6 16  4  0  0  0  0
  7  8  4  0  0  0  0
  8  9  4  0  0  0  0
  8 11  1  0  0  0  0
  9 10  4  0  0  0  0
 11 12  1  0  0  0  0
 11 15  1  0  0  0  0
 12 13  1  0  0  0  0
 12 14  2  0  0  0  0
 16 17  4  0  0  0  0
M  END
>  <Name_Molregno>
Naproxen

>  <5-HT1A>
5

>  <5-HT1B>
5

>  <5-HT1D>
5

>  <5-HT1E>
5

>  <5-HT2A>
5

>  <5-HT3>
5

>  <5-HT5>
5

>  <5-HT6>
5

>  <5-HT7>
5

>  <Alpha-1A>
5

>  <Alpha-1B>
5

>  <Alpha-2A>
5

>  <Alpha-2B>
5

>  <Alpha-2C>
5

>  <DOPAMINE D1>
5

>  <DOPAMINE D2>
5

>  <DOPAMINE D4>
5

>  <DOPAMINE D5>
5

>  <Dopamine transporter>
5

>  <HISTAMINE H1>
5

>  <HISTAMINE H2>
5

>  <HISTAMINE H4>
5

>  <Muscarinic acetylcholine receptor M2>
5

>  <Muscarinic acetylcholine receptor M5>
5

>  <Norepinephrine transporter>
5

>  <Serotonin transporter>
5

$$$$
N-DESMETHYLCLOZAPINE
  Marvin  02231216192D 0   1.00000     0.00000     0

 22 25  0  0  0  0  0  0  0  0999 V2000
   -0.3818   -1.7384    0.0000 Cl  0  0  0  0  0  0  0  0  0
    0.4065   -1.9816    0.0000 C   0  0  0  0  0  0  0  0  0
    1.0113   -1.4204    0.0000 C   0  0  0  0  0  0  0  0  0
    1.7996   -1.6636    0.0000 C   0  0  0  0  0  0  0  0  0
    2.3140   -1.0186    0.0000 N   0  0  0  0  0  0  0  0  0
    3.1390   -1.0186    0.0000 C   0  0  0  0  0  0  0  0  0
    3.4969   -0.2753    0.0000 N   0  0  0  0  0  0  0  0  0
    3.0322    0.4063    0.0000 C   0  0  0  0  0  0  0  0  0
    3.3902    1.1496    0.0000 C   0  0  0  0  0  0  0  0  0
    4.2129    1.2113    0.0000 N   0  0  0  0  0  0  0  0  0
    4.6776    0.5296    0.0000 C   0  0  0  0  0  0  0  0  0
    4.3196   -0.2137    0.0000 C   0  0  0  0  0  0  0  0  0
    3.6534   -1.6636    0.0000 C   0  0  0  0  0  0  0  0  0
    3.4698   -2.4679    0.0000 C   0  0  0  0  0  0  0  0  0
    2.7265   -2.8259    0.0000 N   0  0  0  0  0  0  0  0  0
    1.9832   -2.4679    0.0000 C   0  0  0  0  0  0  0  0  0
    1.3784   -3.0291    0.0000 C   0  0  0  0  0  0  0  0  0
    0.5901   -2.7859    0.0000 C   0  0  0  0  0  0  0  0  0
    4.0746   -3.0291    0.0000 C   0  0  0  0  0  0  0  0  0
    4.8629   -2.7859    0.0000 C   0  0  0  0  0  0  0  0  0
    5.0465   -1.9816    0.0000 C   0  0  0  0  0  0  0  0  0
    4.4417   -1.4204    0.0000 C   0  0  0  0  0  0  0  0  0
  1  2  1  0  0  0  0
  2  3  4  0  0  0  0
  2 18  4  0  0  0  0
  3  4  4  0  0  0  0
  4  5  1  0  0  0  0
  4 16  4  0  0  0  0
  5  6  1  0  0  0  0
  6  7  1  0  0  0  0
  6 13  2  0  0  0  0
  7  8  1  0  0  0  0
  7 12  1  0  0  0  0
  8  9  1  0  0  0  0
  9 10  1  0  0  0  0
 10 11  1  0  0  0  0
 11 12  1  0  0  0  0
 13 14  1  0  0  0  0
 13 22  1  0  0  0  0
 14 15  2  0  0  0  0
 14 19  1  0  0  0  0
 15 16  1  0  0  0  0
 16 17  4  0  0  0  0
 17 18  4  0  0  0  0
 19 20  2  0  0  0  0
 20 21  1  0  0  0  0
 21 22  2  0  0  0  0
M  END
>  <Name_Molregno>
N-DESMETHYLCLOZAPINE

>  <5-HT1A>
7.86

>  <5-HT1B>
6.39

>  <5-HT1D>
6.32

>  <5-HT1E>
6.41

>  <5-HT2A>
7.96

>  <5-HT3>
6.57

>  <5-HT5>
6.46

>  <5-HT6>
7.94

>  <5-HT7>
7.22

>  <Alpha-1A>
6.98

>  <Alpha-1B>
7.07

>  <Alpha-2A>
6.86

>  <Alpha-2B>
7.02

>  <Alpha-2C>
6.93

>  <Beta-1>
5.2

>  <Beta-2>
5.33

>  <DOPAMINE D1>
7.84

>  <DOPAMINE D2>
7

>  <DOPAMINE D3>
6.82

>  <DOPAMINE D4>
7.28

>  <DOPAMINE D5>
6.55

>  <Dopamine transporter>
5

>  <HISTAMINE H1>
8.47

>  <HISTAMINE H2>
6.46

>  <HISTAMINE H4>
5.99

>  <Muscarinic acetylcholine receptor M1>
7.17

>  <Muscarinic acetylcholine receptor M2>
6.38

>  <Muscarinic acetylcholine receptor M3>
7.02

>  <Muscarinic acetylcholine receptor M4>
6.77

>  <Muscarinic acetylcholine receptor M5>
7.45

>  <Norepinephrine transporter>
6.31

>  <Serotonin transporter>
6.5

$$$$
nimesulide
  Marvin  02231216192D 0   1.00000     0.00000     0

 21 22  0  0  0  0  0  0  0  0999 V2000
    3.1126    1.9121    0.0000 S   0  0  0  0  0  0  0  0  0
    3.8271    2.3246    0.0000 O   0  0  0  0  0  0  0  0  0
    2.7001    2.6266    0.0000 O   0  0  0  0  0  0  0  0  0
    2.3982    1.4996    0.0000 N   0  0  0  0  0  0  0  0  0
    2.3982    0.6746    0.0000 C   0  0  0  0  0  0  0  0  0
    3.1126    0.2621    0.0000 C   0  0  0  0  0  0  0  0  0
    3.1126   -0.5629    0.0000 C   0  0  0  0  0  0  0  0  0
    2.3982   -0.9754    0.0000 C   0  0  0  0  0  0  0  0  0
    2.3982   -1.8004    0.0000 N   0  3  0  0  0  0  0  0  0
    1.6837   -2.2129    0.0000 O   0  5  0  0  0  0  0  0  0
    3.1126   -2.2129    0.0000 O   0  5  0  0  0  0  0  0  0
    1.6837   -0.5629    0.0000 C   0  0  0  0  0  0  0  0  0
    1.6837    0.2621    0.0000 C   0  0  0  0  0  0  0  0  0
    0.9692    0.6746    0.0000 O   0  0  0  0  0  0  0  0  0
    0.9692    1.4996    0.0000 C   0  0  0  0  0  0  0  0  0
    0.2548    1.9121    0.0000 C   0  0  0  0  0  0  0  0  0
    0.2548    2.7371    0.0000 C   0  0  0  0  0  0  0  0  0
    0.9692    3.1496    0.0000 C   0  0  0  0  0  0  0  0  0
    1.6837    2.7371    0.0000 C   0  0  0  0  0  0  0  0  0
    1.6837    1.9121    0.0000 C   0  0  0  0  0  0  0  0  0
    3.5251    1.1976    0.0000 C   0  0  0  0  0  0  0  0  0
  1  2  2  0  0  0  0
  1  3  2  0  0  0  0
  1  4  1  0  0  0  0
  1 21  1  0  0  0  0
  4  5  1  0  0  0  0
  5  6  4  0  0  0  0
  5 13  4  0  0  0  0
  6  7  4  0  0  0  0
  7  8  4  0  0  0  0
  8  9  1  0  0  0  0
  8 12  4  0  0  0  0
  9 10  1  0  0  0  0
  9 11  1  0  0  0  0
 12 13  4  0  0  0  0
 13 14  1  0  0  0  0
 14 15  1  0  0  0  0
 15 16  4  0  0  0  0
 15 20  4  0  0  0  0
 16 17  4  0  0  0  0
 17 18  4  0  0  0  0
 18 19  4  0  0  0  0
 19 20  4  0  0  0  0
M  CHG  3   9   1  10  -1  11  -1
M  END
>  <Name_Molregno>
nimesulide

>  <5-HT1A>
5

>  <5-HT1B>
5

>  <5-HT1D>
5

>  <5-HT1E>
5

>  <5-HT2A>
5

>  <5-HT3>
5

>  <5-HT5>
5

>  <5-HT6>
5

>  <5-HT7>
5

>  <Alpha-1A>
5

>  <Alpha-1B>
5

>  <Alpha-2A>
5

>  <Alpha-2B>
5

>  <Alpha-2C>
5

>  <DOPAMINE D1>
5

>  <DOPAMINE D2>
5

>  <DOPAMINE D4>
5

>  <DOPAMINE D5>
5

>  <Dopamine transporter>
5

>  <HISTAMINE H1>
5

>  <HISTAMINE H2>
5

>  <HISTAMINE H4>
5

>  <Muscarinic acetylcholine receptor M2>
5

>  <Muscarinic acetylcholine receptor M5>
5

>  <Norepinephrine transporter>
5

>  <Serotonin transporter>
5

$$$$
N-methylhistamine
  Marvin  02231216192D 0   1.00000     0.00000     0

  9  9  0  0  0  0  0  0  0  0999 V2000
    1.6283   -1.4230    0.0000 N   0  0  0  0  0  0  0  0  0
    1.3733   -2.2076    0.0000 C   0  0  0  0  0  0  0  0  0
    0.5483   -2.2076    0.0000 N   0  0  0  0  0  0  0  0  0
    0.2934   -1.4230    0.0000 C   0  0  0  0  0  0  0  0  0
    0.9608   -0.9380    0.0000 C   0  0  0  0  0  0  0  0  0
    0.9608   -0.1130    0.0000 C   0  0  0  0  0  0  0  0  0
    0.2463    0.2995    0.0000 C   0  0  0  0  0  0  0  0  0
    0.2463    1.1245    0.0000 N   0  0  0  0  0  0  0  0  0
   -0.4681    1.5370    0.0000 C   0  0  0  0  0  0  0  0  0
  1  2  4  0  0  0  0
  1  5  4  0  0  0  0
  2  3  4  0  0  0  0
  3  4  4  0  0  0  0
  4  5  4  0  0  0  0
  5  6  1  0  0  0  0
  6  7  1  0  0  0  0
  7  8  1  0  0  0  0
  8  9  1  0  0  0  0
M  STY  1   1 DAT
M  SAL   1  1   1
M  SDT   1 MRV_IMPLICIT_H                                        
M  SDD   1     0.0000    0.0000    DR    ALL  0       0  
M  SED   1 IMPL_H1
M  END
>  <Name_Molregno>
N-methylhistamine

>  <HISTAMINE H3>
7.64

>  <HISTAMINE H4>
7.64

$$$$
Norephedrine
  Marvin  02231216192D 0   1.00000     0.00000     0

 11 11  0  0  1  0  0  0  0  0999 V2000
    1.9974    0.2298    0.0000 O   0  0  0  0  0  0  0  0  0
    1.2829   -0.1827    0.0000 C   0  0  0  0  0  0  0  0  0
    0.5684    0.2298    0.0000 C   0  0  0  0  0  0  0  0  0
    0.5684    1.0548    0.0000 N   0  0  0  0  0  0  0  0  0
   -0.1461   -0.1827    0.0000 C   0  0  0  0  0  0  0  0  0
    1.2829   -1.0077    0.0000 C   0  0  0  0  0  0  0  0  0
    1.9974   -1.4202    0.0000 C   0  0  0  0  0  0  0  0  0
    1.9974   -2.2452    0.0000 C   0  0  0  0  0  0  0  0  0
    1.2829   -2.6577    0.0000 C   0  0  0  0  0  0  0  0  0
    0.5684   -2.2452    0.0000 C   0  0  0  0  0  0  0  0  0
    0.5684   -1.4202    0.0000 C   0  0  0  0  0  0  0  0  0
  1  2  1  0  0  0  0
  2  3  1  0  0  0  0
  2  6  1  0  0  0  0
  3  4  1  0  0  0  0
  3  5  1  0  0  0  0
  6  7  4  0  0  0  0
  6 11  4  0  0  0  0
  7  8  4  0  0  0  0
  8  9  4  0  0  0  0
  9 10  4  0  0  0  0
 10 11  4  0  0  0  0
M  END
>  <Name_Molregno>
Norephedrine

>  <5-HT1A>
5

>  <5-HT1B>
5

>  <5-HT1D>
5

>  <5-HT1E>
5

>  <5-HT3>
5

>  <5-HT5>
5

>  <5-HT6>
5

>  <5-HT7>
5.04

>  <Alpha-1A>
5

>  <Alpha-1B>
5

>  <Alpha-2A>
5.64

>  <Alpha-2B>
5.73

>  <Alpha-2C>
6.04

>  <Beta-1>
5

>  <Beta-2>
5

>  <DOPAMINE D1>
5

>  <DOPAMINE D2>
5

>  <DOPAMINE D4>
5

>  <DOPAMINE D5>
5

>  <Dopamine transporter>
5.76

>  <HISTAMINE H1>
5

>  <HISTAMINE H2>
5

>  <HISTAMINE H4>
5

>  <Muscarinic acetylcholine receptor M1>
5.04

>  <Muscarinic acetylcholine receptor M2>
5

>  <Muscarinic acetylcholine receptor M3>
5

>  <Muscarinic acetylcholine receptor M4>
5

>  <Muscarinic acetylcholine receptor M5>
5

>  <Norepinephrine transporter>
6.34

>  <Serotonin transporter>
5

$$$$
OLANZAPINE
  Marvin  02231216192D 0   1.00000     0.00000     0

 22 25  0  0  0  0  0  0  0  0999 V2000
   -1.5954    3.4952    0.0000 S   0  0  0  0  0  0  0  0  0
   -0.8919    3.0642    0.0000 C   0  0  0  0  0  0  0  0  0
   -0.1447    3.4138    0.0000 N   0  0  0  0  0  0  0  0  0
    0.5946    3.0476    0.0000 C   0  0  0  0  0  0  0  0  0
    0.7691    2.2413    0.0000 C   0  0  0  0  0  0  0  0  0
    0.2476    1.6020    0.0000 N   0  0  0  0  0  0  0  0  0
   -0.5774    1.6113    0.0000 C   0  0  0  0  0  0  0  0  0
   -0.9436    0.8720    0.0000 N   0  0  0  0  0  0  0  0  0
   -0.4865    0.1852    0.0000 C   0  0  0  0  0  0  0  0  0
   -0.8527   -0.5540    0.0000 C   0  0  0  0  0  0  0  0  0
   -1.6761   -0.6065    0.0000 N   0  0  0  0  0  0  0  0  0
   -2.1332    0.0803    0.0000 C   0  0  0  0  0  0  0  0  0
   -1.7669    0.8196    0.0000 C   0  0  0  0  0  0  0  0  0
   -2.0423   -1.3458    0.0000 C   0  0  0  0  0  0  0  0  0
   -1.0845    2.2620    0.0000 C   0  0  0  0  0  0  0  0  0
   -1.9069    2.1972    0.0000 C   0  0  0  0  0  0  0  0  0
   -2.2227    2.9594    0.0000 C   0  0  0  0  0  0  0  0  0
   -3.0249    3.1520    0.0000 C   0  0  0  0  0  0  0  0  0
    1.5547    1.9893    0.0000 C   0  0  0  0  0  0  0  0  0
    2.1657    2.5436    0.0000 C   0  0  0  0  0  0  0  0  0
    1.9912    3.3499    0.0000 C   0  0  0  0  0  0  0  0  0
    1.2056    3.6019    0.0000 C   0  0  0  0  0  0  0  0  0
  1  2  1  0  0  0  0
  1 17  1  0  0  0  0
  2  3  2  0  0  0  0
  2 15  1  0  0  0  0
  3  4  1  0  0  0  0
  4  5  4  0  0  0  0
  4 22  4  0  0  0  0
  5  6  1  0  0  0  0
  5 19  4  0  0  0  0
  6  7  1  0  0  0  0
  7  8  1  0  0  0  0
  7 15  2  0  0  0  0
  8  9  1  0  0  0  0
  8 13  1  0  0  0  0
  9 10  1  0  0  0  0
 10 11  1  0  0  0  0
 11 12  1  0  0  0  0
 11 14  1  0  0  0  0
 12 13  1  0  0  0  0
 15 16  1  0  0  0  0
 16 17  2  0  0  0  0
 17 18  1  0  0  0  0
 19 20  4  0  0  0  0
 20 21  4  0  0  0  0
 21 22  4  0  0  0  0
M  END
>  <Name_Molregno>
OLANZAPINE

>  <5-HT1A>
5.77

>  <5-HT1B>
6.23

>  <5-HT1D>
6.3

>  <5-HT1E>
5.66

>  <5-HT2A>
8.46

>  <5-HT2C>
7.86

>  <5-HT3>
6.69

>  <5-HT5>
5.92

>  <5-HT6>
7.97

>  <5-HT7>
6.73

>  <Alpha-1A>
6.95

>  <Alpha-1B>
6.58

>  <Alpha-2A>
6.51

>  <Alpha-2B>
6.97

>  <Alpha-2C>
7.21

>  <Beta-1>
5.15

>  <Beta-2>
5.15

>  <DOPAMINE D1>
7.3

>  <DOPAMINE D2>
7.67

>  <DOPAMINE D3>
7.53

>  <DOPAMINE D4>
7.73

>  <DOPAMINE D5>
7.09

>  <Dopamine transporter>
5

>  <HISTAMINE H1>
8.96

>  <HISTAMINE H2>
7.36

>  <HISTAMINE H4>
5

>  <Muscarinic acetylcholine receptor M1>
7.99

>  <Muscarinic acetylcholine receptor M2>
6.93

>  <Muscarinic acetylcholine receptor M3>
7.33

>  <Muscarinic acetylcholine receptor M4>
7.35

>  <Muscarinic acetylcholine receptor M5>
7.78

>  <Norepinephrine transporter>
5

>  <Serotonin transporter>
5.48

$$$$
ORG-5222
  Marvin  02231216192D 0   1.00000     0.00000     0

 20 23  0  0  1  0  0  0  0  0999 V2000
   -0.0754   -0.1702    0.0000 Cl  0  0  0  0  0  0  0  0  0
    0.7129   -0.4133    0.0000 C   0  0  0  0  0  0  0  0  0
    1.3177    0.1478    0.0000 C   0  0  0  0  0  0  0  0  0
    2.1060   -0.0954    0.0000 C   0  0  0  0  0  0  0  0  0
    2.6204    0.5496    0.0000 C   0  0  0  0  0  0  0  0  0
    3.4454    0.5496    0.0000 C   0  0  0  0  0  0  0  0  0
    3.9598   -0.0954    0.0000 C   0  0  0  0  0  0  0  0  0
    3.7762   -0.8997    0.0000 C   0  0  0  0  0  0  0  0  0
    3.0329   -1.2576    0.0000 O   0  0  0  0  0  0  0  0  0
    2.2896   -0.8997    0.0000 C   0  0  0  0  0  0  0  0  0
    1.6849   -1.4608    0.0000 C   0  0  0  0  0  0  0  0  0
    0.8965   -1.2176    0.0000 C   0  0  0  0  0  0  0  0  0
    4.3810   -1.4608    0.0000 C   0  0  0  0  0  0  0  0  0
    5.1693   -1.2176    0.0000 C   0  0  0  0  0  0  0  0  0
    5.3529   -0.4133    0.0000 C   0  0  0  0  0  0  0  0  0
    4.7482    0.1478    0.0000 C   0  0  0  0  0  0  0  0  0
    3.7004    1.3343    0.0000 C   0  0  0  0  0  0  0  0  0
    3.0329    1.8192    0.0000 N   0  0  0  0  0  0  0  0  0
    2.3655    1.3343    0.0000 C   0  0  0  0  0  0  0  0  0
    3.0329    2.6442    0.0000 C   0  0  0  0  0  0  0  0  0
  1  2  1  0  0  0  0
  2  3  4  0  0  0  0
  2 12  4  0  0  0  0
  3  4  4  0  0  0  0
  4  5  1  0  0  0  0
  4 10  4  0  0  0  0
  5  6  1  0  0  0  0
  5 19  1  0  0  0  0
  6  7  1  0  0  0  0
  6 17  1  0  0  0  0
  7  8  4  0  0  0  0
  7 16  4  0  0  0  0
  8  9  1  0  0  0  0
  8 13  4  0  0  0  0
  9 10  1  0  0  0  0
 10 11  4  0  0  0  0
 11 12  4  0  0  0  0
 13 14  4  0  0  0  0
 14 15  4  0  0  0  0
 15 16  4  0  0  0  0
 17 18  1  0  0  0  0
 18 19  1  0  0  0  0
 18 20  1  0  0  0  0
M  END
>  <Name_Molregno>
ORG-5222

>  <5-HT1A>
7.7

>  <5-HT1B>
8.34

>  <5-HT1D>
8.07

>  <5-HT1E>
7.69

>  <5-HT2A>
9.41

>  <5-HT2C>
9.63

>  <5-HT3>
6.35

>  <5-HT5>
8.4

>  <5-HT6>
8.85

>  <5-HT7>
9.05

>  <Alpha-1A>
8.36

>  <Alpha-1B>
8.41

>  <Alpha-2A>
8.08

>  <Alpha-2B>
8.64

>  <Alpha-2C>
7.82

>  <Beta-1>
5.3

>  <Beta-2>
5.3

>  <DOPAMINE D1>
8.54

>  <DOPAMINE D2>
8.72

>  <DOPAMINE D3>
8.74

>  <DOPAMINE D4>
8.58

>  <DOPAMINE D5>
7.64

>  <Dopamine transporter>
5.5

>  <HISTAMINE H1>
8.91

>  <HISTAMINE H2>
8.64

>  <HISTAMINE H4>
5

>  <Muscarinic acetylcholine receptor M1>
7.61

>  <Muscarinic acetylcholine receptor M2>
7.1

>  <Muscarinic acetylcholine receptor M3>
7.41

>  <Muscarinic acetylcholine receptor M4>
5

>  <Muscarinic acetylcholine receptor M5>
8.02

>  <Norepinephrine transporter>
5

>  <Serotonin transporter>
5.5

$$$$
PARECOXIB
  Marvin  02231216192D 0   1.00000     0.00000     0

 26 28  0  0  0  0  0  0  0  0999 V2000
    3.2898   -1.2399    0.0000 S   0  0  0  0  0  0  0  0  0
    3.7023   -0.5254    0.0000 O   0  0  0  0  0  0  0  0  0
    2.8773   -1.9544    0.0000 O   0  0  0  0  0  0  0  0  0
    4.0042   -1.6524    0.0000 N   0  0  0  0  0  0  0  0  0
    4.7187   -1.2399    0.0000 C   0  0  0  0  0  0  0  0  0
    4.7187   -0.4149    0.0000 O   0  0  0  0  0  0  0  0  0
    5.4332   -1.6524    0.0000 C   0  0  0  0  0  0  0  0  0
    6.1476   -1.2399    0.0000 C   0  0  0  0  0  0  0  0  0
    2.5753   -0.8274    0.0000 C   0  0  0  0  0  0  0  0  0
    1.8608   -1.2399    0.0000 C   0  0  0  0  0  0  0  0  0
    1.1463   -0.8274    0.0000 C   0  0  0  0  0  0  0  0  0
    1.1463   -0.0024    0.0000 C   0  0  0  0  0  0  0  0  0
    1.8608    0.4101    0.0000 C   0  0  0  0  0  0  0  0  0
    2.5753   -0.0024    0.0000 C   0  0  0  0  0  0  0  0  0
    0.4319    0.4101    0.0000 C   0  0  0  0  0  0  0  0  0
   -0.3218    0.0745    0.0000 C   0  0  0  0  0  0  0  0  0
   -0.8738    0.6876    0.0000 N   0  0  0  0  0  0  0  0  0
   -0.4613    1.4021    0.0000 O   0  0  0  0  0  0  0  0  0
    0.3456    1.2306    0.0000 C   0  0  0  0  0  0  0  0  0
    0.9587    1.7826    0.0000 C   0  0  0  0  0  0  0  0  0
   -0.4933   -0.7324    0.0000 C   0  0  0  0  0  0  0  0  0
    0.1198   -1.2845    0.0000 C   0  0  0  0  0  0  0  0  0
   -0.0518   -2.0914    0.0000 C   0  0  0  0  0  0  0  0  0
   -0.8364   -2.3464    0.0000 C   0  0  0  0  0  0  0  0  0
   -1.4495   -1.7943    0.0000 C   0  0  0  0  0  0  0  0  0
   -1.2779   -0.9874    0.0000 C   0  0  0  0  0  0  0  0  0
  1  2  2  0  0  0  0
  1  3  2  0  0  0  0
  1  4  1  0  0  0  0
  1  9  1  0  0  0  0
  4  5  1  0  0  0  0
  5  6  2  0  0  0  0
  5  7  1  0  0  0  0
  7  8  1  0  0  0  0
  9 10  4  0  0  0  0
  9 14  4  0  0  0  0
 10 11  4  0  0  0  0
 11 12  4  0  0  0  0
 12 13  4  0  0  0  0
 12 15  1  0  0  0  0
 13 14  4  0  0  0  0
 15 16  4  0  0  0  0
 15 19  4  0  0  0  0
 16 17  4  0  0  0  0
 16 21  1  0  0  0  0
 17 18  4  0  0  0  0
 18 19  4  0  0  0  0
 19 20  1  0  0  0  0
 21 22  4  0  0  0  0
 21 26  4  0  0  0  0
 22 23  4  0  0  0  0
 23 24  4  0  0  0  0
 24 25  4  0  0  0  0
 25 26  4  0  0  0  0
M  END
>  <Name_Molregno>
PARECOXIB

>  <5-HT1A>
5

>  <5-HT1B>
5

>  <5-HT1D>
5

>  <5-HT1E>
5

>  <5-HT2A>
5

>  <5-HT3>
5

>  <5-HT6>
5

>  <5-HT7>
5

>  <Alpha-1A>
5

>  <Alpha-1B>
5

>  <Alpha-2A>
5

>  <Alpha-2B>
5

>  <Alpha-2C>
5

>  <DOPAMINE D1>
5

>  <DOPAMINE D2>
5

>  <DOPAMINE D4>
5

>  <DOPAMINE D5>
5

>  <Dopamine transporter>
5

>  <HISTAMINE H1>
5

>  <HISTAMINE H2>
5

>  <HISTAMINE H4>
5

>  <Muscarinic acetylcholine receptor M2>
5

>  <Muscarinic acetylcholine receptor M5>
5

>  <Norepinephrine transporter>
5

>  <Serotonin transporter>
5

$$$$
PBR28
  Marvin  02231216192D 0   1.00000     0.00000     0

 26 28  0  0  0  0  0  0  0  0999 V2000
    0.4191    0.0796    0.0000 O   0  0  0  0  0  0  0  0  0
    0.4191   -0.7454    0.0000 C   0  0  0  0  0  0  0  0  0
    1.1336   -1.1579    0.0000 C   0  0  0  0  0  0  0  0  0
    1.1336   -1.9829    0.0000 C   0  0  0  0  0  0  0  0  0
    0.4191   -2.3954    0.0000 C   0  0  0  0  0  0  0  0  0
   -0.2953   -1.9829    0.0000 C   0  0  0  0  0  0  0  0  0
   -0.2953   -1.1579    0.0000 C   0  0  0  0  0  0  0  0  0
   -1.0098   -0.7454    0.0000 N   0  0  0  0  0  0  0  0  0
   -1.7243   -1.1579    0.0000 C   0  0  0  0  0  0  0  0  0
   -2.4387   -0.7454    0.0000 C   0  0  0  0  0  0  0  0  0
   -2.4387    0.0796    0.0000 C   0  0  0  0  0  0  0  0  0
   -3.1532    0.4921    0.0000 C   0  0  0  0  0  0  0  0  0
   -3.8677    0.0796    0.0000 C   0  0  0  0  0  0  0  0  0
   -3.8677   -0.7454    0.0000 C   0  0  0  0  0  0  0  0  0
   -3.1532   -1.1579    0.0000 C   0  0  0  0  0  0  0  0  0
   -3.1532   -1.9829    0.0000 O   0  0  0  0  0  0  0  0  0
   -3.8677   -2.3954    0.0000 C   0  0  0  0  0  0  0  0  0
   -1.0098    0.0796    0.0000 C   0  0  0  0  0  0  0  0  0
   -1.7243    0.4921    0.0000 O   0  0  0  0  0  0  0  0  0
   -0.2953    0.4921    0.0000 C   0  0  0  0  0  0  0  0  0
    1.1336    0.4921    0.0000 C   0  0  0  0  0  0  0  0  0
    1.1336    1.3171    0.0000 C   0  0  0  0  0  0  0  0  0
    1.8481    1.7296    0.0000 C   0  0  0  0  0  0  0  0  0
    2.5626    1.3171    0.0000 C   0  0  0  0  0  0  0  0  0
    2.5626    0.4921    0.0000 C   0  0  0  0  0  0  0  0  0
    1.8481    0.0796    0.0000 C   0  0  0  0  0  0  0  0  0
  1  2  1  0  0  0  0
  1 21  1  0  0  0  0
  2  3  4  0  0  0  0
  2  7  4  0  0  0  0
  3  4  4  0  0  0  0
  4  5  4  0  0  0  0
  5  6  4  0  0  0  0
  6  7  4  0  0  0  0
  7  8  1  0  0  0  0
  8  9  1  0  0  0  0
  8 18  1  0  0  0  0
  9 10  1  0  0  0  0
 10 11  4  0  0  0  0
 10 15  4  0  0  0  0
 11 12  4  0  0  0  0
 12 13  4  0  0  0  0
 13 14  4  0  0  0  0
 14 15  4  0  0  0  0
 15 16  1  0  0  0  0
 16 17  1  0  0  0  0
 18 19  2  0  0  0  0
 18 20  1  0  0  0  0
 21 22  4  0  0  0  0
 21 26  4  0  0  0  0
 22 23  4  0  0  0  0
 23 24  4  0  0  0  0
 24 25  4  0  0  0  0
 25 26  4  0  0  0  0
M  END
>  <Name_Molregno>
PBR28

>  <5-HT1A>
5

>  <5-HT1B>
5

>  <5-HT1D>
5

>  <5-HT1E>
5

>  <5-HT2A>
5

>  <5-HT3>
5

>  <5-HT5>
5

>  <5-HT6>
5

>  <5-HT7>
5

>  <Alpha-1A>
5

>  <Alpha-1B>
5

>  <Alpha-2A>
5

>  <Alpha-2B>
5

>  <Alpha-2C>
5

>  <Beta-1>
5

>  <Beta-2>
5

>  <DOPAMINE D1>
5

>  <DOPAMINE D2>
5

>  <DOPAMINE D4>
5

>  <Dopamine transporter>
5

>  <HISTAMINE H1>
5

>  <HISTAMINE H2>
5

>  <HISTAMINE H4>
5

>  <Muscarinic acetylcholine receptor M2>
5

>  <Muscarinic acetylcholine receptor M5>
5

>  <Norepinephrine transporter>
5

>  <Serotonin transporter>
5

$$$$
pheniramine
  Marvin  02231216192D 0   1.00000     0.00000     0

 18 19  0  0  1  0  0  0  0  0999 V2000
    0.6753   -1.5634    0.0000 N   0  0  0  0  0  0  0  0  0
   -0.0392   -1.9759    0.0000 C   0  0  0  0  0  0  0  0  0
   -0.7536   -1.5634    0.0000 C   0  0  0  0  0  0  0  0  0
   -0.7536   -0.7384    0.0000 C   0  0  0  0  0  0  0  0  0
   -0.0392   -0.3259    0.0000 C   0  0  0  0  0  0  0  0  0
    0.6753   -0.7384    0.0000 C   0  0  0  0  0  0  0  0  0
    1.3898   -0.3259    0.0000 C   0  0  0  0  0  0  0  0  0
    2.1042   -0.7384    0.0000 C   0  0  0  0  0  0  0  0  0
    2.8187   -0.3259    0.0000 C   0  0  0  0  0  0  0  0  0
    3.5332   -0.7384    0.0000 N   0  0  0  0  0  0  0  0  0
    4.2477   -0.3259    0.0000 C   0  0  0  0  0  0  0  0  0
    3.5332   -1.5634    0.0000 C   0  0  0  0  0  0  0  0  0
    1.3898    0.4991    0.0000 C   0  0  0  0  0  0  0  0  0
    0.6753    0.9116    0.0000 C   0  0  0  0  0  0  0  0  0
    0.6753    1.7366    0.0000 C   0  0  0  0  0  0  0  0  0
    1.3898    2.1491    0.0000 C   0  0  0  0  0  0  0  0  0
    2.1042    1.7366    0.0000 C   0  0  0  0  0  0  0  0  0
    2.1042    0.9116    0.0000 C   0  0  0  0  0  0  0  0  0
  1  2  4  0  0  0  0
  1  6  4  0  0  0  0
  2  3  4  0  0  0  0
  3  4  4  0  0  0  0
  4  5  4  0  0  0  0
  5  6  4  0  0  0  0
  6  7  1  0  0  0  0
  7  8  1  0  0  0  0
  7 13  1  0  0  0  0
  8  9  1  0  0  0  0
  9 10  1  0  0  0  0
 10 11  1  0  0  0  0
 10 12  1  0  0  0  0
 13 14  4  0  0  0  0
 13 18  4  0  0  0  0
 14 15  4  0  0  0  0
 15 16  4  0  0  0  0
 16 17  4  0  0  0  0
 17 18  4  0  0  0  0
M  END
>  <Name_Molregno>
pheniramine

>  <HISTAMINE H4>
5.38

$$$$
PROMETHAZINE
  Marvin  02231216192D 0   1.00000     0.00000     0

 20 22  0  0  1  0  0  0  0  0999 V2000
    1.1546   -0.3466    0.0000 S   0  0  0  0  0  0  0  0  0
    1.8691    0.0659    0.0000 C   0  0  0  0  0  0  0  0  0
    1.8691    0.8909    0.0000 C   0  0  0  0  0  0  0  0  0
    1.1546    1.3034    0.0000 N   0  0  0  0  0  0  0  0  0
    0.4401    0.8909    0.0000 C   0  0  0  0  0  0  0  0  0
    0.4401    0.0659    0.0000 C   0  0  0  0  0  0  0  0  0
   -0.2743   -0.3466    0.0000 C   0  0  0  0  0  0  0  0  0
   -0.9888    0.0659    0.0000 C   0  0  0  0  0  0  0  0  0
   -0.9888    0.8909    0.0000 C   0  0  0  0  0  0  0  0  0
   -0.2743    1.3034    0.0000 C   0  0  0  0  0  0  0  0  0
    1.1546    2.1284    0.0000 C   0  0  0  0  0  0  0  0  0
    0.4401    2.5409    0.0000 C   0  0  0  0  0  0  0  0  0
    0.4401    3.3659    0.0000 N   0  0  0  0  0  0  0  0  0
   -0.2743    3.7784    0.0000 C   0  0  0  0  0  0  0  0  0
    1.1546    3.7784    0.0000 C   0  0  0  0  0  0  0  0  0
   -0.2743    2.1284    0.0000 C   0  0  0  0  0  0  0  0  0
    2.5835    1.3034    0.0000 C   0  0  0  0  0  0  0  0  0
    3.2980    0.8909    0.0000 C   0  0  0  0  0  0  0  0  0
    3.2980    0.0659    0.0000 C   0  0  0  0  0  0  0  0  0
    2.5835   -0.3466    0.0000 C   0  0  0  0  0  0  0  0  0
  1  2  1  0  0  0  0
  1  6  1  0  0  0  0
  2  3  4  0  0  0  0
  2 20  4  0  0  0  0
  3  4  1  0  0  0  0
  3 17  4  0  0  0  0
  4  5  1  0  0  0  0
  4 11  1  0  0  0  0
  5  6  4  0  0  0  0
  5 10  4  0  0  0  0
  6  7  4  0  0  0  0
  7  8  4  0  0  0  0
  8  9  4  0  0  0  0
  9 10  4  0  0  0  0
 11 12  1  0  0  0  0
 12 13  1  0  0  0  0
 12 16  1  0  0  0  0
 13 14  1  0  0  0  0
 13 15  1  0  0  0  0
 17 18  4  0  0  0  0
 18 19  4  0  0  0  0
 19 20  4  0  0  0  0
M  END
>  <Name_Molregno>
PROMETHAZINE

>  <HISTAMINE H1>
9.62

>  <HISTAMINE H4>
6.82

$$$$
PSILOCIN
  Marvin  02231216192D 0   1.00000     0.00000     0

 15 16  0  0  0  0  0  0  0  0999 V2000
    1.2794   -2.2041    0.0000 O   0  0  0  0  0  0  0  0  0
    1.2794   -1.3791    0.0000 C   0  0  0  0  0  0  0  0  0
    0.5650   -0.9666    0.0000 C   0  0  0  0  0  0  0  0  0
    0.5650   -0.1416    0.0000 C   0  0  0  0  0  0  0  0  0
   -0.2197    0.1134    0.0000 N   0  0  0  0  0  0  0  0  0
   -0.7046   -0.5541    0.0000 C   0  0  0  0  0  0  0  0  0
   -0.2197   -1.2215    0.0000 C   0  0  0  0  0  0  0  0  0
   -0.4746   -2.0061    0.0000 C   0  0  0  0  0  0  0  0  0
   -1.2816   -2.1777    0.0000 C   0  0  0  0  0  0  0  0  0
   -1.5365   -2.9623    0.0000 N   0  0  0  0  0  0  0  0  0
   -2.3435   -3.1338    0.0000 C   0  0  0  0  0  0  0  0  0
   -0.9845   -3.5754    0.0000 C   0  0  0  0  0  0  0  0  0
    1.2794    0.2709    0.0000 C   0  0  0  0  0  0  0  0  0
    1.9939   -0.1416    0.0000 C   0  0  0  0  0  0  0  0  0
    1.9939   -0.9666    0.0000 C   0  0  0  0  0  0  0  0  0
  1  2  1  0  0  0  0
  2  3  4  0  0  0  0
  2 15  4  0  0  0  0
  3  4  4  0  0  0  0
  3  7  4  0  0  0  0
  4  5  4  0  0  0  0
  4 13  4  0  0  0  0
  5  6  4  0  0  0  0
  6  7  4  0  0  0  0
  7  8  1  0  0  0  0
  8  9  1  0  0  0  0
  9 10  1  0  0  0  0
 10 11  1  0  0  0  0
 10 12  1  0  0  0  0
 13 14  4  0  0  0  0
 14 15  4  0  0  0  0
M  STY  1   1 DAT
M  SAL   1  1   5
M  SDT   1 MRV_IMPLICIT_H                                        
M  SDD   1     0.0000    0.0000    DR    ALL  0       0  
M  SED   1 IMPL_H1
M  END
>  <Name_Molregno>
PSILOCIN

>  <5-HT1A>
6.78

>  <5-HT1B>
6.66

>  <5-HT1D>
7.44

>  <5-HT1E>
7.28

>  <5-HT2A>
6.97

>  <5-HT3>
5

>  <5-HT5>
7.08

>  <5-HT6>
7.24

>  <5-HT7>
8.46

>  <Alpha-1A>
5

>  <Alpha-1B>
5

>  <Alpha-2A>
5.86

>  <Alpha-2B>
5.72

>  <Alpha-2C>
5

>  <Beta-1>
5

>  <DOPAMINE D1>
5

>  <DOPAMINE D2>
5

>  <DOPAMINE D4>
5

>  <DOPAMINE D5>
5

>  <Dopamine transporter>
5

>  <HISTAMINE H1>
6.52

>  <HISTAMINE H2>
5

>  <HISTAMINE H4>
5

>  <Muscarinic acetylcholine receptor M2>
5

>  <Muscarinic acetylcholine receptor M5>
5

>  <Norepinephrine transporter>
5

>  <Serotonin transporter>
5.42

$$$$
PSILOCYBIN
  Marvin  02231216192D 0   1.00000     0.00000     0

 19 20  0  0  0  0  0  0  0  0999 V2000
    0.6946   -2.4480    0.0000 P   0  0  0  0  0  0  0  0  0
   -0.0199   -2.0355    0.0000 O   0  0  0  0  0  0  0  0  0
   -0.0199   -1.2105    0.0000 C   0  0  0  0  0  0  0  0  0
   -0.7343   -0.7980    0.0000 C   0  0  0  0  0  0  0  0  0
   -0.7343    0.0270    0.0000 C   0  0  0  0  0  0  0  0  0
   -1.5190    0.2819    0.0000 N   0  0  0  0  0  0  0  0  0
   -2.0039   -0.3855    0.0000 C   0  0  0  0  0  0  0  0  0
   -1.5190   -1.0530    0.0000 C   0  0  0  0  0  0  0  0  0
   -1.7739   -1.8376    0.0000 C   0  0  0  0  0  0  0  0  0
   -2.5809   -2.0091    0.0000 C   0  0  0  0  0  0  0  0  0
   -2.8358   -2.7937    0.0000 N   0  0  0  0  0  0  0  0  0
   -3.6428   -2.9653    0.0000 C   0  0  0  0  0  0  0  0  0
   -2.2838   -3.4068    0.0000 C   0  0  0  0  0  0  0  0  0
   -0.0199    0.4395    0.0000 C   0  0  0  0  0  0  0  0  0
    0.6946    0.0270    0.0000 C   0  0  0  0  0  0  0  0  0
    0.6946   -0.7980    0.0000 C   0  0  0  0  0  0  0  0  0
    1.4091   -2.8605    0.0000 O   0  0  0  0  0  0  0  0  0
    0.2821   -3.1625    0.0000 O   0  0  0  0  0  0  0  0  0
    1.1071   -1.7336    0.0000 O   0  0  0  0  0  0  0  0  0
  1  2  1  0  0  0  0
  1 17  2  0  0  0  0
  1 18  1  0  0  0  0
  1 19  1  0  0  0  0
  2  3  1  0  0  0  0
  3  4  4  0  0  0  0
  3 16  4  0  0  0  0
  4  5  4  0  0  0  0
  4  8  4  0  0  0  0
  5  6  4  0  0  0  0
  5 14  4  0  0  0  0
  6  7  4  0  0  0  0
  7  8  4  0  0  0  0
  8  9  1  0  0  0  0
  9 10  1  0  0  0  0
 10 11  1  0  0  0  0
 11 12  1  0  0  0  0
 11 13  1  0  0  0  0
 14 15  4  0  0  0  0
 15 16  4  0  0  0  0
M  STY  1   1 DAT
M  SAL   1  1   6
M  SDT   1 MRV_IMPLICIT_H                                        
M  SDD   1     0.0000    0.0000    DR    ALL  0       0  
M  SED   1 IMPL_H1
M  END
>  <Name_Molregno>
PSILOCYBIN

>  <5-HT1A>
5

>  <5-HT1B>
5

>  <5-HT1D>
5.67

>  <5-HT1E>
6.71

>  <5-HT2A>
5

>  <5-HT3>
5

>  <5-HT5>
5.21

>  <5-HT6>
6.38

>  <5-HT7>
6.22

>  <Alpha-1A>
5

>  <Alpha-1B>
5

>  <Alpha-2A>
5

>  <Alpha-2B>
5

>  <Alpha-2C>
5

>  <DOPAMINE D1>
5

>  <DOPAMINE D2>
5

>  <DOPAMINE D4>
5

>  <DOPAMINE D5>
5

>  <Dopamine transporter>
5

>  <HISTAMINE H1>
5

>  <HISTAMINE H2>
5

>  <HISTAMINE H4>
5

>  <Muscarinic acetylcholine receptor M2>
5

>  <Muscarinic acetylcholine receptor M5>
5

>  <Norepinephrine transporter>
5

>  <Serotonin transporter>
5

$$$$
QUETIAPINE
  Marvin  02231216192D 0   1.00000     0.00000     0

 27 30  0  0  0  0  0  0  0  0999 V2000
    0.4015    1.2563    0.0000 S   0  0  0  0  0  0  0  0  0
    1.2173    1.3793    0.0000 C   0  0  0  0  0  0  0  0  0
    1.8221    0.8181    0.0000 C   0  0  0  0  0  0  0  0  0
    2.6104    1.0613    0.0000 C   0  0  0  0  0  0  0  0  0
    2.7940    1.8656    0.0000 C   0  0  0  0  0  0  0  0  0
    2.1892    2.4268    0.0000 C   0  0  0  0  0  0  0  0  0
    1.4009    2.1836    0.0000 C   0  0  0  0  0  0  0  0  0
    1.7604   -0.0046    0.0000 C   0  0  0  0  0  0  0  0  0
    1.0788   -0.4693    0.0000 N   0  0  0  0  0  0  0  0  0
    0.2904   -0.2261    0.0000 C   0  0  0  0  0  0  0  0  0
   -0.0110    0.5418    0.0000 C   0  0  0  0  0  0  0  0  0
   -0.8268    0.6648    0.0000 C   0  0  0  0  0  0  0  0  0
   -1.3412    0.0198    0.0000 C   0  0  0  0  0  0  0  0  0
   -1.0398   -0.7482    0.0000 C   0  0  0  0  0  0  0  0  0
   -0.2240   -0.8711    0.0000 C   0  0  0  0  0  0  0  0  0
    2.4749   -0.4171    0.0000 N   0  0  0  0  0  0  0  0  0
    3.1893   -0.0046    0.0000 C   0  0  0  0  0  0  0  0  0
    3.9038   -0.4171    0.0000 C   0  0  0  0  0  0  0  0  0
    3.9038   -1.2421    0.0000 N   0  0  0  0  0  0  0  0  0
    3.1893   -1.6546    0.0000 C   0  0  0  0  0  0  0  0  0
    2.4749   -1.2421    0.0000 C   0  0  0  0  0  0  0  0  0
    4.6183   -1.6546    0.0000 C   0  0  0  0  0  0  0  0  0
    5.3328   -1.2421    0.0000 C   0  0  0  0  0  0  0  0  0
    6.0472   -1.6546    0.0000 O   0  0  0  0  0  0  0  0  0
    6.7617   -1.2421    0.0000 C   0  0  0  0  0  0  0  0  0
    7.4762   -1.6546    0.0000 C   0  0  0  0  0  0  0  0  0
    8.1906   -1.2421    0.0000 O   0  0  0  0  0  0  0  0  0
  1  2  1  0  0  0  0
  1 11  1  0  0  0  0
  2  3  4  0  0  0  0
  2  7  4  0  0  0  0
  3  4  4  0  0  0  0
  3  8  1  0  0  0  0
  4  5  4  0  0  0  0
  5  6  4  0  0  0  0
  6  7  4  0  0  0  0
  8  9  2  0  0  0  0
  8 16  1  0  0  0  0
  9 10  1  0  0  0  0
 10 11  4  0  0  0  0
 10 15  4  0  0  0  0
 11 12  4  0  0  0  0
 12 13  4  0  0  0  0
 13 14  4  0  0  0  0
 14 15  4  0  0  0  0
 16 17  1  0  0  0  0
 16 21  1  0  0  0  0
 17 18  1  0  0  0  0
 18 19  1  0  0  0  0
 19 20  1  0  0  0  0
 19 22  1  0  0  0  0
 20 21  1  0  0  0  0
 22 23  1  0  0  0  0
 23 24  1  0  0  0  0
 24 25  1  0  0  0  0
 25 26  1  0  0  0  0
 26 27  1  0  0  0  0
M  END
>  <Name_Molregno>
QUETIAPINE

>  <5-HT1A>
6.59

>  <5-HT1B>
5.83

>  <5-HT1D>
5.52

>  <5-HT1E>
5.76

>  <5-HT2A>
6.76

>  <5-HT2C>
5.82

>  <5-HT3>
5

>  <5-HT5>
5.51

>  <5-HT6>
6.35

>  <5-HT7>
6.74

>  <Alpha-1A>
7.66

>  <Alpha-1B>
7.41

>  <Alpha-2A>
5.51

>  <Alpha-2B>
6.44

>  <Alpha-2C>
7.18

>  <Beta-1>
5.15

>  <Beta-2>
5.15

>  <DOPAMINE D1>
5.95

>  <DOPAMINE D2>
6.51

>  <DOPAMINE D3>
6.59

>  <DOPAMINE D4>
5.77

>  <DOPAMINE D5>
5.79

>  <Dopamine transporter>
5

>  <HISTAMINE H1>
8.1

>  <HISTAMINE H2>
5

>  <HISTAMINE H4>
5

>  <Muscarinic acetylcholine receptor M1>
6.71

>  <Muscarinic acetylcholine receptor M2>
6.03

>  <Muscarinic acetylcholine receptor M3>
5.69

>  <Muscarinic acetylcholine receptor M4>
6.5

>  <Muscarinic acetylcholine receptor M5>
5.58

>  <Norepinephrine transporter>
5

>  <Serotonin transporter>
5.18

$$$$
RANITIDINE
  Marvin  02231216192D 0   1.00000     0.00000     0

 21 21  0  0  0  0  0  0  0  0999 V2000
   -0.1828    0.2853    0.0000 S   0  0  0  0  0  0  0  0  0
   -0.8973    0.6978    0.0000 C   0  0  0  0  0  0  0  0  0
   -1.6118    0.2853    0.0000 C   0  0  0  0  0  0  0  0  0
   -1.6980   -0.5352    0.0000 O   0  0  0  0  0  0  0  0  0
   -2.5050   -0.7067    0.0000 C   0  0  0  0  0  0  0  0  0
   -2.9175    0.0078    0.0000 C   0  0  0  0  0  0  0  0  0
   -2.3655    0.6209    0.0000 C   0  0  0  0  0  0  0  0  0
   -2.8405   -1.4604    0.0000 C   0  0  0  0  0  0  0  0  0
   -3.6610   -1.5466    0.0000 N   0  0  0  0  0  0  0  0  0
   -3.9966   -2.3003    0.0000 C   0  0  0  0  0  0  0  0  0
   -4.1459   -0.8792    0.0000 C   0  0  0  0  0  0  0  0  0
    0.5316    0.6978    0.0000 C   0  0  0  0  0  0  0  0  0
    1.2461    0.2853    0.0000 C   0  0  0  0  0  0  0  0  0
    1.9606    0.6978    0.0000 N   0  0  0  0  0  0  0  0  0
    2.6751    0.2853    0.0000 C   0  0  0  0  0  0  0  0  0
    2.6751   -0.5397    0.0000 N   0  0  0  0  0  0  0  0  0
    3.3895   -0.9522    0.0000 C   0  0  0  0  0  0  0  0  0
    3.3895    0.6978    0.0000 C   0  0  0  0  0  0  0  0  0
    3.3895    1.5228    0.0000 N   0  3  0  0  0  0  0  0  0
    4.1040    1.9353    0.0000 O   0  5  0  0  0  0  0  0  0
    2.6751    1.9353    0.0000 O   0  5  0  0  0  0  0  0  0
  1  2  1  0  0  0  0
  1 12  1  0  0  0  0
  2  3  1  0  0  0  0
  3  4  4  0  0  0  0
  3  7  4  0  0  0  0
  4  5  4  0  0  0  0
  5  6  4  0  0  0  0
  5  8  1  0  0  0  0
  6  7  4  0  0  0  0
  8  9  1  0  0  0  0
  9 10  1  0  0  0  0
  9 11  1  0  0  0  0
 12 13  1  0  0  0  0
 13 14  1  0  0  0  0
 14 15  1  0  0  0  0
 15 16  1  0  0  0  0
 15 18  2  0  0  0  0
 16 17  1  0  0  0  0
 18 19  1  0  0  0  0
 19 20  1  0  0  0  0
 19 21  1  0  0  0  0
M  CHG  3  19   1  20  -1  21  -1
M  END
>  <Name_Molregno>
RANITIDINE

>  <5-HT3>
5

>  <HISTAMINE H1>
5

>  <HISTAMINE H3>
5

>  <HISTAMINE H4>
5

$$$$
RISPERIDONE
  Marvin  02231216192D 0   1.00000     0.00000     0

 30 34  0  0  0  0  0  0  0  0999 V2000
    1.8325   -2.9394    0.0000 F   0  0  0  0  0  0  0  0  0
    2.0875   -2.1548    0.0000 C   0  0  0  0  0  0  0  0  0
    1.5354   -1.5417    0.0000 C   0  0  0  0  0  0  0  0  0
    1.7904   -0.7571    0.0000 C   0  0  0  0  0  0  0  0  0
    1.3779   -0.0426    0.0000 O   0  0  0  0  0  0  0  0  0
    1.9299    0.5705    0.0000 N   0  0  0  0  0  0  0  0  0
    2.6836    0.2349    0.0000 C   0  0  0  0  0  0  0  0  0
    2.5974   -0.5856    0.0000 C   0  0  0  0  0  0  0  0  0
    3.1494   -1.1987    0.0000 C   0  0  0  0  0  0  0  0  0
    2.8945   -1.9833    0.0000 C   0  0  0  0  0  0  0  0  0
    3.3981    0.6474    0.0000 C   0  0  0  0  0  0  0  0  0
    3.3981    1.4724    0.0000 C   0  0  0  0  0  0  0  0  0
    4.1125    1.8849    0.0000 C   0  0  0  0  0  0  0  0  0
    4.8270    1.4724    0.0000 N   0  0  0  0  0  0  0  0  0
    4.8270    0.6474    0.0000 C   0  0  0  0  0  0  0  0  0
    4.1125    0.2349    0.0000 C   0  0  0  0  0  0  0  0  0
    5.5415    1.8849    0.0000 C   0  0  0  0  0  0  0  0  0
    6.2559    1.4724    0.0000 C   0  0  0  0  0  0  0  0  0
    6.9704    1.8849    0.0000 C   0  0  0  0  0  0  0  0  0
    7.6849    1.4724    0.0000 C   0  0  0  0  0  0  0  0  0
    7.6849    0.6474    0.0000 O   0  0  0  0  0  0  0  0  0
    8.3994    1.8849    0.0000 N   0  0  0  0  0  0  0  0  0
    8.3994    2.7099    0.0000 C   0  0  0  0  0  0  0  0  0
    7.6849    3.1224    0.0000 N   0  0  0  0  0  0  0  0  0
    6.9704    2.7099    0.0000 C   0  0  0  0  0  0  0  0  0
    6.2559    3.1224    0.0000 C   0  0  0  0  0  0  0  0  0
    9.1138    3.1224    0.0000 C   0  0  0  0  0  0  0  0  0
    9.8283    2.7099    0.0000 C   0  0  0  0  0  0  0  0  0
    9.8283    1.8849    0.0000 C   0  0  0  0  0  0  0  0  0
    9.1138    1.4724    0.0000 C   0  0  0  0  0  0  0  0  0
  1  2  1  0  0  0  0
  2  3  4  0  0  0  0
  2 10  4  0  0  0  0
  3  4  4  0  0  0  0
  4  5  4  0  0  0  0
  4  8  4  0  0  0  0
  5  6  4  0  0  0  0
  6  7  4  0  0  0  0
  7  8  4  0  0  0  0
  7 11  1  0  0  0  0
  8  9  4  0  0  0  0
  9 10  4  0  0  0  0
 11 12  1  0  0  0  0
 11 16  1  0  0  0  0
 12 13  1  0  0  0  0
 13 14  1  0  0  0  0
 14 15  1  0  0  0  0
 14 17  1  0  0  0  0
 15 16  1  0  0  0  0
 17 18  1  0  0  0  0
 18 19  1  0  0  0  0
 19 20  1  0  0  0  0
 19 25  2  0  0  0  0
 20 21  2  0  0  0  0
 20 22  1  0  0  0  0
 22 23  1  0  0  0  0
 22 30  1  0  0  0  0
 23 24  2  0  0  0  0
 23 27  1  0  0  0  0
 24 25  1  0  0  0  0
 25 26  1  0  0  0  0
 27 28  1  0  0  0  0
 28 29  1  0  0  0  0
 29 30  1  0  0  0  0
M  END
>  <Name_Molregno>
RISPERIDONE

>  <5-HT1A>
6.52

>  <5-HT1B>
7.66

>  <5-HT1D>
7.6

>  <5-HT1E>
5.44

>  <5-HT2A>
9.35

>  <5-HT2C>
7.74

>  <5-HT3>
5

>  <5-HT5>
6.69

>  <5-HT6>
5.7

>  <5-HT7>
8.4

>  <Alpha-1A>
8.38

>  <Alpha-1B>
8.05

>  <Alpha-2A>
7.46

>  <Alpha-2B>
7.34

>  <Alpha-2C>
8.56

>  <Beta-1>
5.15

>  <Beta-2>
5.15

>  <DOPAMINE D1>
6.61

>  <DOPAMINE D2>
8.58

>  <DOPAMINE D3>
8.17

>  <DOPAMINE D4>
8.17

>  <DOPAMINE D5>
7.03

>  <Dopamine transporter>
5

>  <HISTAMINE H1>
7.79

>  <HISTAMINE H2>
6.92

>  <HISTAMINE H4>
5

>  <Muscarinic acetylcholine receptor M1>
5.22

>  <Muscarinic acetylcholine receptor M2>
5.14

>  <Muscarinic acetylcholine receptor M3>
5

>  <Muscarinic acetylcholine receptor M4>
5.18

>  <Muscarinic acetylcholine receptor M5>
5

>  <Norepinephrine transporter>
5

>  <Serotonin transporter>
5.67

$$$$
THIORIDAZINE
  Marvin  02231216192D 0   1.00000     0.00000     0

 25 28  0  0  1  0  0  0  0  0999 V2000
    1.0601   -0.3753    0.0000 S   0  0  0  0  0  0  0  0  0
    1.7746    0.0372    0.0000 C   0  0  0  0  0  0  0  0  0
    1.7746    0.8622    0.0000 C   0  0  0  0  0  0  0  0  0
    1.0601    1.2747    0.0000 N   0  0  0  0  0  0  0  0  0
    0.3456    0.8622    0.0000 C   0  0  0  0  0  0  0  0  0
    0.3456    0.0372    0.0000 C   0  0  0  0  0  0  0  0  0
   -0.3689   -0.3753    0.0000 C   0  0  0  0  0  0  0  0  0
   -1.0833    0.0372    0.0000 C   0  0  0  0  0  0  0  0  0
   -1.0833    0.8622    0.0000 C   0  0  0  0  0  0  0  0  0
   -0.3689    1.2747    0.0000 C   0  0  0  0  0  0  0  0  0
    1.0601    2.0997    0.0000 C   0  0  0  0  0  0  0  0  0
    0.3456    2.5122    0.0000 C   0  0  0  0  0  0  0  0  0
    0.3456    3.3372    0.0000 C   0  0  0  0  0  0  0  0  0
   -0.3689    3.7497    0.0000 N   0  0  0  0  0  0  0  0  0
   -0.3689    4.5747    0.0000 C   0  0  0  0  0  0  0  0  0
    0.3456    4.9872    0.0000 C   0  0  0  0  0  0  0  0  0
    1.0601    4.5747    0.0000 C   0  0  0  0  0  0  0  0  0
    1.0601    3.7497    0.0000 C   0  0  0  0  0  0  0  0  0
   -1.0833    3.3372    0.0000 C   0  0  0  0  0  0  0  0  0
    2.4890    1.2747    0.0000 C   0  0  0  0  0  0  0  0  0
    3.2035    0.8622    0.0000 C   0  0  0  0  0  0  0  0  0
    3.9180    1.2747    0.0000 S   0  0  0  0  0  0  0  0  0
    3.9180    2.0997    0.0000 C   0  0  0  0  0  0  0  0  0
    3.2035    0.0372    0.0000 C   0  0  0  0  0  0  0  0  0
    2.4890   -0.3753    0.0000 C   0  0  0  0  0  0  0  0  0
  1  2  1  0  0  0  0
  1  6  1  0  0  0  0
  2  3  4  0  0  0  0
  2 25  4  0  0  0  0
  3  4  1  0  0  0  0
  3 20  4  0  0  0  0
  4  5  1  0  0  0  0
  4 11  1  0  0  0  0
  5  6  4  0  0  0  0
  5 10  4  0  0  0  0
  6  7  4  0  0  0  0
  7  8  4  0  0  0  0
  8  9  4  0  0  0  0
  9 10  4  0  0  0  0
 11 12  1  0  0  0  0
 12 13  1  0  0  0  0
 13 14  1  0  0  0  0
 13 18  1  0  0  0  0
 14 15  1  0  0  0  0
 14 19  1  0  0  0  0
 15 16  1  0  0  0  0
 16 17  1  0  0  0  0
 17 18  1  0  0  0  0
 20 21  4  0  0  0  0
 21 22  1  0  0  0  0
 21 24  4  0  0  0  0
 22 23  1  0  0  0  0
 24 25  4  0  0  0  0
M  END
>  <Name_Molregno>
THIORIDAZINE

>  <5-HT1A>
6.85

>  <5-HT1B>
6.96

>  <5-HT1D>
6.24

>  <5-HT1E>
6.71

>  <5-HT2A>
7.95

>  <5-HT2C>
7.28

>  <5-HT3>
5

>  <5-HT5>
6.44

>  <5-HT6>
7.24

>  <5-HT7>
7.05

>  <Alpha-1A>
8.6

>  <Alpha-1B>
8.62

>  <Alpha-2A>
6.87

>  <Alpha-2B>
6.47

>  <Alpha-2C>
7.13

>  <Beta-1>
5

>  <Beta-2>
5

>  <DOPAMINE D1>
7.03

>  <DOPAMINE D2>
8.31

>  <DOPAMINE D3>
8.59

>  <DOPAMINE D4>
8.21

>  <DOPAMINE D5>
6.6

>  <Dopamine transporter>
5.77

>  <HISTAMINE H1>
7.79

>  <HISTAMINE H2>
6.87

>  <HISTAMINE H4>
5.62

>  <Muscarinic acetylcholine receptor M1>
8.21

>  <Muscarinic acetylcholine receptor M2>
7.26

>  <Muscarinic acetylcholine receptor M3>
7.6

>  <Muscarinic acetylcholine receptor M4>
7.38

>  <Muscarinic acetylcholine receptor M5>
7.9

>  <Norepinephrine transporter>
6.07

>  <Serotonin transporter>
5.9

$$$$
TRAZODONE
  Marvin  02231216192D 0   1.00000     0.00000     0

 26 29  0  0  0  0  0  0  0  0999 V2000
    0.6158   -2.7707    0.0000 Cl  0  0  0  0  0  0  0  0  0
    1.4408   -2.7707    0.0000 C   0  0  0  0  0  0  0  0  0
    1.8533   -2.0563    0.0000 C   0  0  0  0  0  0  0  0  0
    2.6783   -2.0563    0.0000 C   0  0  0  0  0  0  0  0  0
    3.0908   -1.3418    0.0000 N   0  0  0  0  0  0  0  0  0
    2.6783   -0.6273    0.0000 C   0  0  0  0  0  0  0  0  0
    3.0908    0.0872    0.0000 C   0  0  0  0  0  0  0  0  0
    3.9158    0.0872    0.0000 N   0  0  0  0  0  0  0  0  0
    4.3283   -0.6273    0.0000 C   0  0  0  0  0  0  0  0  0
    3.9158   -1.3418    0.0000 C   0  0  0  0  0  0  0  0  0
    4.3283    0.8016    0.0000 C   0  0  0  0  0  0  0  0  0
    5.1533    0.8016    0.0000 C   0  0  0  0  0  0  0  0  0
    5.5658    1.5161    0.0000 C   0  0  0  0  0  0  0  0  0
    6.3908    1.5161    0.0000 N   0  0  0  0  0  0  0  0  0
    6.8757    0.8487    0.0000 N   0  0  0  0  0  0  0  0  0
    7.6604    1.1036    0.0000 C   0  0  0  0  0  0  0  0  0
    7.6604    1.9286    0.0000 N   0  0  0  0  0  0  0  0  0
    8.3748    2.3411    0.0000 C   0  0  0  0  0  0  0  0  0
    9.0893    1.9286    0.0000 C   0  0  0  0  0  0  0  0  0
    9.0893    1.1036    0.0000 C   0  0  0  0  0  0  0  0  0
    8.3748    0.6911    0.0000 C   0  0  0  0  0  0  0  0  0
    6.8757    2.1835    0.0000 C   0  0  0  0  0  0  0  0  0
    6.6208    2.9682    0.0000 O   0  0  0  0  0  0  0  0  0
    3.0908   -2.7707    0.0000 C   0  0  0  0  0  0  0  0  0
    2.6783   -3.4852    0.0000 C   0  0  0  0  0  0  0  0  0
    1.8533   -3.4852    0.0000 C   0  0  0  0  0  0  0  0  0
  1  2  1  0  0  0  0
  2  3  4  0  0  0  0
  2 26  4  0  0  0  0
  3  4  4  0  0  0  0
  4  5  1  0  0  0  0
  4 24  4  0  0  0  0
  5  6  1  0  0  0  0
  5 10  1  0  0  0  0
  6  7  1  0  0  0  0
  7  8  1  0  0  0  0
  8  9  1  0  0  0  0
  8 11  1  0  0  0  0
  9 10  1  0  0  0  0
 11 12  1  0  0  0  0
 12 13  1  0  0  0  0
 13 14  1  0  0  0  0
 14 15  1  0  0  0  0
 14 22  1  0  0  0  0
 15 16  2  0  0  0  0
 16 17  1  0  0  0  0
 16 21  1  0  0  0  0
 17 18  1  0  0  0  0
 17 22  1  0  0  0  0
 18 19  2  0  0  0  0
 19 20  1  0  0  0  0
 20 21  2  0  0  0  0
 22 23  2  0  0  0  0
 24 25  4  0  0  0  0
 25 26  4  0  0  0  0
M  END
>  <Name_Molregno>
TRAZODONE

>  <5-HT1A>
6.97

>  <5-HT1B>
5

>  <5-HT1D>
6.97

>  <5-HT1E>
5

>  <5-HT2A>
7.46

>  <5-HT2C>
6.65

>  <5-HT3>
5

>  <5-HT5>
5

>  <5-HT6>
5

>  <5-HT7>
5.75

>  <Alpha-1A>
6.82

>  <Alpha-2A>
6.14

>  <Alpha-2C>
6.81

>  <Beta-1>
5

>  <Beta-2>
5

>  <DOPAMINE D1>
5.43

>  <DOPAMINE D2>
5.42

>  <DOPAMINE D4>
6.15

>  <DOPAMINE D5>
5

>  <Dopamine transporter>
5.07

>  <HISTAMINE H1>
6.31

>  <HISTAMINE H2>
5.48

>  <HISTAMINE H4>
5

>  <Muscarinic acetylcholine receptor M1>
5

>  <Muscarinic acetylcholine receptor M2>
5

>  <Muscarinic acetylcholine receptor M3>
5

>  <Muscarinic acetylcholine receptor M4>
5

>  <Muscarinic acetylcholine receptor M5>
5

>  <Norepinephrine transporter>
5.02

>  <Serotonin transporter>
6.14

$$$$
valeryl-salicylate
  Marvin  02231216192D 0   1.00000     0.00000     0

 16 16  0  0  0  0  0  0  0  0999 V2000
   -0.4431    0.9218    0.0000 O   0  0  0  0  0  0  0  0  0
    0.2714    1.3343    0.0000 C   0  0  0  0  0  0  0  0  0
    0.2714    2.1593    0.0000 O   0  0  0  0  0  0  0  0  0
    0.9859    0.9218    0.0000 C   0  0  0  0  0  0  0  0  0
    1.7003    1.3343    0.0000 C   0  0  0  0  0  0  0  0  0
    2.4148    0.9218    0.0000 C   0  0  0  0  0  0  0  0  0
    2.4148    0.0968    0.0000 C   0  0  0  0  0  0  0  0  0
   -0.4431    0.0968    0.0000 C   0  0  0  0  0  0  0  0  0
    0.2714   -0.3157    0.0000 C   0  0  0  0  0  0  0  0  0
    0.2714   -1.1407    0.0000 C   0  0  0  0  0  0  0  0  0
   -0.4431   -1.5532    0.0000 C   0  0  0  0  0  0  0  0  0
   -1.1576   -1.1407    0.0000 C   0  0  0  0  0  0  0  0  0
   -1.1576   -0.3157    0.0000 C   0  0  0  0  0  0  0  0  0
   -1.8720    0.0968    0.0000 C   0  0  0  0  0  0  0  0  0
   -2.5865   -0.3157    0.0000 O   0  0  0  0  0  0  0  0  0
   -1.8720    0.9218    0.0000 O   0  0  0  0  0  0  0  0  0
  1  2  1  0  0  0  0
  1  8  1  0  0  0  0
  2  3  2  0  0  0  0
  2  4  1  0  0  0  0
  4  5  1  0  0  0  0
  5  6  1  0  0  0  0
  6  7  1  0  0  0  0
  8  9  4  0  0  0  0
  8 13  4  0  0  0  0
  9 10  4  0  0  0  0
 10 11  4  0  0  0  0
 11 12  4  0  0  0  0
 12 13  4  0  0  0  0
 13 14  1  0  0  0  0
 14 15  1  0  0  0  0
 14 16  2  0  0  0  0
M  END
>  <Name_Molregno>
valeryl-salicylate

>  <5-HT1A>
5

>  <5-HT1B>
5

>  <5-HT1D>
5

>  <5-HT1E>
5

>  <5-HT2A>
5

>  <5-HT3>
5

>  <5-HT5>
5

>  <5-HT6>
5

>  <5-HT7>
5

>  <Alpha-1A>
5

>  <Alpha-1B>
5

>  <Alpha-2A>
5

>  <Alpha-2B>
5

>  <Alpha-2C>
5

>  <DOPAMINE D1>
5

>  <DOPAMINE D2>
5

>  <DOPAMINE D4>
5

>  <DOPAMINE D5>
5

>  <HISTAMINE H1>
5

>  <HISTAMINE H2>
5

>  <HISTAMINE H4>
5

>  <Muscarinic acetylcholine receptor M2>
5

>  <Muscarinic acetylcholine receptor M5>
5

$$$$
ZIPRASIDONE
  Marvin  02231216192D 0   1.00000     0.00000     0

 28 32  0  0  0  0  0  0  0  0999 V2000
   -5.2868    0.2535    0.0000 Cl  0  0  0  0  0  0  0  0  0
   -4.7347    0.8666    0.0000 C   0  0  0  0  0  0  0  0  0
   -4.9897    1.6513    0.0000 C   0  0  0  0  0  0  0  0  0
   -4.4376    2.2643    0.0000 C   0  0  0  0  0  0  0  0  0
   -4.5239    3.0848    0.0000 N   0  0  0  0  0  0  0  0  0
   -3.7702    3.4204    0.0000 C   0  0  0  0  0  0  0  0  0
   -3.5987    4.2274    0.0000 O   0  0  0  0  0  0  0  0  0
   -3.2182    2.8073    0.0000 C   0  0  0  0  0  0  0  0  0
   -3.6307    2.0928    0.0000 C   0  0  0  0  0  0  0  0  0
   -3.3757    1.3082    0.0000 C   0  0  0  0  0  0  0  0  0
   -3.9278    0.6951    0.0000 C   0  0  0  0  0  0  0  0  0
   -3.6728   -0.0895    0.0000 C   0  0  0  0  0  0  0  0  0
   -2.8658   -0.2610    0.0000 C   0  0  0  0  0  0  0  0  0
   -2.6109   -1.0457    0.0000 N   0  0  0  0  0  0  0  0  0
   -1.8039   -1.2172    0.0000 C   0  0  0  0  0  0  0  0  0
   -1.5490   -2.0018    0.0000 C   0  0  0  0  0  0  0  0  0
   -2.1010   -2.6149    0.0000 N   0  0  0  0  0  0  0  0  0
   -2.9080   -2.4434    0.0000 C   0  0  0  0  0  0  0  0  0
   -3.1629   -1.6588    0.0000 C   0  0  0  0  0  0  0  0  0
   -1.8461   -3.3995    0.0000 C   0  0  0  0  0  0  0  0  0
   -2.3310   -4.0670    0.0000 N   0  0  0  0  0  0  0  0  0
   -1.8461   -4.7344    0.0000 S   0  0  0  0  0  0  0  0  0
   -1.0615   -4.4795    0.0000 C   0  0  0  0  0  0  0  0  0
   -1.0615   -3.6545    0.0000 C   0  0  0  0  0  0  0  0  0
   -0.3470   -3.2420    0.0000 C   0  0  0  0  0  0  0  0  0
    0.3675   -3.6545    0.0000 C   0  0  0  0  0  0  0  0  0
    0.3675   -4.4795    0.0000 C   0  0  0  0  0  0  0  0  0
   -0.3470   -4.8920    0.0000 C   0  0  0  0  0  0  0  0  0
  1  2  1  0  0  0  0
  2  3  4  0  0  0  0
  2 11  4  0  0  0  0
  3  4  4  0  0  0  0
  4  5  1  0  0  0  0
  4  9  4  0  0  0  0
  5  6  1  0  0  0  0
  6  7  2  0  0  0  0
  6  8  1  0  0  0  0
  8  9  1  0  0  0  0
  9 10  4  0  0  0  0
 10 11  4  0  0  0  0
 11 12  1  0  0  0  0
 12 13  1  0  0  0  0
 13 14  1  0  0  0  0
 14 15  1  0  0  0  0
 14 19  1  0  0  0  0
 15 16  1  0  0  0  0
 16 17  1  0  0  0  0
 17 18  1  0  0  0  0
 17 20  1  0  0  0  0
 18 19  1  0  0  0  0
 20 21  4  0  0  0  0
 20 24  4  0  0  0  0
 21 22  4  0  0  0  0
 22 23  4  0  0  0  0
 23 24  4  0  0  0  0
 23 28  4  0  0  0  0
 24 25  4  0  0  0  0
 25 26  4  0  0  0  0
 26 27  4  0  0  0  0
 27 28  4  0  0  0  0
M  END
>  <Name_Molregno>
ZIPRASIDONE

>  <5-HT1A>
8.19

>  <5-HT1B>
8.7

>  <5-HT1D>
8.32

>  <5-HT1E>
6.17

>  <5-HT2A>
9.54

>  <5-HT2C>
8.82

>  <5-HT3>
5.7

>  <5-HT5>
6.54

>  <5-HT6>
7.17

>  <5-HT7>
8.23

>  <Alpha-1A>
7.74

>  <Alpha-1B>
8.05

>  <Alpha-2A>
6.8

>  <Alpha-2B>
7.32

>  <Alpha-2C>
7.15

>  <Beta-1>
5.3

>  <Beta-2>
5.15

>  <DOPAMINE D1>
7.1

>  <DOPAMINE D2>
8.39

>  <DOPAMINE D3>
8.21

>  <DOPAMINE D4>
7.43

>  <DOPAMINE D5>
6.82

>  <Dopamine transporter>
5

>  <HISTAMINE H1>
7.51

>  <HISTAMINE H2>
5.46

>  <HISTAMINE H4>
5

>  <Muscarinic acetylcholine receptor M1>
5.53

>  <Muscarinic acetylcholine receptor M2>
5.26

>  <Muscarinic acetylcholine receptor M3>
5.3

>  <Muscarinic acetylcholine receptor M4>
5.4

>  <Muscarinic acetylcholine receptor M5>
5.4

>  <Norepinephrine transporter>
7.36

>  <Serotonin transporter>
6.92

$$$$
ZOTEPINE
  Marvin  02231216192D 0   1.00000     0.00000     0

 22 24  0  0  0  0  0  0  0  0999 V2000
    1.8575   -4.4413    0.0000 Cl  0  0  0  0  0  0  0  0  0
    1.0691   -4.1981    0.0000 C   0  0  0  0  0  0  0  0  0
    0.8856   -3.3938    0.0000 C   0  0  0  0  0  0  0  0  0
    0.0972   -3.1507    0.0000 C   0  0  0  0  0  0  0  0  0
   -0.5076   -3.7118    0.0000 C   0  0  0  0  0  0  0  0  0
   -1.3233   -3.5888    0.0000 S   0  0  0  0  0  0  0  0  0
   -1.7358   -2.8744    0.0000 C   0  0  0  0  0  0  0  0  0
   -1.4344   -2.1064    0.0000 C   0  0  0  0  0  0  0  0  0
   -0.6461   -1.8632    0.0000 C   0  0  0  0  0  0  0  0  0
    0.0356   -2.3280    0.0000 C   0  0  0  0  0  0  0  0  0
    0.7500   -1.9155    0.0000 O   0  0  0  0  0  0  0  0  0
    1.4645   -2.3280    0.0000 C   0  0  0  0  0  0  0  0  0
    2.1790   -1.9155    0.0000 C   0  0  0  0  0  0  0  0  0
    2.8934   -2.3280    0.0000 N   0  0  0  0  0  0  0  0  0
    3.6079   -1.9155    0.0000 C   0  0  0  0  0  0  0  0  0
    2.8934   -3.1530    0.0000 C   0  0  0  0  0  0  0  0  0
   -1.9488   -1.4614    0.0000 C   0  0  0  0  0  0  0  0  0
   -2.7646   -1.5843    0.0000 C   0  0  0  0  0  0  0  0  0
   -3.0660   -2.3523    0.0000 C   0  0  0  0  0  0  0  0  0
   -2.5516   -2.9973    0.0000 C   0  0  0  0  0  0  0  0  0
   -0.3240   -4.5161    0.0000 C   0  0  0  0  0  0  0  0  0
    0.4644   -4.7593    0.0000 C   0  0  0  0  0  0  0  0  0
  1  2  1  0  0  0  0
  2  3  4  0  0  0  0
  2 22  4  0  0  0  0
  3  4  4  0  0  0  0
  4  5  4  0  0  0  0
  4 10  1  0  0  0  0
  5  6  1  0  0  0  0
  5 21  4  0  0  0  0
  6  7  1  0  0  0  0
  7  8  4  0  0  0  0
  7 20  4  0  0  0  0
  8  9  1  0  0  0  0
  8 17  4  0  0  0  0
  9 10  2  0  0  0  0
 10 11  1  0  0  0  0
 11 12  1  0  0  0  0
 12 13  1  0  0  0  0
 13 14  1  0  0  0  0
 14 15  1  0  0  0  0
 14 16  1  0  0  0  0
 17 18  4  0  0  0  0
 18 19  4  0  0  0  0
 19 20  4  0  0  0  0
 21 22  4  0  0  0  0
M  END
>  <Name_Molregno>
ZOTEPINE

>  <5-HT1A>
6.41

>  <5-HT1B>
7.23

>  <5-HT1D>
7.02

>  <5-HT1E>
6.23

>  <5-HT2A>
8.58

>  <5-HT2C>
8.49

>  <5-HT3>
6.33

>  <5-HT5>
7.54

>  <5-HT6>
8.22

>  <5-HT7>
7.92

>  <Alpha-1A>
8.15

>  <Alpha-1B>
8.3

>  <Alpha-2A>
6.68

>  <Alpha-2B>
8.27

>  <Alpha-2C>
7.02

>  <Beta-1>
5.19

>  <Beta-2>
5.32

>  <DOPAMINE D1>
7.15

>  <DOPAMINE D2>
7.98

>  <DOPAMINE D3>
8.19

>  <DOPAMINE D4>
7.57

>  <DOPAMINE D5>
6.61

>  <Dopamine transporter>
5.44

>  <HISTAMINE H1>
8.64

>  <HISTAMINE H2>
6.3

>  <HISTAMINE H4>
5.7

>  <Muscarinic acetylcholine receptor M1>
6.37

>  <Muscarinic acetylcholine receptor M2>
5.92

>  <Muscarinic acetylcholine receptor M3>
6.07

>  <Muscarinic acetylcholine receptor M4>
6.06

>  <Muscarinic acetylcholine receptor M5>
5.8

>  <Norepinephrine transporter>
6.28

>  <Serotonin transporter>
6.41

$$$$
