2724
  Marvin  02231216192D 0   1.00000     0.00000     0

 16 17  0  0  1  0  0  0  0  0999 V2000
    1.7558    2.8334    0.0000 O   0  0  0  0  0  0  0  0  0
    1.7558    2.0084    0.0000 C   0  0  0  0  0  0  0  0  0
    2.4703    1.5959    0.0000 C   0  0  0  0  0  0  0  0  0
    2.4703    0.7709    0.0000 C   0  0  0  0  0  0  0  0  0
    1.7558    0.3584    0.0000 C   0  0  0  0  0  0  0  0  0
    1.0413    0.7709    0.0000 C   0  0  0  0  0  0  0  0  0
    1.0413    1.5959    0.0000 C   0  0  0  0  0  0  0  0  0
    3.1847    0.3584    0.0000 C   0  0  0  0  0  0  0  0  0
    3.8992    0.7709    0.0000 C   0  0  0  0  0  0  0  0  0
    4.6137    0.3584    0.0000 C   0  0  0  0  0  0  0  0  0
    4.6137   -0.4666    0.0000 C   0  0  0  0  0  0  0  0  0
    3.8992   -0.8791    0.0000 N   0  0  0  0  0  0  0  0  0
    3.1847   -0.4666    0.0000 C   0  0  0  0  0  0  0  0  0
    3.8992   -1.7041    0.0000 C   0  0  0  0  0  0  0  0  0
    3.1847   -2.1166    0.0000 C   0  0  0  0  0  0  0  0  0
    3.1847   -2.9416    0.0000 C   0  0  0  0  0  0  0  0  0
  1  2  1  0  0  0  0
  2  3  4  0  0  0  0
  2  7  4  0  0  0  0
  3  4  4  0  0  0  0
  4  5  4  0  0  0  0
  4  8  1  0  0  0  0
  5  6  4  0  0  0  0
  6  7  4  0  0  0  0
  8  9  1  0  0  0  0
  8 13  1  0  0  0  0
  9 10  1  0  0  0  0
 10 11  1  0  0  0  0
 11 12  1  0  0  0  0
 12 13  1  0  0  0  0
 12 14  1  0  0  0  0
 14 15  1  0  0  0  0
 15 16  1  0  0  0  0
M  END
>  <Name_Molregno>
2724

>  <5-HT1A>
5.73

>  <5-HT1E>
5

>  <5-HT3>
5

>  <5-HT5>
5

>  <5-HT6>
5

>  <Alpha-1A>
5

>  <Alpha-1B>
5

>  <Beta-2>
5

>  <DOPAMINE D1>
5

>  <DOPAMINE D2>
6.47

>  <DOPAMINE D3>
6.93

>  <DOPAMINE D4>
6.29

>  <DOPAMINE D5>
5.31

>  <Dopamine transporter>
5

>  <Muscarinic acetylcholine receptor M1>
5

>  <Muscarinic acetylcholine receptor M2>
5

>  <Muscarinic acetylcholine receptor M3>
5

>  <Muscarinic acetylcholine receptor M4>
5

>  <Muscarinic acetylcholine receptor M5>
5

>  <Norepinephrine transporter>
5.64

>  <Serotonin transporter>
5

$$$$
12055
  Marvin  02231216192D 0   1.00000     0.00000     0

 41 43  0  0  1  0  0  0  0  0999 V2000
    2.3281   -1.2394    0.0000 S   0  0  0  0  0  0  0  0  0
    2.7406   -1.9539    0.0000 O   0  0  0  0  0  0  0  0  0
    1.9156   -0.5249    0.0000 O   0  0  0  0  0  0  0  0  0
    1.6136   -1.6519    0.0000 N   0  0  0  0  0  0  0  0  0
    0.8991   -1.2394    0.0000 C   0  0  0  0  0  0  0  0  0
    0.1846   -1.6519    0.0000 C   0  0  0  0  0  0  0  0  0
   -0.5298   -1.2394    0.0000 C   0  0  0  0  0  0  0  0  0
   -0.5298   -0.4144    0.0000 C   0  0  0  0  0  0  0  0  0
    0.1846   -0.0019    0.0000 C   0  0  0  0  0  0  0  0  0
    0.8991   -0.4144    0.0000 C   0  0  0  0  0  0  0  0  0
   -1.2443   -0.0019    0.0000 C   0  0  0  0  0  0  0  0  0
   -1.2443    0.8231    0.0000 C   0  0  0  0  0  0  0  0  0
   -1.9588    1.2356    0.0000 N   0  0  0  0  0  0  0  0  0
   -1.9588    2.0606    0.0000 C   0  0  0  0  0  0  0  0  0
   -2.6732    2.4731    0.0000 C   0  0  0  0  0  0  0  0  0
   -3.3877    2.0606    0.0000 O   0  0  0  0  0  0  0  0  0
   -2.6732    3.2981    0.0000 C   0  0  0  0  0  0  0  0  0
   -3.3877    3.7106    0.0000 O   0  0  0  0  0  0  0  0  0
   -3.3877    4.5356    0.0000 C   0  0  0  0  0  0  0  0  0
   -4.1022    4.9481    0.0000 C   0  0  0  0  0  0  0  0  0
   -4.1022    5.7731    0.0000 C   0  0  0  0  0  0  0  0  0
   -3.3877    6.1856    0.0000 C   0  0  0  0  0  0  0  0  0
   -3.3877    7.0106    0.0000 O   0  0  0  0  0  0  0  0  0
   -2.6732    5.7731    0.0000 C   0  0  0  0  0  0  0  0  0
   -2.6732    4.9481    0.0000 C   0  0  0  0  0  0  0  0  0
    3.0425   -0.8269    0.0000 C   0  0  0  0  0  0  0  0  0
    3.0425   -0.0019    0.0000 C   0  0  0  0  0  0  0  0  0
    3.7570    0.4106    0.0000 C   0  0  0  0  0  0  0  0  0
    4.4715   -0.0019    0.0000 C   0  0  0  0  0  0  0  0  0
    5.1859    0.4106    0.0000 N   0  0  0  0  0  0  0  0  0
    5.9004   -0.0019    0.0000 C   0  0  0  0  0  0  0  0  0
    5.9004   -0.8269    0.0000 O   0  0  0  0  0  0  0  0  0
    6.6149    0.4106    0.0000 N   0  0  0  0  0  0  0  0  0
    7.3294   -0.0019    0.0000 C   0  0  0  0  0  0  0  0  0
    8.0438    0.4106    0.0000 C   0  0  0  0  0  0  0  0  0
    8.7583   -0.0019    0.0000 C   0  0  0  0  0  0  0  0  0
    9.4728    0.4106    0.0000 C   0  0  0  0  0  0  0  0  0
   10.1872   -0.0019    0.0000 C   0  0  0  0  0  0  0  0  0
   10.9017    0.4106    0.0000 C   0  0  0  0  0  0  0  0  0
    4.4715   -0.8269    0.0000 C   0  0  0  0  0  0  0  0  0
    3.7570   -1.2394    0.0000 C   0  0  0  0  0  0  0  0  0
  1  2  2  0  0  0  0
  1  3  2  0  0  0  0
  1  4  1  0  0  0  0
  1 26  1  0  0  0  0
  4  5  1  0  0  0  0
  5  6  4  0  0  0  0
  5 10  4  0  0  0  0
  6  7  4  0  0  0  0
  7  8  4  0  0  0  0
  8  9  4  0  0  0  0
  8 11  1  0  0  0  0
  9 10  4  0  0  0  0
 11 12  1  0  0  0  0
 12 13  1  0  0  0  0
 13 14  1  0  0  0  0
 14 15  1  0  0  0  0
 15 16  1  0  0  0  0
 15 17  1  0  0  0  0
 17 18  1  0  0  0  0
 18 19  1  0  0  0  0
 19 20  4  0  0  0  0
 19 25  4  0  0  0  0
 20 21  4  0  0  0  0
 21 22  4  0  0  0  0
 22 23  1  0  0  0  0
 22 24  4  0  0  0  0
 24 25  4  0  0  0  0
 26 27  4  0  0  0  0
 26 41  4  0  0  0  0
 27 28  4  0  0  0  0
 28 29  4  0  0  0  0
 29 30  1  0  0  0  0
 29 40  4  0  0  0  0
 30 31  1  0  0  0  0
 31 32  2  0  0  0  0
 31 33  1  0  0  0  0
 33 34  1  0  0  0  0
 34 35  1  0  0  0  0
 35 36  1  0  0  0  0
 36 37  1  0  0  0  0
 37 38  1  0  0  0  0
 38 39  1  0  0  0  0
 40 41  4  0  0  0  0
M  END
>  <Name_Molregno>
12055

>  <Beta-1>
6.24

>  <Beta-2>
6.8

$$$$
32852
  Marvin  02231216192D 0   1.00000     0.00000     0

 25 26  0  0  1  0  0  0  0  0999 V2000
   -0.1366    0.0054    0.0000 Cl  0  0  0  0  0  0  0  0  0
    0.5779   -0.4071    0.0000 C   0  0  0  0  0  0  0  0  0
    1.2924    0.0054    0.0000 C   0  0  0  0  0  0  0  0  0
    2.0069   -0.4071    0.0000 C   0  0  0  0  0  0  0  0  0
    2.0069   -1.2321    0.0000 C   0  0  0  0  0  0  0  0  0
    1.2924   -1.6446    0.0000 C   0  0  0  0  0  0  0  0  0
    0.5779   -1.2321    0.0000 C   0  0  0  0  0  0  0  0  0
    2.7213    0.0054    0.0000 C   0  0  0  0  0  0  0  0  0
    2.7213    0.8304    0.0000 O   0  0  0  0  0  0  0  0  0
    3.4358   -0.4071    0.0000 C   0  0  0  0  0  0  0  0  0
    4.1503    0.0054    0.0000 N   0  0  0  0  0  0  0  0  0
    4.8647   -0.4071    0.0000 C   0  0  0  0  0  0  0  0  0
    5.5792    0.0054    0.0000 C   0  0  0  0  0  0  0  0  0
    6.2937   -0.4071    0.0000 C   0  0  0  0  0  0  0  0  0
    7.0081    0.0054    0.0000 C   0  0  0  0  0  0  0  0  0
    7.7226   -0.4071    0.0000 C   0  0  0  0  0  0  0  0  0
    7.7226   -1.2321    0.0000 C   0  0  0  0  0  0  0  0  0
    8.4371   -1.6446    0.0000 O   0  0  0  0  0  0  0  0  0
    9.1516   -1.2321    0.0000 C   0  0  0  0  0  0  0  0  0
    9.8660   -1.6446    0.0000 C   0  0  0  0  0  0  0  0  0
   10.5805   -1.2321    0.0000 O   0  0  0  0  0  0  0  0  0
    9.8660   -2.4696    0.0000 O   0  0  0  0  0  0  0  0  0
    7.0081   -1.6446    0.0000 C   0  0  0  0  0  0  0  0  0
    6.2937   -1.2321    0.0000 C   0  0  0  0  0  0  0  0  0
    4.8647   -1.2321    0.0000 C   0  0  0  0  0  0  0  0  0
  1  2  1  0  0  0  0
  2  3  4  0  0  0  0
  2  7  4  0  0  0  0
  3  4  4  0  0  0  0
  4  5  4  0  0  0  0
  4  8  1  0  0  0  0
  5  6  4  0  0  0  0
  6  7  4  0  0  0  0
  8  9  1  0  0  0  0
  8 10  1  0  0  0  0
 10 11  1  0  0  0  0
 11 12  1  0  0  0  0
 12 13  1  0  0  0  0
 12 25  1  0  0  0  0
 13 14  1  0  0  0  0
 14 15  4  0  0  0  0
 14 24  4  0  0  0  0
 15 16  4  0  0  0  0
 16 17  4  0  0  0  0
 17 18  1  0  0  0  0
 17 23  4  0  0  0  0
 18 19  1  0  0  0  0
 19 20  1  0  0  0  0
 20 21  1  0  0  0  0
 20 22  2  0  0  0  0
 23 24  4  0  0  0  0
M  END
>  <Name_Molregno>
32852

>  <Beta-1>
5.47

>  <Beta-2>
5.6

$$$$
39693
  Marvin  02231216192D 0   1.00000     0.00000     0

 16 17  0  0  1  0  0  0  0  0999 V2000
   -0.7175   -1.0540    0.0000 S   0  0  0  0  0  0  0  0  0
    0.0671   -0.7990    0.0000 C   0  0  0  0  0  0  0  0  0
    0.0671    0.0260    0.0000 C   0  0  0  0  0  0  0  0  0
   -0.7175    0.2809    0.0000 N   0  0  0  0  0  0  0  0  0
   -1.2024   -0.3865    0.0000 C   0  0  0  0  0  0  0  0  0
   -2.0274   -0.3865    0.0000 O   0  0  0  0  0  0  0  0  0
    0.7816    0.4385    0.0000 C   0  0  0  0  0  0  0  0  0
    0.7816    1.2635    0.0000 O   0  0  0  0  0  0  0  0  0
    1.4961    0.0260    0.0000 C   0  0  0  0  0  0  0  0  0
    1.4961   -0.7990    0.0000 C   0  0  0  0  0  0  0  0  0
    0.7816   -1.2115    0.0000 C   0  0  0  0  0  0  0  0  0
    0.7816   -2.0365    0.0000 C   0  0  0  0  0  0  0  0  0
    0.0671   -2.4490    0.0000 O   0  0  0  0  0  0  0  0  0
    1.4961   -2.4490    0.0000 C   0  0  0  0  0  0  0  0  0
    1.4961   -3.2740    0.0000 N   0  0  0  0  0  0  0  0  0
    2.2105   -3.6865    0.0000 C   0  0  0  0  0  0  0  0  0
  1  2  4  0  0  0  0
  1  5  4  0  0  0  0
  2  3  4  0  0  0  0
  2 11  4  0  0  0  0
  3  4  4  0  0  0  0
  3  7  4  0  0  0  0
  4  5  4  0  0  0  0
  5  6  1  0  0  0  0
  7  8  1  0  0  0  0
  7  9  4  0  0  0  0
  9 10  4  0  0  0  0
 10 11  4  0  0  0  0
 11 12  1  0  0  0  0
 12 13  1  0  0  0  0
 12 14  1  0  0  0  0
 14 15  1  0  0  0  0
 15 16  1  0  0  0  0
M  END
>  <Name_Molregno>
39693

>  <Beta-1>
7.22

>  <Beta-2>
8.3

$$$$
47109
  Marvin  02231216192D 0   1.00000     0.00000     0

 29 31  0  0  1  0  0  0  0  0999 V2000
   -0.6447   -0.1610    0.0000 Cl  0  0  0  0  0  0  0  0  0
    0.0698   -0.5735    0.0000 C   0  0  0  0  0  0  0  0  0
    0.7842   -0.1610    0.0000 C   0  0  0  0  0  0  0  0  0
    1.4987   -0.5735    0.0000 C   0  0  0  0  0  0  0  0  0
    1.4987   -1.3985    0.0000 C   0  0  0  0  0  0  0  0  0
    0.7842   -1.8110    0.0000 C   0  0  0  0  0  0  0  0  0
    0.0698   -1.3985    0.0000 C   0  0  0  0  0  0  0  0  0
    2.2132   -0.1610    0.0000 C   0  0  0  0  0  0  0  0  0
    2.2132    0.6640    0.0000 O   0  0  0  0  0  0  0  0  0
    2.9277   -0.5735    0.0000 C   0  0  0  0  0  0  0  0  0
    3.6421   -0.1610    0.0000 N   0  0  0  0  0  0  0  0  0
    4.3566   -0.5735    0.0000 C   0  0  0  0  0  0  0  0  0
    5.0711   -0.1610    0.0000 C   0  0  0  0  0  0  0  0  0
    5.7855   -0.5735    0.0000 C   0  0  0  0  0  0  0  0  0
    6.5000   -0.1610    0.0000 C   0  0  0  0  0  0  0  0  0
    7.2145   -0.5735    0.0000 C   0  0  0  0  0  0  0  0  0
    7.9991   -0.3185    0.0000 O   0  0  0  0  0  0  0  0  0
    8.4840   -0.9860    0.0000 C   0  0  0  0  0  0  0  0  0
    7.9991   -1.6534    0.0000 O   0  0  0  0  0  0  0  0  0
    7.2145   -1.3985    0.0000 C   0  0  0  0  0  0  0  0  0
    6.5000   -1.8110    0.0000 C   0  0  0  0  0  0  0  0  0
    5.7855   -1.3985    0.0000 C   0  0  0  0  0  0  0  0  0
    9.2028   -0.5810    0.0000 C   0  0  0  0  0  0  0  0  0
    9.2114    0.2440    0.0000 O   0  0  0  0  0  0  0  0  0
    9.9129   -1.0009    0.0000 O   0  0  0  0  0  0  0  0  0
    9.2028   -1.3910    0.0000 C   0  0  0  0  0  0  0  0  0
    9.2114   -2.2159    0.0000 O   0  0  0  0  0  0  0  0  0
   10.0241   -1.4686    0.0000 O   0  0  0  0  0  0  0  0  0
    4.3566   -1.3985    0.0000 C   0  0  0  0  0  0  0  0  0
  1  2  1  0  0  0  0
  2  3  4  0  0  0  0
  2  7  4  0  0  0  0
  3  4  4  0  0  0  0
  4  5  4  0  0  0  0
  4  8  1  0  0  0  0
  5  6  4  0  0  0  0
  6  7  4  0  0  0  0
  8  9  1  0  0  0  0
  8 10  1  0  0  0  0
 10 11  1  0  0  0  0
 11 12  1  0  0  0  0
 12 13  1  0  0  0  0
 12 29  1  0  0  0  0
 13 14  1  0  0  0  0
 14 15  4  0  0  0  0
 14 22  4  0  0  0  0
 15 16  4  0  0  0  0
 16 17  1  0  0  0  0
 16 20  4  0  0  0  0
 17 18  1  0  0  0  0
 18 19  1  0  0  0  0
 18 23  1  0  0  0  0
 18 26  1  0  0  0  0
 19 20  1  0  0  0  0
 20 21  4  0  0  0  0
 21 22  4  0  0  0  0
 23 24  1  0  0  0  0
 23 25  2  0  0  0  0
 26 27  1  0  0  0  0
 26 28  2  0  0  0  0
M  END
>  <Name_Molregno>
47109

>  <Beta-1>
4

>  <Beta-2>
4.1

$$$$
48466
  Marvin  02231216192D 0   1.00000     0.00000     0

 42 45  0  0  1  0  0  0  0  0999 V2000
   -8.7876    5.9486    0.0000 S   0  0  0  0  0  0  0  0  0
   -9.5021    6.3611    0.0000 O   0  0  0  0  0  0  0  0  0
   -9.2001    5.2342    0.0000 O   0  0  0  0  0  0  0  0  0
   -8.0732    5.5361    0.0000 N   0  0  0  0  0  0  0  0  0
   -8.0732    4.7111    0.0000 C   0  0  0  0  0  0  0  0  0
   -7.3587    4.2986    0.0000 C   0  0  0  0  0  0  0  0  0
   -7.3587    3.4736    0.0000 C   0  0  0  0  0  0  0  0  0
   -8.0732    3.0611    0.0000 C   0  0  0  0  0  0  0  0  0
   -8.7876    3.4736    0.0000 C   0  0  0  0  0  0  0  0  0
   -8.7876    4.2986    0.0000 C   0  0  0  0  0  0  0  0  0
   -9.5021    4.7111    0.0000 O   0  0  0  0  0  0  0  0  0
   -6.6442    3.0611    0.0000 C   0  0  0  0  0  0  0  0  0
   -5.9297    3.4736    0.0000 O   0  0  0  0  0  0  0  0  0
   -6.6442    2.2361    0.0000 C   0  0  0  0  0  0  0  0  0
   -5.9297    1.8236    0.0000 N   0  0  0  0  0  0  0  0  0
   -5.9297    0.9986    0.0000 C   0  0  0  0  0  0  0  0  0
   -5.2153    0.5861    0.0000 C   0  0  0  0  0  0  0  0  0
   -5.2153   -0.2389    0.0000 C   0  0  0  0  0  0  0  0  0
   -5.9297   -0.6514    0.0000 N   0  0  0  0  0  0  0  0  0
   -6.6442   -0.2389    0.0000 C   0  0  0  0  0  0  0  0  0
   -6.6442    0.5861    0.0000 C   0  0  0  0  0  0  0  0  0
   -5.9297   -1.4764    0.0000 C   0  0  0  0  0  0  0  0  0
   -5.2153   -1.8889    0.0000 C   0  0  0  0  0  0  0  0  0
   -5.2153   -2.7139    0.0000 C   0  0  0  0  0  0  0  0  0
   -5.9297   -3.1264    0.0000 C   0  0  0  0  0  0  0  0  0
   -6.6442   -2.7139    0.0000 C   0  0  0  0  0  0  0  0  0
   -6.6442   -1.8889    0.0000 C   0  0  0  0  0  0  0  0  0
   -5.9297   -3.9514    0.0000 C   0  0  0  0  0  0  0  0  0
   -6.6442   -4.3639    0.0000 O   0  0  0  0  0  0  0  0  0
   -5.2153   -4.3639    0.0000 N   0  0  0  0  0  0  0  0  0
   -5.2153   -5.1889    0.0000 C   0  0  0  0  0  0  0  0  0
   -4.5008   -5.6014    0.0000 C   0  0  0  0  0  0  0  0  0
   -4.5008   -6.4264    0.0000 C   0  0  0  0  0  0  0  0  0
   -3.7863   -6.8389    0.0000 C   0  0  0  0  0  0  0  0  0
   -3.7863   -7.6639    0.0000 C   0  0  0  0  0  0  0  0  0
   -4.5008   -8.0764    0.0000 C   0  0  0  0  0  0  0  0  0
   -5.2153   -7.6639    0.0000 C   0  0  0  0  0  0  0  0  0
   -5.2153   -6.8389    0.0000 C   0  0  0  0  0  0  0  0  0
   -5.9297   -5.6014    0.0000 C   0  0  0  0  0  0  0  0  0
   -5.9297   -6.4264    0.0000 O   0  0  0  0  0  0  0  0  0
   -6.6442   -5.1889    0.0000 O   0  0  0  0  0  0  0  0  0
   -8.3751    6.6631    0.0000 C   0  0  0  0  0  0  0  0  0
  1  2  2  0  0  0  0
  1  3  2  0  0  0  0
  1  4  1  0  0  0  0
  1 42  1  0  0  0  0
  4  5  1  0  0  0  0
  5  6  4  0  0  0  0
  5 10  4  0  0  0  0
  6  7  4  0  0  0  0
  7  8  4  0  0  0  0
  7 12  1  0  0  0  0
  8  9  4  0  0  0  0
  9 10  4  0  0  0  0
 10 11  1  0  0  0  0
 12 13  1  0  0  0  0
 12 14  1  0  0  0  0
 14 15  1  0  0  0  0
 15 16  1  0  0  0  0
 16 17  1  0  0  0  0
 16 21  1  0  0  0  0
 17 18  1  0  0  0  0
 18 19  1  0  0  0  0
 19 20  1  0  0  0  0
 19 22  1  0  0  0  0
 20 21  1  0  0  0  0
 22 23  4  0  0  0  0
 22 27  4  0  0  0  0
 23 24  4  0  0  0  0
 24 25  4  0  0  0  0
 25 26  4  0  0  0  0
 25 28  1  0  0  0  0
 26 27  4  0  0  0  0
 28 29  2  0  0  0  0
 28 30  1  0  0  0  0
 30 31  1  0  0  0  0
 31 32  1  0  0  0  0
 31 39  1  0  0  0  0
 32 33  1  0  0  0  0
 33 34  4  0  0  0  0
 33 38  4  0  0  0  0
 34 35  4  0  0  0  0
 35 36  4  0  0  0  0
 36 37  4  0  0  0  0
 37 38  4  0  0  0  0
 39 40  1  0  0  0  0
 39 41  2  0  0  0  0
M  END
>  <Name_Molregno>
48466

>  <Beta-1>
4

>  <Beta-2>
6.32

$$$$
48595
  Marvin  02231216192D 0   1.00000     0.00000     0

 39 41  0  0  1  0  0  0  0  0999 V2000
   -0.4283    2.0299    0.0000 S   0  0  0  0  0  0  0  0  0
   -1.1427    1.6174    0.0000 O   0  0  0  0  0  0  0  0  0
   -0.0158    1.3154    0.0000 O   0  0  0  0  0  0  0  0  0
    0.2862    2.4424    0.0000 N   0  0  0  0  0  0  0  0  0
    1.0007    2.0299    0.0000 C   0  0  0  0  0  0  0  0  0
    1.7152    2.4424    0.0000 C   0  0  0  0  0  0  0  0  0
    2.4296    2.0299    0.0000 C   0  0  0  0  0  0  0  0  0
    2.4296    1.2049    0.0000 C   0  0  0  0  0  0  0  0  0
    1.7152    0.7924    0.0000 C   0  0  0  0  0  0  0  0  0
    1.0007    1.2049    0.0000 C   0  0  0  0  0  0  0  0  0
    0.2862    0.7924    0.0000 O   0  0  0  0  0  0  0  0  0
    3.1441    2.4424    0.0000 C   0  0  0  0  0  0  0  0  0
    3.1441    3.2674    0.0000 O   0  0  0  0  0  0  0  0  0
    3.8586    2.0299    0.0000 C   0  0  0  0  0  0  0  0  0
    4.5730    2.4424    0.0000 N   0  0  0  0  0  0  0  0  0
    5.2875    2.0299    0.0000 C   0  0  0  0  0  0  0  0  0
    6.0020    2.4424    0.0000 C   0  0  0  0  0  0  0  0  0
    6.7165    2.0299    0.0000 C   0  0  0  0  0  0  0  0  0
    6.7165    1.2049    0.0000 N   0  0  0  0  0  0  0  0  0
    6.0020    0.7924    0.0000 C   0  0  0  0  0  0  0  0  0
    5.2875    1.2049    0.0000 C   0  0  0  0  0  0  0  0  0
    7.4309    0.7924    0.0000 C   0  0  0  0  0  0  0  0  0
    8.1454    1.2049    0.0000 C   0  0  0  0  0  0  0  0  0
    8.8599    0.7924    0.0000 C   0  0  0  0  0  0  0  0  0
    8.8599   -0.0326    0.0000 C   0  0  0  0  0  0  0  0  0
    8.1454   -0.4451    0.0000 C   0  0  0  0  0  0  0  0  0
    7.4309   -0.0326    0.0000 C   0  0  0  0  0  0  0  0  0
    9.5743   -0.4451    0.0000 C   0  0  0  0  0  0  0  0  0
    9.5743   -1.2701    0.0000 O   0  0  0  0  0  0  0  0  0
   10.2888   -0.0326    0.0000 N   0  0  0  0  0  0  0  0  0
   11.0033   -0.4451    0.0000 C   0  0  0  0  0  0  0  0  0
   11.7178   -0.0326    0.0000 C   0  0  0  0  0  0  0  0  0
   12.4322   -0.4451    0.0000 C   0  0  0  0  0  0  0  0  0
   13.1467   -0.0326    0.0000 C   0  0  0  0  0  0  0  0  0
   12.4322   -1.2701    0.0000 C   0  0  0  0  0  0  0  0  0
   11.0033   -1.2701    0.0000 C   0  0  0  0  0  0  0  0  0
   11.7178   -1.6826    0.0000 O   0  0  0  0  0  0  0  0  0
   10.2888   -1.6826    0.0000 O   0  0  0  0  0  0  0  0  0
   -0.8408    2.7444    0.0000 C   0  0  0  0  0  0  0  0  0
  1  2  2  0  0  0  0
  1  3  2  0  0  0  0
  1  4  1  0  0  0  0
  1 39  1  0  0  0  0
  4  5  1  0  0  0  0
  5  6  4  0  0  0  0
  5 10  4  0  0  0  0
  6  7  4  0  0  0  0
  7  8  4  0  0  0  0
  7 12  1  0  0  0  0
  8  9  4  0  0  0  0
  9 10  4  0  0  0  0
 10 11  1  0  0  0  0
 12 13  1  0  0  0  0
 12 14  1  0  0  0  0
 14 15  1  0  0  0  0
 15 16  1  0  0  0  0
 16 17  1  0  0  0  0
 16 21  1  0  0  0  0
 17 18  1  0  0  0  0
 18 19  1  0  0  0  0
 19 20  1  0  0  0  0
 19 22  1  0  0  0  0
 20 21  1  0  0  0  0
 22 23  4  0  0  0  0
 22 27  4  0  0  0  0
 23 24  4  0  0  0  0
 24 25  4  0  0  0  0
 25 26  4  0  0  0  0
 25 28  1  0  0  0  0
 26 27  4  0  0  0  0
 28 29  2  0  0  0  0
 28 30  1  0  0  0  0
 30 31  1  0  0  0  0
 31 32  1  0  0  0  0
 31 36  1  0  0  0  0
 32 33  1  0  0  0  0
 33 34  1  0  0  0  0
 33 35  1  0  0  0  0
 36 37  1  0  0  0  0
 36 38  2  0  0  0  0
M  END
>  <Name_Molregno>
48595

>  <Beta-1>
4

>  <Beta-2>
5.47

$$$$
48596
  Marvin  02231216192D 0   1.00000     0.00000     0

 38 40  0  0  1  0  0  0  0  0999 V2000
  -11.7242    0.4109    0.0000 S   0  0  0  0  0  0  0  0  0
  -12.4386   -0.0016    0.0000 O   0  0  0  0  0  0  0  0  0
  -11.3117   -0.3036    0.0000 O   0  0  0  0  0  0  0  0  0
  -11.0097    0.8234    0.0000 N   0  0  0  0  0  0  0  0  0
  -10.2952    0.4109    0.0000 C   0  0  0  0  0  0  0  0  0
   -9.5807    0.8234    0.0000 C   0  0  0  0  0  0  0  0  0
   -8.8663    0.4109    0.0000 C   0  0  0  0  0  0  0  0  0
   -8.8663   -0.4141    0.0000 C   0  0  0  0  0  0  0  0  0
   -9.5807   -0.8266    0.0000 C   0  0  0  0  0  0  0  0  0
  -10.2952   -0.4141    0.0000 C   0  0  0  0  0  0  0  0  0
  -11.0097   -0.8266    0.0000 O   0  0  0  0  0  0  0  0  0
   -8.1518    0.8234    0.0000 C   0  0  0  0  0  0  0  0  0
   -8.1518    1.6484    0.0000 O   0  0  0  0  0  0  0  0  0
   -7.4373    0.4109    0.0000 C   0  0  0  0  0  0  0  0  0
   -6.7229    0.8234    0.0000 N   0  0  0  0  0  0  0  0  0
   -6.0084    0.4109    0.0000 C   0  0  0  0  0  0  0  0  0
   -5.2939    0.8234    0.0000 C   0  0  0  0  0  0  0  0  0
   -4.5794    0.4109    0.0000 C   0  0  0  0  0  0  0  0  0
   -4.5794   -0.4141    0.0000 N   0  0  0  0  0  0  0  0  0
   -5.2939   -0.8266    0.0000 C   0  0  0  0  0  0  0  0  0
   -6.0084   -0.4141    0.0000 C   0  0  0  0  0  0  0  0  0
   -3.8650   -0.8266    0.0000 C   0  0  0  0  0  0  0  0  0
   -3.1505   -0.4141    0.0000 C   0  0  0  0  0  0  0  0  0
   -2.4360   -0.8266    0.0000 C   0  0  0  0  0  0  0  0  0
   -2.4360   -1.6516    0.0000 C   0  0  0  0  0  0  0  0  0
   -3.1505   -2.0641    0.0000 C   0  0  0  0  0  0  0  0  0
   -3.8650   -1.6516    0.0000 C   0  0  0  0  0  0  0  0  0
   -1.7216   -2.0641    0.0000 C   0  0  0  0  0  0  0  0  0
   -1.0071   -1.6516    0.0000 O   0  0  0  0  0  0  0  0  0
   -1.7216   -2.8891    0.0000 N   0  0  0  0  0  0  0  0  0
   -1.0071   -3.3016    0.0000 C   0  0  0  0  0  0  0  0  0
   -1.0071   -4.1266    0.0000 C   0  0  0  0  0  0  0  0  0
   -0.2926   -4.5391    0.0000 C   0  0  0  0  0  0  0  0  0
   -1.7216   -4.5391    0.0000 C   0  0  0  0  0  0  0  0  0
   -0.2926   -2.8891    0.0000 C   0  0  0  0  0  0  0  0  0
   -0.2926   -2.0641    0.0000 O   0  0  0  0  0  0  0  0  0
    0.4219   -3.3016    0.0000 O   0  0  0  0  0  0  0  0  0
  -12.1367    1.1253    0.0000 C   0  0  0  0  0  0  0  0  0
  1  2  2  0  0  0  0
  1  3  2  0  0  0  0
  1  4  1  0  0  0  0
  1 38  1  0  0  0  0
  4  5  1  0  0  0  0
  5  6  4  0  0  0  0
  5 10  4  0  0  0  0
  6  7  4  0  0  0  0
  7  8  4  0  0  0  0
  7 12  1  0  0  0  0
  8  9  4  0  0  0  0
  9 10  4  0  0  0  0
 10 11  1  0  0  0  0
 12 13  1  0  0  0  0
 12 14  1  0  0  0  0
 14 15  1  0  0  0  0
 15 16  1  0  0  0  0
 16 17  1  0  0  0  0
 16 21  1  0  0  0  0
 17 18  1  0  0  0  0
 18 19  1  0  0  0  0
 19 20  1  0  0  0  0
 19 22  1  0  0  0  0
 20 21  1  0  0  0  0
 22 23  4  0  0  0  0
 22 27  4  0  0  0  0
 23 24  4  0  0  0  0
 24 25  4  0  0  0  0
 25 26  4  0  0  0  0
 25 28  1  0  0  0  0
 26 27  4  0  0  0  0
 28 29  2  0  0  0  0
 28 30  1  0  0  0  0
 30 31  1  0  0  0  0
 31 32  1  0  0  0  0
 31 35  1  0  0  0  0
 32 33  1  0  0  0  0
 32 34  1  0  0  0  0
 35 36  1  0  0  0  0
 35 37  2  0  0  0  0
M  END
>  <Name_Molregno>
48596

>  <Beta-1>
4

>  <Beta-2>
5.44

$$$$
48898
  Marvin  02231216192D 0   1.00000     0.00000     0

 20 21  0  0  1  0  0  0  0  0999 V2000
   -0.0057   -0.3497    0.0000 O   0  0  0  0  0  0  0  0  0
    0.7088    0.0628    0.0000 C   0  0  0  0  0  0  0  0  0
    1.4233   -0.3497    0.0000 C   0  0  0  0  0  0  0  0  0
    1.4233   -1.1747    0.0000 O   0  0  0  0  0  0  0  0  0
    2.1378    0.0628    0.0000 C   0  0  0  0  0  0  0  0  0
    2.8522   -0.3497    0.0000 N   0  0  0  0  0  0  0  0  0
    3.5667    0.0628    0.0000 C   0  0  0  0  0  0  0  0  0
    4.2812    0.4753    0.0000 C   0  0  0  0  0  0  0  0  0
    3.1542    0.7772    0.0000 C   0  0  0  0  0  0  0  0  0
    3.9792   -0.6517    0.0000 C   0  0  0  0  0  0  0  0  0
   -0.7201    0.0628    0.0000 C   0  0  0  0  0  0  0  0  0
   -1.4346   -0.3497    0.0000 C   0  0  0  0  0  0  0  0  0
   -1.6061   -1.1567    0.0000 N   0  0  0  0  0  0  0  0  0
   -2.4266   -1.2429    0.0000 C   0  0  0  0  0  0  0  0  0
   -2.8391   -1.9574    0.0000 O   0  0  0  0  0  0  0  0  0
   -2.7622   -0.4893    0.0000 N   0  0  0  0  0  0  0  0  0
   -2.1491    0.0628    0.0000 C   0  0  0  0  0  0  0  0  0
   -2.1491    0.8878    0.0000 C   0  0  0  0  0  0  0  0  0
   -1.4346    1.3003    0.0000 C   0  0  0  0  0  0  0  0  0
   -0.7201    0.8878    0.0000 C   0  0  0  0  0  0  0  0  0
  1  2  1  0  0  0  0
  1 11  1  0  0  0  0
  2  3  1  0  0  0  0
  3  4  1  0  0  0  0
  3  5  1  0  0  0  0
  5  6  1  0  0  0  0
  6  7  1  0  0  0  0
  7  8  1  0  0  0  0
  7  9  1  0  0  0  0
  7 10  1  0  0  0  0
 11 12  4  0  0  0  0
 11 20  4  0  0  0  0
 12 13  4  0  0  0  0
 12 17  4  0  0  0  0
 13 14  4  0  0  0  0
 14 15  1  0  0  0  0
 14 16  4  0  0  0  0
 16 17  4  0  0  0  0
 17 18  4  0  0  0  0
 18 19  4  0  0  0  0
 19 20  4  0  0  0  0
M  STY  1   1 DAT
M  SAL   1  1  16
M  SDT   1 MRV_IMPLICIT_H                                        
M  SDD   1     0.0000    0.0000    DR    ALL  0       0  
M  SED   1 IMPL_H1
M  END
>  <Name_Molregno>
48898

>  <Beta-1>
9.6

>  <Beta-2>
10

$$$$
49021
  Marvin  02231216192D 0   1.00000     0.00000     0

 35 37  0  0  1  0  0  0  0  0999 V2000
   -8.7113   -6.0790    0.0000 S   0  0  0  0  0  0  0  0  0
   -8.7113   -6.9040    0.0000 O   0  0  0  0  0  0  0  0  0
   -7.8863   -6.0790    0.0000 O   0  0  0  0  0  0  0  0  0
   -8.7113   -5.2540    0.0000 N   0  0  0  0  0  0  0  0  0
   -7.9969   -4.8415    0.0000 C   0  0  0  0  0  0  0  0  0
   -7.9969   -4.0165    0.0000 C   0  0  0  0  0  0  0  0  0
   -7.2824   -3.6040    0.0000 C   0  0  0  0  0  0  0  0  0
   -6.5679   -4.0165    0.0000 C   0  0  0  0  0  0  0  0  0
   -6.5679   -4.8415    0.0000 C   0  0  0  0  0  0  0  0  0
   -7.2824   -5.2540    0.0000 C   0  0  0  0  0  0  0  0  0
   -7.2824   -6.0790    0.0000 O   0  0  0  0  0  0  0  0  0
   -7.2824   -2.7790    0.0000 C   0  0  0  0  0  0  0  0  0
   -7.9969   -2.3665    0.0000 O   0  0  0  0  0  0  0  0  0
   -6.5679   -2.3665    0.0000 C   0  0  0  0  0  0  0  0  0
   -6.5679   -1.5415    0.0000 N   0  0  0  0  0  0  0  0  0
   -5.8535   -1.1290    0.0000 C   0  0  0  0  0  0  0  0  0
   -5.8535   -0.3040    0.0000 C   0  0  0  0  0  0  0  0  0
   -5.1390    0.1085    0.0000 C   0  0  0  0  0  0  0  0  0
   -4.4245   -0.3040    0.0000 N   0  0  0  0  0  0  0  0  0
   -4.4245   -1.1290    0.0000 C   0  0  0  0  0  0  0  0  0
   -5.1390   -1.5415    0.0000 C   0  0  0  0  0  0  0  0  0
   -3.7100    0.1085    0.0000 C   0  0  0  0  0  0  0  0  0
   -3.7100    0.9335    0.0000 C   0  0  0  0  0  0  0  0  0
   -2.9956    1.3460    0.0000 C   0  0  0  0  0  0  0  0  0
   -2.2811    0.9335    0.0000 C   0  0  0  0  0  0  0  0  0
   -2.2811    0.1085    0.0000 C   0  0  0  0  0  0  0  0  0
   -2.9956   -0.3040    0.0000 C   0  0  0  0  0  0  0  0  0
   -1.5666    1.3460    0.0000 C   0  0  0  0  0  0  0  0  0
   -1.5666    2.1710    0.0000 O   0  0  0  0  0  0  0  0  0
   -0.8522    0.9335    0.0000 N   0  0  0  0  0  0  0  0  0
   -0.1377    1.3460    0.0000 C   0  0  0  0  0  0  0  0  0
    0.5768    0.9335    0.0000 C   0  0  0  0  0  0  0  0  0
    1.2913    1.3460    0.0000 O   0  0  0  0  0  0  0  0  0
    0.5768    0.1085    0.0000 O   0  0  0  0  0  0  0  0  0
   -9.5363   -6.0790    0.0000 C   0  0  0  0  0  0  0  0  0
  1  2  2  0  0  0  0
  1  3  2  0  0  0  0
  1  4  1  0  0  0  0
  1 35  1  0  0  0  0
  4  5  1  0  0  0  0
  5  6  4  0  0  0  0
  5 10  4  0  0  0  0
  6  7  4  0  0  0  0
  7  8  4  0  0  0  0
  7 12  1  0  0  0  0
  8  9  4  0  0  0  0
  9 10  4  0  0  0  0
 10 11  1  0  0  0  0
 12 13  1  0  0  0  0
 12 14  1  0  0  0  0
 14 15  1  0  0  0  0
 15 16  1  0  0  0  0
 16 17  1  0  0  0  0
 16 21  1  0  0  0  0
 17 18  1  0  0  0  0
 18 19  1  0  0  0  0
 19 20  1  0  0  0  0
 19 22  1  0  0  0  0
 20 21  1  0  0  0  0
 22 23  4  0  0  0  0
 22 27  4  0  0  0  0
 23 24  4  0  0  0  0
 24 25  4  0  0  0  0
 25 26  4  0  0  0  0
 25 28  1  0  0  0  0
 26 27  4  0  0  0  0
 28 29  2  0  0  0  0
 28 30  1  0  0  0  0
 30 31  1  0  0  0  0
 31 32  1  0  0  0  0
 32 33  1  0  0  0  0
 32 34  2  0  0  0  0
M  END
>  <Name_Molregno>
49021

>  <Beta-1>
4

>  <Beta-2>
4.94

$$$$
49393
  Marvin  02231216192D 0   1.00000     0.00000     0

 39 41  0  0  1  0  0  0  0  0999 V2000
   -7.7509    5.0992    0.0000 S   0  0  0  0  0  0  0  0  0
   -8.4654    5.5117    0.0000 O   0  0  0  0  0  0  0  0  0
   -8.1634    4.3847    0.0000 O   0  0  0  0  0  0  0  0  0
   -7.0364    4.6867    0.0000 N   0  0  0  0  0  0  0  0  0
   -7.0364    3.8617    0.0000 C   0  0  0  0  0  0  0  0  0
   -6.3220    3.4492    0.0000 C   0  0  0  0  0  0  0  0  0
   -6.3220    2.6242    0.0000 C   0  0  0  0  0  0  0  0  0
   -7.0364    2.2117    0.0000 C   0  0  0  0  0  0  0  0  0
   -7.7509    2.6242    0.0000 C   0  0  0  0  0  0  0  0  0
   -7.7509    3.4492    0.0000 C   0  0  0  0  0  0  0  0  0
   -8.4654    3.8617    0.0000 O   0  0  0  0  0  0  0  0  0
   -5.6075    2.2117    0.0000 C   0  0  0  0  0  0  0  0  0
   -4.8930    2.6242    0.0000 O   0  0  0  0  0  0  0  0  0
   -5.6075    1.3867    0.0000 C   0  0  0  0  0  0  0  0  0
   -4.8930    0.9742    0.0000 N   0  0  0  0  0  0  0  0  0
   -4.8930    0.1492    0.0000 C   0  0  0  0  0  0  0  0  0
   -4.1785   -0.2633    0.0000 C   0  0  0  0  0  0  0  0  0
   -4.1785   -1.0883    0.0000 C   0  0  0  0  0  0  0  0  0
   -4.8930   -1.5008    0.0000 N   0  0  0  0  0  0  0  0  0
   -5.6075   -1.0883    0.0000 C   0  0  0  0  0  0  0  0  0
   -5.6075   -0.2633    0.0000 C   0  0  0  0  0  0  0  0  0
   -4.8930   -2.3258    0.0000 C   0  0  0  0  0  0  0  0  0
   -4.1785   -2.7383    0.0000 C   0  0  0  0  0  0  0  0  0
   -4.1785   -3.5633    0.0000 C   0  0  0  0  0  0  0  0  0
   -4.8930   -3.9758    0.0000 C   0  0  0  0  0  0  0  0  0
   -4.8930   -4.8008    0.0000 N   0  0  0  0  0  0  0  0  0
   -5.6075   -5.2133    0.0000 C   0  0  0  0  0  0  0  0  0
   -6.3220   -4.8008    0.0000 O   0  0  0  0  0  0  0  0  0
   -5.6075   -6.0383    0.0000 C   0  0  0  0  0  0  0  0  0
   -6.3220   -6.4508    0.0000 C   0  0  0  0  0  0  0  0  0
   -6.3220   -7.2758    0.0000 O   0  0  0  0  0  0  0  0  0
   -7.0364   -6.0383    0.0000 O   0  0  0  0  0  0  0  0  0
   -4.1785   -5.2133    0.0000 C   0  0  0  0  0  0  0  0  0
   -4.1785   -6.0383    0.0000 C   0  0  0  0  0  0  0  0  0
   -3.4641   -6.4508    0.0000 C   0  0  0  0  0  0  0  0  0
   -3.4641   -7.2758    0.0000 C   0  0  0  0  0  0  0  0  0
   -5.6075   -3.5633    0.0000 C   0  0  0  0  0  0  0  0  0
   -5.6075   -2.7383    0.0000 C   0  0  0  0  0  0  0  0  0
   -7.3384    5.8136    0.0000 C   0  0  0  0  0  0  0  0  0
  1  2  2  0  0  0  0
  1  3  2  0  0  0  0
  1  4  1  0  0  0  0
  1 39  1  0  0  0  0
  4  5  1  0  0  0  0
  5  6  4  0  0  0  0
  5 10  4  0  0  0  0
  6  7  4  0  0  0  0
  7  8  4  0  0  0  0
  7 12  1  0  0  0  0
  8  9  4  0  0  0  0
  9 10  4  0  0  0  0
 10 11  1  0  0  0  0
 12 13  1  0  0  0  0
 12 14  1  0  0  0  0
 14 15  1  0  0  0  0
 15 16  1  0  0  0  0
 16 17  1  0  0  0  0
 16 21  1  0  0  0  0
 17 18  1  0  0  0  0
 18 19  1  0  0  0  0
 19 20  1  0  0  0  0
 19 22  1  0  0  0  0
 20 21  1  0  0  0  0
 22 23  4  0  0  0  0
 22 38  4  0  0  0  0
 23 24  4  0  0  0  0
 24 25  4  0  0  0  0
 25 26  1  0  0  0  0
 25 37  4  0  0  0  0
 26 27  1  0  0  0  0
 26 33  1  0  0  0  0
 27 28  2  0  0  0  0
 27 29  1  0  0  0  0
 29 30  1  0  0  0  0
 30 31  1  0  0  0  0
 30 32  2  0  0  0  0
 33 34  1  0  0  0  0
 34 35  1  0  0  0  0
 35 36  1  0  0  0  0
 37 38  4  0  0  0  0
M  END
>  <Name_Molregno>
49393

>  <Beta-1>
4

>  <Beta-2>
4

$$$$
59082
  Marvin  02231216192D 0   1.00000     0.00000     0

 26 27  0  0  1  0  0  0  0  0999 V2000
   -0.0001    1.8241    0.0000 Cl  0  0  0  0  0  0  0  0  0
    0.7143    1.4116    0.0000 C   0  0  0  0  0  0  0  0  0
    1.4288    1.8241    0.0000 C   0  0  0  0  0  0  0  0  0
    2.1433    1.4116    0.0000 C   0  0  0  0  0  0  0  0  0
    2.1433    0.5866    0.0000 C   0  0  0  0  0  0  0  0  0
    1.4288    0.1741    0.0000 C   0  0  0  0  0  0  0  0  0
    0.7143    0.5866    0.0000 C   0  0  0  0  0  0  0  0  0
    2.8578    1.8241    0.0000 C   0  0  0  0  0  0  0  0  0
    2.8578    2.6491    0.0000 O   0  0  0  0  0  0  0  0  0
    3.5722    1.4116    0.0000 C   0  0  0  0  0  0  0  0  0
    4.2867    1.8241    0.0000 N   0  0  0  0  0  0  0  0  0
    5.0012    1.4116    0.0000 C   0  0  0  0  0  0  0  0  0
    5.7156    1.8241    0.0000 C   0  0  0  0  0  0  0  0  0
    6.4301    1.4116    0.0000 C   0  0  0  0  0  0  0  0  0
    7.1446    1.8241    0.0000 C   0  0  0  0  0  0  0  0  0
    7.8591    1.4116    0.0000 C   0  0  0  0  0  0  0  0  0
    7.8591    0.5866    0.0000 C   0  0  0  0  0  0  0  0  0
    8.5735    0.1741    0.0000 O   0  0  0  0  0  0  0  0  0
    8.5735   -0.6509    0.0000 C   0  0  0  0  0  0  0  0  0
    9.2880   -1.0634    0.0000 P   0  0  0  0  0  0  0  0  0
   10.0025   -1.4759    0.0000 O   0  0  0  0  0  0  0  0  0
    8.8755   -1.7778    0.0000 O   0  0  0  0  0  0  0  0  0
    9.7005   -0.3489    0.0000 O   0  0  0  0  0  0  0  0  0
    7.1446    0.1741    0.0000 C   0  0  0  0  0  0  0  0  0
    6.4301    0.5866    0.0000 C   0  0  0  0  0  0  0  0  0
    5.0012    0.5866    0.0000 C   0  0  0  0  0  0  0  0  0
  1  2  1  0  0  0  0
  2  3  4  0  0  0  0
  2  7  4  0  0  0  0
  3  4  4  0  0  0  0
  4  5  4  0  0  0  0
  4  8  1  0  0  0  0
  5  6  4  0  0  0  0
  6  7  4  0  0  0  0
  8  9  1  0  0  0  0
  8 10  1  0  0  0  0
 10 11  1  0  0  0  0
 11 12  1  0  0  0  0
 12 13  1  0  0  0  0
 12 26  1  0  0  0  0
 13 14  1  0  0  0  0
 14 15  4  0  0  0  0
 14 25  4  0  0  0  0
 15 16  4  0  0  0  0
 16 17  4  0  0  0  0
 17 18  1  0  0  0  0
 17 24  4  0  0  0  0
 18 19  1  0  0  0  0
 19 20  1  0  0  0  0
 20 21  2  0  0  0  0
 20 22  1  0  0  0  0
 20 23  1  0  0  0  0
 24 25  4  0  0  0  0
M  END
>  <Name_Molregno>
59082

>  <Beta-1>
4

>  <Beta-2>
4.4

$$$$
59084
  Marvin  02231216192D 0   1.00000     0.00000     0

 24 25  0  0  1  0  0  0  0  0999 V2000
   -0.1248    0.0495    0.0000 Cl  0  0  0  0  0  0  0  0  0
    0.5897   -0.3630    0.0000 C   0  0  0  0  0  0  0  0  0
    1.3041    0.0495    0.0000 C   0  0  0  0  0  0  0  0  0
    2.0186   -0.3630    0.0000 C   0  0  0  0  0  0  0  0  0
    2.0186   -1.1880    0.0000 C   0  0  0  0  0  0  0  0  0
    1.3041   -1.6005    0.0000 C   0  0  0  0  0  0  0  0  0
    0.5897   -1.1880    0.0000 C   0  0  0  0  0  0  0  0  0
    2.7331    0.0495    0.0000 C   0  0  0  0  0  0  0  0  0
    2.7331    0.8745    0.0000 O   0  0  0  0  0  0  0  0  0
    3.4475   -0.3630    0.0000 C   0  0  0  0  0  0  0  0  0
    4.1620    0.0495    0.0000 N   0  0  0  0  0  0  0  0  0
    4.8765   -0.3630    0.0000 C   0  0  0  0  0  0  0  0  0
    5.5910    0.0495    0.0000 C   0  0  0  0  0  0  0  0  0
    6.3054   -0.3630    0.0000 C   0  0  0  0  0  0  0  0  0
    7.0199    0.0495    0.0000 C   0  0  0  0  0  0  0  0  0
    7.7344   -0.3630    0.0000 C   0  0  0  0  0  0  0  0  0
    7.7344   -1.1880    0.0000 C   0  0  0  0  0  0  0  0  0
    8.4488   -1.6005    0.0000 O   0  0  0  0  0  0  0  0  0
    9.1633   -1.1880    0.0000 C   0  0  0  0  0  0  0  0  0
    9.8778   -1.6005    0.0000 C   0  0  0  0  0  0  0  0  0
   10.5923   -1.1880    0.0000 O   0  0  0  0  0  0  0  0  0
    7.0199   -1.6005    0.0000 C   0  0  0  0  0  0  0  0  0
    6.3054   -1.1880    0.0000 C   0  0  0  0  0  0  0  0  0
    4.8765   -1.1880    0.0000 C   0  0  0  0  0  0  0  0  0
  1  2  1  0  0  0  0
  2  3  4  0  0  0  0
  2  7  4  0  0  0  0
  3  4  4  0  0  0  0
  4  5  4  0  0  0  0
  4  8  1  0  0  0  0
  5  6  4  0  0  0  0
  6  7  4  0  0  0  0
  8  9  1  0  0  0  0
  8 10  1  0  0  0  0
 10 11  1  0  0  0  0
 11 12  1  0  0  0  0
 12 13  1  0  0  0  0
 12 24  1  0  0  0  0
 13 14  1  0  0  0  0
 14 15  4  0  0  0  0
 14 23  4  0  0  0  0
 15 16  4  0  0  0  0
 16 17  4  0  0  0  0
 17 18  1  0  0  0  0
 17 22  4  0  0  0  0
 18 19  1  0  0  0  0
 19 20  1  0  0  0  0
 20 21  1  0  0  0  0
 22 23  4  0  0  0  0
M  END
>  <Name_Molregno>
59084

>  <Beta-1>
5.9

>  <Beta-2>
6.59

$$$$
59114
  Marvin  02231216192D 0   1.00000     0.00000     0

 26 27  0  0  1  0  0  0  0  0999 V2000
   -0.0001    1.8241    0.0000 Cl  0  0  0  0  0  0  0  0  0
    0.7143    1.4116    0.0000 C   0  0  0  0  0  0  0  0  0
    1.4288    1.8241    0.0000 C   0  0  0  0  0  0  0  0  0
    2.1433    1.4116    0.0000 C   0  0  0  0  0  0  0  0  0
    2.1433    0.5866    0.0000 C   0  0  0  0  0  0  0  0  0
    1.4288    0.1741    0.0000 C   0  0  0  0  0  0  0  0  0
    0.7143    0.5866    0.0000 C   0  0  0  0  0  0  0  0  0
    2.8578    1.8241    0.0000 C   0  0  0  0  0  0  0  0  0
    2.8578    2.6491    0.0000 O   0  0  0  0  0  0  0  0  0
    3.5722    1.4116    0.0000 C   0  0  0  0  0  0  0  0  0
    4.2867    1.8241    0.0000 N   0  0  0  0  0  0  0  0  0
    5.0012    1.4116    0.0000 C   0  0  0  0  0  0  0  0  0
    5.7156    1.8241    0.0000 C   0  0  0  0  0  0  0  0  0
    6.4301    1.4116    0.0000 C   0  0  0  0  0  0  0  0  0
    7.1446    1.8241    0.0000 C   0  0  0  0  0  0  0  0  0
    7.8591    1.4116    0.0000 C   0  0  0  0  0  0  0  0  0
    7.8591    0.5866    0.0000 C   0  0  0  0  0  0  0  0  0
    8.5735    0.1741    0.0000 O   0  0  0  0  0  0  0  0  0
    8.5735   -0.6509    0.0000 C   0  0  0  0  0  0  0  0  0
    9.2880   -1.0634    0.0000 P   0  0  0  0  0  0  0  0  0
   10.0025   -1.4759    0.0000 O   0  0  0  0  0  0  0  0  0
    8.8755   -1.7778    0.0000 O   0  0  0  0  0  0  0  0  0
    9.7005   -0.3489    0.0000 C   0  0  0  0  0  0  0  0  0
    7.1446    0.1741    0.0000 C   0  0  0  0  0  0  0  0  0
    6.4301    0.5866    0.0000 C   0  0  0  0  0  0  0  0  0
    5.0012    0.5866    0.0000 C   0  0  0  0  0  0  0  0  0
  1  2  1  0  0  0  0
  2  3  4  0  0  0  0
  2  7  4  0  0  0  0
  3  4  4  0  0  0  0
  4  5  4  0  0  0  0
  4  8  1  0  0  0  0
  5  6  4  0  0  0  0
  6  7  4  0  0  0  0
  8  9  1  0  0  0  0
  8 10  1  0  0  0  0
 10 11  1  0  0  0  0
 11 12  1  0  0  0  0
 12 13  1  0  0  0  0
 12 26  1  0  0  0  0
 13 14  1  0  0  0  0
 14 15  4  0  0  0  0
 14 25  4  0  0  0  0
 15 16  4  0  0  0  0
 16 17  4  0  0  0  0
 17 18  1  0  0  0  0
 17 24  4  0  0  0  0
 18 19  1  0  0  0  0
 19 20  1  0  0  0  0
 20 21  2  0  0  0  0
 20 22  1  0  0  0  0
 20 23  1  0  0  0  0
 24 25  4  0  0  0  0
M  END
>  <Name_Molregno>
59114

>  <Beta-1>
3.85

>  <Beta-2>
4.13

$$$$
59116
  Marvin  02231216192D 0   1.00000     0.00000     0

 25 26  0  0  1  0  0  0  0  0999 V2000
   -0.1366    0.0054    0.0000 Cl  0  0  0  0  0  0  0  0  0
    0.5779   -0.4071    0.0000 C   0  0  0  0  0  0  0  0  0
    1.2924    0.0054    0.0000 C   0  0  0  0  0  0  0  0  0
    2.0069   -0.4071    0.0000 C   0  0  0  0  0  0  0  0  0
    2.0069   -1.2321    0.0000 C   0  0  0  0  0  0  0  0  0
    1.2924   -1.6446    0.0000 C   0  0  0  0  0  0  0  0  0
    0.5779   -1.2321    0.0000 C   0  0  0  0  0  0  0  0  0
    2.7213    0.0054    0.0000 C   0  0  0  0  0  0  0  0  0
    2.7213    0.8304    0.0000 O   0  0  0  0  0  0  0  0  0
    3.4358   -0.4071    0.0000 C   0  0  0  0  0  0  0  0  0
    4.1503    0.0054    0.0000 N   0  0  0  0  0  0  0  0  0
    4.8647   -0.4071    0.0000 C   0  0  0  0  0  0  0  0  0
    5.5792    0.0054    0.0000 C   0  0  0  0  0  0  0  0  0
    6.2937   -0.4071    0.0000 C   0  0  0  0  0  0  0  0  0
    7.0081    0.0054    0.0000 C   0  0  0  0  0  0  0  0  0
    7.7226   -0.4071    0.0000 C   0  0  0  0  0  0  0  0  0
    7.7226   -1.2321    0.0000 C   0  0  0  0  0  0  0  0  0
    8.4371   -1.6446    0.0000 O   0  0  0  0  0  0  0  0  0
    9.1516   -1.2321    0.0000 C   0  0  0  0  0  0  0  0  0
    9.8660   -1.6446    0.0000 C   0  0  0  0  0  0  0  0  0
   10.5805   -1.2321    0.0000 O   0  0  0  0  0  0  0  0  0
    9.8660   -2.4696    0.0000 N   0  0  0  0  0  0  0  0  0
    7.0081   -1.6446    0.0000 C   0  0  0  0  0  0  0  0  0
    6.2937   -1.2321    0.0000 C   0  0  0  0  0  0  0  0  0
    4.8647   -1.2321    0.0000 C   0  0  0  0  0  0  0  0  0
  1  2  1  0  0  0  0
  2  3  4  0  0  0  0
  2  7  4  0  0  0  0
  3  4  4  0  0  0  0
  4  5  4  0  0  0  0
  4  8  1  0  0  0  0
  5  6  4  0  0  0  0
  6  7  4  0  0  0  0
  8  9  1  0  0  0  0
  8 10  1  0  0  0  0
 10 11  1  0  0  0  0
 11 12  1  0  0  0  0
 12 13  1  0  0  0  0
 12 25  1  0  0  0  0
 13 14  1  0  0  0  0
 14 15  4  0  0  0  0
 14 24  4  0  0  0  0
 15 16  4  0  0  0  0
 16 17  4  0  0  0  0
 17 18  1  0  0  0  0
 17 23  4  0  0  0  0
 18 19  1  0  0  0  0
 19 20  1  0  0  0  0
 20 21  2  0  0  0  0
 20 22  1  0  0  0  0
 23 24  4  0  0  0  0
M  END
>  <Name_Molregno>
59116

>  <Beta-1>
6.23

>  <Beta-2>
6.77

$$$$
59706
  Marvin  02231216192D 0   1.00000     0.00000     0

 29 30  0  0  1  0  0  0  0  0999 V2000
    1.7897   -5.1150    0.0000 Cl  0  0  0  0  0  0  0  0  0
    2.5042   -4.7025    0.0000 C   0  0  0  0  0  0  0  0  0
    2.5042   -3.8775    0.0000 C   0  0  0  0  0  0  0  0  0
    3.2187   -3.4650    0.0000 C   0  0  0  0  0  0  0  0  0
    3.9332   -3.8775    0.0000 C   0  0  0  0  0  0  0  0  0
    3.9332   -4.7025    0.0000 C   0  0  0  0  0  0  0  0  0
    3.2187   -5.1150    0.0000 C   0  0  0  0  0  0  0  0  0
    3.2187   -2.6400    0.0000 C   0  0  0  0  0  0  0  0  0
    2.5042   -2.2275    0.0000 O   0  0  0  0  0  0  0  0  0
    3.9332   -2.2275    0.0000 C   0  0  0  0  0  0  0  0  0
    3.9332   -1.4025    0.0000 N   0  0  0  0  0  0  0  0  0
    4.6476   -0.9900    0.0000 C   0  0  0  0  0  0  0  0  0
    4.6476   -0.1650    0.0000 C   0  0  0  0  0  0  0  0  0
    5.3621    0.2475    0.0000 C   0  0  0  0  0  0  0  0  0
    5.3621    1.0725    0.0000 C   0  0  0  0  0  0  0  0  0
    6.0766    1.4850    0.0000 C   0  0  0  0  0  0  0  0  0
    6.7910    1.0725    0.0000 C   0  0  0  0  0  0  0  0  0
    7.5055    1.4850    0.0000 O   0  0  0  0  0  0  0  0  0
    8.2200    1.0725    0.0000 C   0  0  0  0  0  0  0  0  0
    8.9345    1.4850    0.0000 P   0  0  0  0  0  0  0  0  0
    9.6489    1.8975    0.0000 O   0  0  0  0  0  0  0  0  0
   10.3634    1.4850    0.0000 C   0  0  0  0  0  0  0  0  0
   11.0779    1.8975    0.0000 C   0  0  0  0  0  0  0  0  0
   10.3634    0.6600    0.0000 C   0  0  0  0  0  0  0  0  0
    9.3470    0.7705    0.0000 O   0  0  0  0  0  0  0  0  0
    8.5220    2.1994    0.0000 O   0  0  0  0  0  0  0  0  0
    6.7910    0.2475    0.0000 C   0  0  0  0  0  0  0  0  0
    6.0766   -0.1650    0.0000 C   0  0  0  0  0  0  0  0  0
    5.3621   -1.4025    0.0000 C   0  0  0  0  0  0  0  0  0
  1  2  1  0  0  0  0
  2  3  4  0  0  0  0
  2  7  4  0  0  0  0
  3  4  4  0  0  0  0
  4  5  4  0  0  0  0
  4  8  1  0  0  0  0
  5  6  4  0  0  0  0
  6  7  4  0  0  0  0
  8  9  1  0  0  0  0
  8 10  1  0  0  0  0
 10 11  1  0  0  0  0
 11 12  1  0  0  0  0
 12 13  1  0  0  0  0
 12 29  1  0  0  0  0
 13 14  1  0  0  0  0
 14 15  4  0  0  0  0
 14 28  4  0  0  0  0
 15 16  4  0  0  0  0
 16 17  4  0  0  0  0
 17 18  1  0  0  0  0
 17 27  4  0  0  0  0
 18 19  1  0  0  0  0
 19 20  1  0  0  0  0
 20 21  1  0  0  0  0
 20 25  2  0  0  0  0
 20 26  1  0  0  0  0
 21 22  1  0  0  0  0
 22 23  1  0  0  0  0
 22 24  1  0  0  0  0
 27 28  4  0  0  0  0
M  END
>  <Name_Molregno>
59706

>  <Beta-1>
3.86

>  <Beta-2>
4.37

$$$$
59816
  Marvin  02231216192D 0   1.00000     0.00000     0

 28 29  0  0  1  0  0  0  0  0999 V2000
   -0.1405    0.0612    0.0000 Cl  0  0  0  0  0  0  0  0  0
    0.5739   -0.3513    0.0000 C   0  0  0  0  0  0  0  0  0
    1.2884    0.0612    0.0000 C   0  0  0  0  0  0  0  0  0
    2.0029   -0.3513    0.0000 C   0  0  0  0  0  0  0  0  0
    2.0029   -1.1763    0.0000 C   0  0  0  0  0  0  0  0  0
    1.2884   -1.5888    0.0000 C   0  0  0  0  0  0  0  0  0
    0.5739   -1.1763    0.0000 C   0  0  0  0  0  0  0  0  0
    2.7173    0.0612    0.0000 C   0  0  0  0  0  0  0  0  0
    2.7173    0.8862    0.0000 O   0  0  0  0  0  0  0  0  0
    3.4318   -0.3513    0.0000 C   0  0  0  0  0  0  0  0  0
    4.1463    0.0612    0.0000 N   0  0  0  0  0  0  0  0  0
    4.8608   -0.3513    0.0000 C   0  0  0  0  0  0  0  0  0
    5.5752    0.0612    0.0000 C   0  0  0  0  0  0  0  0  0
    6.2897   -0.3513    0.0000 C   0  0  0  0  0  0  0  0  0
    7.0042    0.0612    0.0000 C   0  0  0  0  0  0  0  0  0
    7.7186   -0.3513    0.0000 C   0  0  0  0  0  0  0  0  0
    7.7186   -1.1763    0.0000 C   0  0  0  0  0  0  0  0  0
    8.4331   -1.5888    0.0000 O   0  0  0  0  0  0  0  0  0
    9.1476   -1.1763    0.0000 C   0  0  0  0  0  0  0  0  0
    9.8621   -1.5888    0.0000 C   0  0  0  0  0  0  0  0  0
   10.5765   -1.1763    0.0000 O   0  0  0  0  0  0  0  0  0
    9.8621   -2.4138    0.0000 O   0  0  0  0  0  0  0  0  0
    9.1476   -0.3513    0.0000 C   0  0  0  0  0  0  0  0  0
    9.8621    0.0612    0.0000 O   0  0  0  0  0  0  0  0  0
    8.4331    0.0612    0.0000 O   0  0  0  0  0  0  0  0  0
    7.0042   -1.5888    0.0000 C   0  0  0  0  0  0  0  0  0
    6.2897   -1.1763    0.0000 C   0  0  0  0  0  0  0  0  0
    4.8608   -1.1763    0.0000 C   0  0  0  0  0  0  0  0  0
  1  2  1  0  0  0  0
  2  3  4  0  0  0  0
  2  7  4  0  0  0  0
  3  4  4  0  0  0  0
  4  5  4  0  0  0  0
  4  8  1  0  0  0  0
  5  6  4  0  0  0  0
  6  7  4  0  0  0  0
  8  9  1  0  0  0  0
  8 10  1  0  0  0  0
 10 11  1  0  0  0  0
 11 12  1  0  0  0  0
 12 13  1  0  0  0  0
 12 28  1  0  0  0  0
 13 14  1  0  0  0  0
 14 15  4  0  0  0  0
 14 27  4  0  0  0  0
 15 16  4  0  0  0  0
 16 17  4  0  0  0  0
 17 18  1  0  0  0  0
 17 26  4  0  0  0  0
 18 19  1  0  0  0  0
 19 20  1  0  0  0  0
 19 23  1  0  0  0  0
 20 21  1  0  0  0  0
 20 22  2  0  0  0  0
 23 24  1  0  0  0  0
 23 25  2  0  0  0  0
 26 27  4  0  0  0  0
M  END
>  <Name_Molregno>
59816

>  <Beta-1>
3.61

>  <Beta-2>
4.77

$$$$
59846
  Marvin  02231216192D 0   1.00000     0.00000     0

 26 27  0  0  1  0  0  0  0  0999 V2000
    0.0040    0.3017    0.0000 Cl  0  0  0  0  0  0  0  0  0
    0.7185   -0.1108    0.0000 C   0  0  0  0  0  0  0  0  0
    1.4329    0.3017    0.0000 C   0  0  0  0  0  0  0  0  0
    2.1474   -0.1108    0.0000 C   0  0  0  0  0  0  0  0  0
    2.1474   -0.9358    0.0000 C   0  0  0  0  0  0  0  0  0
    1.4329   -1.3483    0.0000 C   0  0  0  0  0  0  0  0  0
    0.7185   -0.9358    0.0000 C   0  0  0  0  0  0  0  0  0
    2.8619    0.3017    0.0000 C   0  0  0  0  0  0  0  0  0
    2.8619    1.1267    0.0000 O   0  0  0  0  0  0  0  0  0
    3.5763   -0.1108    0.0000 C   0  0  0  0  0  0  0  0  0
    4.2908    0.3017    0.0000 N   0  0  0  0  0  0  0  0  0
    5.0053   -0.1108    0.0000 C   0  0  0  0  0  0  0  0  0
    5.7198    0.3017    0.0000 C   0  0  0  0  0  0  0  0  0
    6.4342   -0.1108    0.0000 C   0  0  0  0  0  0  0  0  0
    7.1487    0.3017    0.0000 C   0  0  0  0  0  0  0  0  0
    7.8632   -0.1108    0.0000 C   0  0  0  0  0  0  0  0  0
    7.8632   -0.9358    0.0000 C   0  0  0  0  0  0  0  0  0
    8.5776   -1.3483    0.0000 O   0  0  0  0  0  0  0  0  0
    8.5776   -2.1733    0.0000 C   0  0  0  0  0  0  0  0  0
    9.2921   -2.5858    0.0000 C   0  0  0  0  0  0  0  0  0
   10.0066   -2.1733    0.0000 O   0  0  0  0  0  0  0  0  0
    9.2921   -3.4108    0.0000 N   0  0  0  0  0  0  0  0  0
   10.0066   -3.8233    0.0000 O   0  0  0  0  0  0  0  0  0
    7.1487   -1.3483    0.0000 C   0  0  0  0  0  0  0  0  0
    6.4342   -0.9358    0.0000 C   0  0  0  0  0  0  0  0  0
    5.0053   -0.9358    0.0000 C   0  0  0  0  0  0  0  0  0
  1  2  1  0  0  0  0
  2  3  4  0  0  0  0
  2  7  4  0  0  0  0
  3  4  4  0  0  0  0
  4  5  4  0  0  0  0
  4  8  1  0  0  0  0
  5  6  4  0  0  0  0
  6  7  4  0  0  0  0
  8  9  1  0  0  0  0
  8 10  1  0  0  0  0
 10 11  1  0  0  0  0
 11 12  1  0  0  0  0
 12 13  1  0  0  0  0
 12 26  1  0  0  0  0
 13 14  1  0  0  0  0
 14 15  4  0  0  0  0
 14 25  4  0  0  0  0
 15 16  4  0  0  0  0
 16 17  4  0  0  0  0
 17 18  1  0  0  0  0
 17 24  4  0  0  0  0
 18 19  1  0  0  0  0
 19 20  1  0  0  0  0
 20 21  2  0  0  0  0
 20 22  1  0  0  0  0
 22 23  1  0  0  0  0
 24 25  4  0  0  0  0
M  END
>  <Name_Molregno>
59846

>  <Beta-1>
6.51

>  <Beta-2>
6.95

$$$$
59847
  Marvin  02231216192D 0   1.00000     0.00000     0

 26 27  0  0  1  0  0  0  0  0999 V2000
   -0.0001    0.2701    0.0000 Cl  0  0  0  0  0  0  0  0  0
    0.7143   -0.1424    0.0000 C   0  0  0  0  0  0  0  0  0
    1.4288    0.2701    0.0000 C   0  0  0  0  0  0  0  0  0
    2.1433   -0.1424    0.0000 C   0  0  0  0  0  0  0  0  0
    2.1433   -0.9674    0.0000 C   0  0  0  0  0  0  0  0  0
    1.4288   -1.3799    0.0000 C   0  0  0  0  0  0  0  0  0
    0.7143   -0.9674    0.0000 C   0  0  0  0  0  0  0  0  0
    2.8578    0.2701    0.0000 C   0  0  0  0  0  0  0  0  0
    2.8578    1.0951    0.0000 O   0  0  0  0  0  0  0  0  0
    3.5722   -0.1424    0.0000 C   0  0  0  0  0  0  0  0  0
    4.2867    0.2701    0.0000 N   0  0  0  0  0  0  0  0  0
    5.0012   -0.1424    0.0000 C   0  0  0  0  0  0  0  0  0
    5.7156    0.2701    0.0000 C   0  0  0  0  0  0  0  0  0
    6.4301   -0.1424    0.0000 C   0  0  0  0  0  0  0  0  0
    7.1446    0.2701    0.0000 C   0  0  0  0  0  0  0  0  0
    7.8591   -0.1424    0.0000 C   0  0  0  0  0  0  0  0  0
    7.8591   -0.9674    0.0000 C   0  0  0  0  0  0  0  0  0
    8.5735   -1.3799    0.0000 O   0  0  0  0  0  0  0  0  0
    8.5735   -2.2049    0.0000 C   0  0  0  0  0  0  0  0  0
    9.2880   -2.6174    0.0000 S   0  0  0  0  0  0  0  0  0
   10.0025   -3.0299    0.0000 O   0  0  0  0  0  0  0  0  0
    8.8755   -3.3319    0.0000 O   0  0  0  0  0  0  0  0  0
    9.7005   -1.9029    0.0000 O   0  0  0  0  0  0  0  0  0
    7.1446   -1.3799    0.0000 C   0  0  0  0  0  0  0  0  0
    6.4301   -0.9674    0.0000 C   0  0  0  0  0  0  0  0  0
    5.0012   -0.9674    0.0000 C   0  0  0  0  0  0  0  0  0
  1  2  1  0  0  0  0
  2  3  4  0  0  0  0
  2  7  4  0  0  0  0
  3  4  4  0  0  0  0
  4  5  4  0  0  0  0
  4  8  1  0  0  0  0
  5  6  4  0  0  0  0
  6  7  4  0  0  0  0
  8  9  1  0  0  0  0
  8 10  1  0  0  0  0
 10 11  1  0  0  0  0
 11 12  1  0  0  0  0
 12 13  1  0  0  0  0
 12 26  1  0  0  0  0
 13 14  1  0  0  0  0
 14 15  4  0  0  0  0
 14 25  4  0  0  0  0
 15 16  4  0  0  0  0
 16 17  4  0  0  0  0
 17 18  1  0  0  0  0
 17 24  4  0  0  0  0
 18 19  1  0  0  0  0
 19 20  1  0  0  0  0
 20 21  2  0  0  0  0
 20 22  2  0  0  0  0
 20 23  1  0  0  0  0
 24 25  4  0  0  0  0
M  END
>  <Name_Molregno>
59847

>  <Beta-1>
5.12

>  <Beta-2>
5.65

$$$$
59848
  Marvin  02231216192D 0   1.00000     0.00000     0

 26 27  0  0  1  0  0  0  0  0999 V2000
    0.0240    0.3049    0.0000 Cl  0  0  0  0  0  0  0  0  0
    0.7385   -0.1076    0.0000 C   0  0  0  0  0  0  0  0  0
    1.4530    0.3049    0.0000 C   0  0  0  0  0  0  0  0  0
    2.1674   -0.1076    0.0000 C   0  0  0  0  0  0  0  0  0
    2.1674   -0.9326    0.0000 C   0  0  0  0  0  0  0  0  0
    1.4530   -1.3451    0.0000 C   0  0  0  0  0  0  0  0  0
    0.7385   -0.9326    0.0000 C   0  0  0  0  0  0  0  0  0
    2.8819    0.3049    0.0000 C   0  0  0  0  0  0  0  0  0
    2.8819    1.1299    0.0000 O   0  0  0  0  0  0  0  0  0
    3.5964   -0.1076    0.0000 C   0  0  0  0  0  0  0  0  0
    4.3108    0.3049    0.0000 N   0  0  0  0  0  0  0  0  0
    5.0253   -0.1076    0.0000 C   0  0  0  0  0  0  0  0  0
    5.7398    0.3049    0.0000 C   0  0  0  0  0  0  0  0  0
    6.4542   -0.1076    0.0000 C   0  0  0  0  0  0  0  0  0
    7.1687    0.3049    0.0000 C   0  0  0  0  0  0  0  0  0
    7.8832   -0.1076    0.0000 C   0  0  0  0  0  0  0  0  0
    7.8832   -0.9326    0.0000 C   0  0  0  0  0  0  0  0  0
    8.5977   -1.3451    0.0000 O   0  0  0  0  0  0  0  0  0
    8.5977   -2.1701    0.0000 C   0  0  0  0  0  0  0  0  0
    9.3121   -2.5826    0.0000 C   0  0  0  0  0  0  0  0  0
    9.3121   -3.4076    0.0000 O   0  0  0  0  0  0  0  0  0
   10.0266   -3.8201    0.0000 C   0  0  0  0  0  0  0  0  0
   10.0266   -2.1701    0.0000 O   0  0  0  0  0  0  0  0  0
    7.1687   -1.3451    0.0000 C   0  0  0  0  0  0  0  0  0
    6.4542   -0.9326    0.0000 C   0  0  0  0  0  0  0  0  0
    5.0253   -0.9326    0.0000 C   0  0  0  0  0  0  0  0  0
  1  2  1  0  0  0  0
  2  3  4  0  0  0  0
  2  7  4  0  0  0  0
  3  4  4  0  0  0  0
  4  5  4  0  0  0  0
  4  8  1  0  0  0  0
  5  6  4  0  0  0  0
  6  7  4  0  0  0  0
  8  9  1  0  0  0  0
  8 10  1  0  0  0  0
 10 11  1  0  0  0  0
 11 12  1  0  0  0  0
 12 13  1  0  0  0  0
 12 26  1  0  0  0  0
 13 14  1  0  0  0  0
 14 15  4  0  0  0  0
 14 25  4  0  0  0  0
 15 16  4  0  0  0  0
 16 17  4  0  0  0  0
 17 18  1  0  0  0  0
 17 24  4  0  0  0  0
 18 19  1  0  0  0  0
 19 20  1  0  0  0  0
 20 21  1  0  0  0  0
 20 23  2  0  0  0  0
 21 22  1  0  0  0  0
 24 25  4  0  0  0  0
M  END
>  <Name_Molregno>
59848

>  <Beta-1>
6.77

>  <Beta-2>
8.49

$$$$
62123
  Marvin  02231216192D 0   1.00000     0.00000     0

 13 13  0  0  1  0  0  0  0  0999 V2000
    1.6451   -1.1612    0.0000 F   0  0  0  0  0  0  0  0  0
    0.9306   -1.5737    0.0000 C   0  0  0  0  0  0  0  0  0
    0.9306   -2.3987    0.0000 C   0  0  0  0  0  0  0  0  0
    0.2161   -2.8112    0.0000 C   0  0  0  0  0  0  0  0  0
    0.2161   -3.6362    0.0000 O   0  0  0  0  0  0  0  0  0
   -0.4984   -2.3987    0.0000 C   0  0  0  0  0  0  0  0  0
   -1.2128   -2.8112    0.0000 O   0  0  0  0  0  0  0  0  0
   -0.4984   -1.5737    0.0000 C   0  0  0  0  0  0  0  0  0
    0.2161   -1.1612    0.0000 C   0  0  0  0  0  0  0  0  0
    0.2161   -0.3362    0.0000 C   0  0  0  0  0  0  0  0  0
   -0.4984    0.0763    0.0000 O   0  0  0  0  0  0  0  0  0
    0.9306    0.0763    0.0000 C   0  0  0  0  0  0  0  0  0
    0.9306    0.9013    0.0000 N   0  0  0  0  0  0  0  0  0
  1  2  1  0  0  0  0
  2  3  4  0  0  0  0
  2  9  4  0  0  0  0
  3  4  4  0  0  0  0
  4  5  1  0  0  0  0
  4  6  4  0  0  0  0
  6  7  1  0  0  0  0
  6  8  4  0  0  0  0
  8  9  4  0  0  0  0
  9 10  1  0  0  0  0
 10 11  1  0  0  0  0
 10 12  1  0  0  0  0
 12 13  1  0  0  0  0
M  END
>  <Name_Molregno>
62123

>  <Alpha-1B>
4.43

>  <Beta-2>
4.9

$$$$
62620
  Marvin  02231216192D 0   1.00000     0.00000     0

 13 13  0  0  1  0  0  0  0  0999 V2000
    1.4345   -0.9451    0.0000 F   0  0  0  0  0  0  0  0  0
    0.7201   -1.3576    0.0000 C   0  0  0  0  0  0  0  0  0
    0.7201   -2.1826    0.0000 C   0  0  0  0  0  0  0  0  0
    1.4345   -2.5951    0.0000 O   0  0  0  0  0  0  0  0  0
    0.0056   -2.5951    0.0000 C   0  0  0  0  0  0  0  0  0
    0.0056   -3.4201    0.0000 O   0  0  0  0  0  0  0  0  0
   -0.7089   -2.1826    0.0000 C   0  0  0  0  0  0  0  0  0
   -0.7089   -1.3576    0.0000 C   0  0  0  0  0  0  0  0  0
    0.0056   -0.9451    0.0000 C   0  0  0  0  0  0  0  0  0
    0.0056   -0.1201    0.0000 C   0  0  0  0  0  0  0  0  0
   -0.7089    0.2924    0.0000 O   0  0  0  0  0  0  0  0  0
    0.7201    0.2924    0.0000 C   0  0  0  0  0  0  0  0  0
    0.7201    1.1174    0.0000 N   0  0  0  0  0  0  0  0  0
  1  2  1  0  0  0  0
  2  3  4  0  0  0  0
  2  9  4  0  0  0  0
  3  4  1  0  0  0  0
  3  5  4  0  0  0  0
  5  6  1  0  0  0  0
  5  7  4  0  0  0  0
  7  8  4  0  0  0  0
  8  9  4  0  0  0  0
  9 10  1  0  0  0  0
 10 11  1  0  0  0  0
 10 12  1  0  0  0  0
 12 13  1  0  0  0  0
M  END
>  <Name_Molregno>
62620

>  <Alpha-1B>
5.4

>  <Beta-2>
3.97

$$$$
66613
  Marvin  02231216192D 0   1.00000     0.00000     0

 14 15  0  0  1  0  0  0  0  0999 V2000
   -3.5937   -0.7341    0.0000 O   0  0  0  0  0  0  0  0  0
   -2.8091   -0.9890    0.0000 C   0  0  0  0  0  0  0  0  0
   -2.0946   -0.5765    0.0000 C   0  0  0  0  0  0  0  0  0
   -1.3801   -0.9890    0.0000 C   0  0  0  0  0  0  0  0  0
   -1.3801   -1.8140    0.0000 C   0  0  0  0  0  0  0  0  0
   -2.0946   -2.2265    0.0000 C   0  0  0  0  0  0  0  0  0
   -2.8091   -1.8140    0.0000 C   0  0  0  0  0  0  0  0  0
   -3.5937   -2.0690    0.0000 O   0  0  0  0  0  0  0  0  0
   -4.0786   -1.4015    0.0000 C   0  0  0  0  0  0  0  0  0
   -0.6657   -0.5765    0.0000 C   0  0  0  0  0  0  0  0  0
   -0.6657    0.2485    0.0000 C   0  0  0  0  0  0  0  0  0
    0.0488    0.6610    0.0000 N   0  0  0  0  0  0  0  0  0
    0.0488    1.4860    0.0000 C   0  0  0  0  0  0  0  0  0
   -1.3801    0.6610    0.0000 C   0  0  0  0  0  0  0  0  0
  1  2  1  0  0  0  0
  1  9  1  0  0  0  0
  2  3  4  0  0  0  0
  2  7  4  0  0  0  0
  3  4  4  0  0  0  0
  4  5  4  0  0  0  0
  4 10  1  0  0  0  0
  5  6  4  0  0  0  0
  6  7  4  0  0  0  0
  7  8  1  0  0  0  0
  8  9  1  0  0  0  0
 10 11  1  0  0  0  0
 11 12  1  0  0  0  0
 11 14  1  0  0  0  0
 12 13  1  0  0  0  0
M  END
>  <Name_Molregno>
66613

>  <5-HT1A>
5

>  <5-HT1B>
5

>  <5-HT1D>
5

>  <5-HT1E>
5

>  <5-HT2A>
5

>  <5-HT3>
5

>  <5-HT5>
5

>  <5-HT6>
5

>  <5-HT7>
5

>  <Alpha-1A>
5

>  <Alpha-1B>
5

>  <Alpha-2A>
5.6

>  <Alpha-2B>
5.75

>  <Alpha-2C>
5.95

>  <Beta-1>
5

>  <Beta-2>
5

>  <DOPAMINE D1>
5

>  <DOPAMINE D2>
5

>  <DOPAMINE D3>
5

>  <DOPAMINE D4>
5

>  <DOPAMINE D5>
5

>  <Dopamine transporter>
5

>  <HISTAMINE H1>
5.67

>  <HISTAMINE H2>
5

>  <Muscarinic acetylcholine receptor M1>
5

>  <Muscarinic acetylcholine receptor M2>
5

>  <Muscarinic acetylcholine receptor M3>
5.73

>  <Muscarinic acetylcholine receptor M4>
5.08

>  <Muscarinic acetylcholine receptor M5>
5.2

>  <Norepinephrine transporter>
5

>  <Serotonin transporter>
7.24

$$$$
74690
  Marvin  02231216192D 0   1.00000     0.00000     0

 17 17  0  0  1  0  0  0  0  0999 V2000
    1.3650    2.4430    0.0000 Cl  0  0  0  0  0  0  0  0  0
    1.3650    1.6180    0.0000 C   0  0  0  0  0  0  0  0  0
    2.0795    1.2055    0.0000 C   0  0  0  0  0  0  0  0  0
    2.0795    0.3805    0.0000 C   0  0  0  0  0  0  0  0  0
    1.3650   -0.0320    0.0000 C   0  0  0  0  0  0  0  0  0
    0.6506    0.3805    0.0000 C   0  0  0  0  0  0  0  0  0
   -0.0639   -0.0320    0.0000 Cl  0  0  0  0  0  0  0  0  0
    0.6506    1.2055    0.0000 C   0  0  0  0  0  0  0  0  0
   -0.0639    1.6180    0.0000 N   0  0  0  0  0  0  0  0  0
    2.7940   -0.0320    0.0000 C   0  0  0  0  0  0  0  0  0
    2.7940   -0.8570    0.0000 O   0  0  0  0  0  0  0  0  0
    3.5084    0.3805    0.0000 C   0  0  0  0  0  0  0  0  0
    4.2229   -0.0320    0.0000 N   0  0  0  0  0  0  0  0  0
    4.9374    0.3805    0.0000 C   0  0  0  0  0  0  0  0  0
    5.6519    0.7930    0.0000 C   0  0  0  0  0  0  0  0  0
    5.3499   -0.3340    0.0000 C   0  0  0  0  0  0  0  0  0
    4.5249    1.0950    0.0000 C   0  0  0  0  0  0  0  0  0
  1  2  1  0  0  0  0
  2  3  4  0  0  0  0
  2  8  4  0  0  0  0
  3  4  4  0  0  0  0
  4  5  4  0  0  0  0
  4 10  1  0  0  0  0
  5  6  4  0  0  0  0
  6  7  1  0  0  0  0
  6  8  4  0  0  0  0
  8  9  1  0  0  0  0
 10 11  1  0  0  0  0
 10 12  1  0  0  0  0
 12 13  1  0  0  0  0
 13 14  1  0  0  0  0
 14 15  1  0  0  0  0
 14 16  1  0  0  0  0
 14 17  1  0  0  0  0
M  END
>  <Name_Molregno>
74690

>  <Beta-2>
6.24

$$$$
82934
  Marvin  02231216192D 0   1.00000     0.00000     0

 25 27  0  0  1  0  0  0  0  0999 V2000
   -5.4822    2.3128    0.0000 O   0  0  0  0  0  0  0  0  0
   -6.1967    1.9003    0.0000 C   0  0  0  0  0  0  0  0  0
   -4.7678    1.9003    0.0000 C   0  0  0  0  0  0  0  0  0
   -4.0533    2.3128    0.0000 C   0  0  0  0  0  0  0  0  0
   -4.0533    3.1378    0.0000 O   0  0  0  0  0  0  0  0  0
   -3.3388    3.5503    0.0000 C   0  0  0  0  0  0  0  0  0
   -3.3388    1.9003    0.0000 C   0  0  0  0  0  0  0  0  0
   -3.3388    1.0753    0.0000 C   0  0  0  0  0  0  0  0  0
   -4.0533    0.6628    0.0000 C   0  0  0  0  0  0  0  0  0
   -4.7678    1.0753    0.0000 C   0  0  0  0  0  0  0  0  0
   -5.4822    0.6628    0.0000 O   0  0  0  0  0  0  0  0  0
   -5.4822   -0.1622    0.0000 C   0  0  0  0  0  0  0  0  0
   -2.6243    0.6628    0.0000 C   0  0  0  0  0  0  0  0  0
   -2.6243   -0.1622    0.0000 C   0  0  0  0  0  0  0  0  0
   -3.3388   -0.5747    0.0000 N   0  0  0  0  0  0  0  0  0
   -3.3388   -1.3997    0.0000 C   0  0  0  0  0  0  0  0  0
   -2.6243   -1.8122    0.0000 C   0  0  0  0  0  0  0  0  0
   -1.9099   -1.3997    0.0000 C   0  0  0  0  0  0  0  0  0
   -1.9099   -0.5747    0.0000 C   0  0  0  0  0  0  0  0  0
   -1.1954   -0.1622    0.0000 C   0  0  0  0  0  0  0  0  0
   -0.4809   -0.5747    0.0000 C   0  0  0  0  0  0  0  0  0
    0.2335   -0.1622    0.0000 O   0  0  0  0  0  0  0  0  0
   -0.4809   -1.3997    0.0000 C   0  0  0  0  0  0  0  0  0
    0.2335   -1.8122    0.0000 O   0  0  0  0  0  0  0  0  0
   -1.1954   -1.8122    0.0000 C   0  0  0  0  0  0  0  0  0
  1  2  1  0  0  0  0
  1  3  1  0  0  0  0
  3  4  4  0  0  0  0
  3 10  4  0  0  0  0
  4  5  1  0  0  0  0
  4  7  4  0  0  0  0
  5  6  1  0  0  0  0
  7  8  4  0  0  0  0
  8  9  4  0  0  0  0
  8 13  1  0  0  0  0
  9 10  4  0  0  0  0
 10 11  1  0  0  0  0
 11 12  1  0  0  0  0
 13 14  1  0  0  0  0
 14 15  1  0  0  0  0
 14 19  1  0  0  0  0
 15 16  1  0  0  0  0
 16 17  1  0  0  0  0
 17 18  1  0  0  0  0
 18 19  4  0  0  0  0
 18 25  4  0  0  0  0
 19 20  4  0  0  0  0
 20 21  4  0  0  0  0
 21 22  1  0  0  0  0
 21 23  4  0  0  0  0
 23 24  1  0  0  0  0
 23 25  4  0  0  0  0
M  END
>  <Name_Molregno>
82934

>  <Beta-1>
6.74

>  <Beta-2>
6.49

$$$$
83018
  Marvin  02231216192D 0   1.00000     0.00000     0

 31 35  0  0  0  0  0  0  0  0999 V2000
   -6.9274   -1.6120    0.0000 O   0  0  0  0  0  0  0  0  0
   -7.1823   -2.3966    0.0000 C   0  0  0  0  0  0  0  0  0
   -7.4794   -0.9989    0.0000 C   0  0  0  0  0  0  0  0  0
   -8.2864   -1.1704    0.0000 C   0  0  0  0  0  0  0  0  0
   -8.8384   -0.5573    0.0000 C   0  0  0  0  0  0  0  0  0
   -8.5835    0.2273    0.0000 C   0  0  0  0  0  0  0  0  0
   -7.7765    0.3988    0.0000 C   0  0  0  0  0  0  0  0  0
   -7.2245   -0.2143    0.0000 C   0  0  0  0  0  0  0  0  0
   -6.4175   -0.0428    0.0000 N   0  0  0  0  0  0  0  0  0
   -6.1626    0.7419    0.0000 C   0  0  0  0  0  0  0  0  0
   -5.3556    0.9134    0.0000 C   0  0  0  0  0  0  0  0  0
   -4.8036    0.3003    0.0000 N   0  0  0  0  0  0  0  0  0
   -5.0585   -0.4843    0.0000 C   0  0  0  0  0  0  0  0  0
   -5.8655   -0.6559    0.0000 C   0  0  0  0  0  0  0  0  0
   -3.9966    0.4718    0.0000 C   0  0  0  0  0  0  0  0  0
   -3.4446   -0.1413    0.0000 C   0  0  0  0  0  0  0  0  0
   -2.6376    0.0303    0.0000 N   0  0  0  0  0  0  0  0  0
   -2.0856   -0.5828    0.0000 C   0  0  0  0  0  0  0  0  0
   -2.3405   -1.3675    0.0000 O   0  0  0  0  0  0  0  0  0
   -1.2786   -0.4113    0.0000 C   0  0  0  0  0  0  0  0  0
   -0.6112   -0.8962    0.0000 N   0  0  0  0  0  0  0  0  0
    0.0563   -0.4113    0.0000 C   0  0  0  0  0  0  0  0  0
   -0.1987    0.3733    0.0000 C   0  0  0  0  0  0  0  0  0
   -1.0237    0.3733    0.0000 C   0  0  0  0  0  0  0  0  0
   -1.5757    0.9864    0.0000 N   0  0  0  0  0  0  0  0  0
   -2.3827    0.8149    0.0000 C   0  0  0  0  0  0  0  0  0
   -2.9347    1.4280    0.0000 O   0  0  0  0  0  0  0  0  0
    0.3534    0.9864    0.0000 C   0  0  0  0  0  0  0  0  0
    1.1603    0.8149    0.0000 C   0  0  0  0  0  0  0  0  0
    1.4153    0.0303    0.0000 C   0  0  0  0  0  0  0  0  0
    0.8632   -0.5828    0.0000 C   0  0  0  0  0  0  0  0  0
  1  2  1  0  0  0  0
  1  3  1  0  0  0  0
  3  4  4  0  0  0  0
  3  8  4  0  0  0  0
  4  5  4  0  0  0  0
  5  6  4  0  0  0  0
  6  7  4  0  0  0  0
  7  8  4  0  0  0  0
  8  9  1  0  0  0  0
  9 10  1  0  0  0  0
  9 14  1  0  0  0  0
 10 11  1  0  0  0  0
 11 12  1  0  0  0  0
 12 13  1  0  0  0  0
 12 15  1  0  0  0  0
 13 14  1  0  0  0  0
 15 16  1  0  0  0  0
 16 17  1  0  0  0  0
 17 18  1  0  0  0  0
 17 26  1  0  0  0  0
 18 19  2  0  0  0  0
 18 20  1  0  0  0  0
 20 21  4  0  0  0  0
 20 24  4  0  0  0  0
 21 22  4  0  0  0  0
 22 23  4  0  0  0  0
 22 31  4  0  0  0  0
 23 24  4  0  0  0  0
 23 28  4  0  0  0  0
 24 25  1  0  0  0  0
 25 26  1  0  0  0  0
 26 27  2  0  0  0  0
 28 29  4  0  0  0  0
 29 30  4  0  0  0  0
 30 31  4  0  0  0  0
M  STY  1   1 DAT
M  SAL   1  1  21
M  SDT   1 MRV_IMPLICIT_H                                        
M  SDD   1     0.0000    0.0000    DR    ALL  0       0  
M  SED   1 IMPL_H1
M  END
>  <Name_Molregno>
83018

>  <Alpha-1A>
9.54

>  <Alpha-1B>
8.74

>  <Alpha-2A>
6

>  <Alpha-2B>
6

>  <Alpha-2C>
6

>  <Beta-2>
4

$$$$
83053
  Marvin  02231216192D 0   1.00000     0.00000     0

 31 35  0  0  0  0  0  0  0  0999 V2000
  -11.2830   -0.2101    0.0000 O   0  0  0  0  0  0  0  0  0
  -11.5380   -0.9948    0.0000 C   0  0  0  0  0  0  0  0  0
  -10.4760   -0.0386    0.0000 C   0  0  0  0  0  0  0  0  0
  -10.2211    0.7460    0.0000 C   0  0  0  0  0  0  0  0  0
   -9.4141    0.9175    0.0000 C   0  0  0  0  0  0  0  0  0
   -8.8621    0.3045    0.0000 C   0  0  0  0  0  0  0  0  0
   -8.0551    0.4760    0.0000 N   0  0  0  0  0  0  0  0  0
   -7.8002    1.2606    0.0000 C   0  0  0  0  0  0  0  0  0
   -6.9932    1.4321    0.0000 C   0  0  0  0  0  0  0  0  0
   -6.4412    0.8190    0.0000 N   0  0  0  0  0  0  0  0  0
   -6.6961    0.0344    0.0000 C   0  0  0  0  0  0  0  0  0
   -7.5031   -0.1371    0.0000 C   0  0  0  0  0  0  0  0  0
   -5.6342    0.9906    0.0000 C   0  0  0  0  0  0  0  0  0
   -5.0822    0.3775    0.0000 C   0  0  0  0  0  0  0  0  0
   -4.2752    0.5490    0.0000 N   0  0  0  0  0  0  0  0  0
   -3.7232   -0.0641    0.0000 C   0  0  0  0  0  0  0  0  0
   -3.9781   -0.8487    0.0000 O   0  0  0  0  0  0  0  0  0
   -2.9162    0.1074    0.0000 C   0  0  0  0  0  0  0  0  0
   -2.2488   -0.3775    0.0000 N   0  0  0  0  0  0  0  0  0
   -1.5813    0.1074    0.0000 C   0  0  0  0  0  0  0  0  0
   -1.8363    0.8920    0.0000 C   0  0  0  0  0  0  0  0  0
   -2.6613    0.8920    0.0000 C   0  0  0  0  0  0  0  0  0
   -3.2133    1.5051    0.0000 N   0  0  0  0  0  0  0  0  0
   -4.0203    1.3336    0.0000 C   0  0  0  0  0  0  0  0  0
   -4.5723    1.9467    0.0000 O   0  0  0  0  0  0  0  0  0
   -1.2842    1.5051    0.0000 C   0  0  0  0  0  0  0  0  0
   -0.4773    1.3336    0.0000 C   0  0  0  0  0  0  0  0  0
   -0.2223    0.5490    0.0000 C   0  0  0  0  0  0  0  0  0
   -0.7744   -0.0641    0.0000 C   0  0  0  0  0  0  0  0  0
   -9.1170   -0.4802    0.0000 C   0  0  0  0  0  0  0  0  0
   -9.9240   -0.6517    0.0000 C   0  0  0  0  0  0  0  0  0
  1  2  1  0  0  0  0
  1  3  1  0  0  0  0
  3  4  4  0  0  0  0
  3 31  4  0  0  0  0
  4  5  4  0  0  0  0
  5  6  4  0  0  0  0
  6  7  1  0  0  0  0
  6 30  4  0  0  0  0
  7  8  1  0  0  0  0
  7 12  1  0  0  0  0
  8  9  1  0  0  0  0
  9 10  1  0  0  0  0
 10 11  1  0  0  0  0
 10 13  1  0  0  0  0
 11 12  1  0  0  0  0
 13 14  1  0  0  0  0
 14 15  1  0  0  0  0
 15 16  1  0  0  0  0
 15 24  1  0  0  0  0
 16 17  2  0  0  0  0
 16 18  1  0  0  0  0
 18 19  4  0  0  0  0
 18 22  4  0  0  0  0
 19 20  4  0  0  0  0
 20 21  4  0  0  0  0
 20 29  4  0  0  0  0
 21 22  4  0  0  0  0
 21 26  4  0  0  0  0
 22 23  1  0  0  0  0
 23 24  1  0  0  0  0
 24 25  2  0  0  0  0
 26 27  4  0  0  0  0
 27 28  4  0  0  0  0
 28 29  4  0  0  0  0
 30 31  4  0  0  0  0
M  STY  1   1 DAT
M  SAL   1  1  19
M  SDT   1 MRV_IMPLICIT_H                                        
M  SDD   1     0.0000    0.0000    DR    ALL  0       0  
M  SED   1 IMPL_H1
M  END
>  <Name_Molregno>
83053

>  <Alpha-2A>
4

>  <Alpha-2B>
4

>  <Alpha-2C>
4

>  <Beta-2>
4

$$$$
83092
  Marvin  02231216192D 0   1.00000     0.00000     0

 29 33  0  0  0  0  0  0  0  0999 V2000
    0.4674   -0.1542    0.0000 O   0  0  0  0  0  0  0  0  0
    0.2125   -0.9388    0.0000 C   0  0  0  0  0  0  0  0  0
    0.7645   -1.5519    0.0000 N   0  0  0  0  0  0  0  0  0
    1.5715   -1.3803    0.0000 C   0  0  0  0  0  0  0  0  0
    1.8264   -0.5957    0.0000 C   0  0  0  0  0  0  0  0  0
    2.6334   -0.4242    0.0000 N   0  0  0  0  0  0  0  0  0
    2.8883    0.3604    0.0000 C   0  0  0  0  0  0  0  0  0
    3.6953    0.5320    0.0000 C   0  0  0  0  0  0  0  0  0
    4.2473   -0.0811    0.0000 N   0  0  0  0  0  0  0  0  0
    3.9924   -0.8658    0.0000 C   0  0  0  0  0  0  0  0  0
    3.1854   -1.0373    0.0000 C   0  0  0  0  0  0  0  0  0
    5.0543    0.0904    0.0000 C   0  0  0  0  0  0  0  0  0
    5.3093    0.8750    0.0000 C   0  0  0  0  0  0  0  0  0
    6.1162    1.0465    0.0000 C   0  0  0  0  0  0  0  0  0
    6.6683    0.4334    0.0000 C   0  0  0  0  0  0  0  0  0
    6.4133   -0.3512    0.0000 C   0  0  0  0  0  0  0  0  0
    5.6064   -0.5227    0.0000 C   0  0  0  0  0  0  0  0  0
    0.5096   -2.3365    0.0000 C   0  0  0  0  0  0  0  0  0
    1.0616   -2.9496    0.0000 O   0  0  0  0  0  0  0  0  0
   -0.2974   -2.5080    0.0000 N   0  0  0  0  0  0  0  0  0
   -0.8494   -1.8949    0.0000 C   0  0  0  0  0  0  0  0  0
   -0.5945   -1.1103    0.0000 C   0  0  0  0  0  0  0  0  0
   -1.2619   -0.6254    0.0000 N   0  0  0  0  0  0  0  0  0
   -1.9294   -1.1103    0.0000 C   0  0  0  0  0  0  0  0  0
   -1.6744   -1.8949    0.0000 C   0  0  0  0  0  0  0  0  0
   -2.2265   -2.5080    0.0000 C   0  0  0  0  0  0  0  0  0
   -3.0334   -2.3365    0.0000 C   0  0  0  0  0  0  0  0  0
   -3.2884   -1.5519    0.0000 C   0  0  0  0  0  0  0  0  0
   -2.7363   -0.9388    0.0000 C   0  0  0  0  0  0  0  0  0
  1  2  2  0  0  0  0
  2  3  1  0  0  0  0
  2 22  1  0  0  0  0
  3  4  1  0  0  0  0
  3 18  1  0  0  0  0
  4  5  1  0  0  0  0
  5  6  1  0  0  0  0
  6  7  1  0  0  0  0
  6 11  1  0  0  0  0
  7  8  1  0  0  0  0
  8  9  1  0  0  0  0
  9 10  1  0  0  0  0
  9 12  1  0  0  0  0
 10 11  1  0  0  0  0
 12 13  4  0  0  0  0
 12 17  4  0  0  0  0
 13 14  4  0  0  0  0
 14 15  4  0  0  0  0
 15 16  4  0  0  0  0
 16 17  4  0  0  0  0
 18 19  2  0  0  0  0
 18 20  1  0  0  0  0
 20 21  1  0  0  0  0
 21 22  4  0  0  0  0
 21 25  4  0  0  0  0
 22 23  4  0  0  0  0
 23 24  4  0  0  0  0
 24 25  4  0  0  0  0
 24 29  4  0  0  0  0
 25 26  4  0  0  0  0
 26 27  4  0  0  0  0
 27 28  4  0  0  0  0
 28 29  4  0  0  0  0
M  STY  1   1 DAT
M  SAL   1  1  23
M  SDT   1 MRV_IMPLICIT_H                                        
M  SDD   1     0.0000    0.0000    DR    ALL  0       0  
M  SED   1 IMPL_H1
M  END
>  <Name_Molregno>
83092

>  <Alpha-2A>
4

>  <Alpha-2B>
4

>  <Alpha-2C>
4

>  <Beta-2>
4

$$$$
83342
  Marvin  02231216192D 0   1.00000     0.00000     0

 30 34  0  0  0  0  0  0  0  0999 V2000
   -7.1889   -1.4284    0.0000 Cl  0  0  0  0  0  0  0  0  0
   -7.7409   -0.8153    0.0000 C   0  0  0  0  0  0  0  0  0
   -8.5479   -0.9869    0.0000 C   0  0  0  0  0  0  0  0  0
   -9.0999   -0.3738    0.0000 C   0  0  0  0  0  0  0  0  0
   -8.8450    0.4109    0.0000 C   0  0  0  0  0  0  0  0  0
   -8.0380    0.5824    0.0000 C   0  0  0  0  0  0  0  0  0
   -7.4860   -0.0307    0.0000 C   0  0  0  0  0  0  0  0  0
   -6.6790    0.1408    0.0000 N   0  0  0  0  0  0  0  0  0
   -6.4241    0.9254    0.0000 C   0  0  0  0  0  0  0  0  0
   -5.6171    1.0970    0.0000 C   0  0  0  0  0  0  0  0  0
   -5.0651    0.4839    0.0000 N   0  0  0  0  0  0  0  0  0
   -5.3200   -0.3008    0.0000 C   0  0  0  0  0  0  0  0  0
   -6.1270   -0.4723    0.0000 C   0  0  0  0  0  0  0  0  0
   -4.2581    0.6554    0.0000 C   0  0  0  0  0  0  0  0  0
   -3.7061    0.0423    0.0000 C   0  0  0  0  0  0  0  0  0
   -2.8991    0.2138    0.0000 N   0  0  0  0  0  0  0  0  0
   -2.3471   -0.3993    0.0000 C   0  0  0  0  0  0  0  0  0
   -2.6020   -1.1839    0.0000 O   0  0  0  0  0  0  0  0  0
   -1.5401   -0.2277    0.0000 C   0  0  0  0  0  0  0  0  0
   -0.8726   -0.7127    0.0000 N   0  0  0  0  0  0  0  0  0
   -0.2052   -0.2277    0.0000 C   0  0  0  0  0  0  0  0  0
   -0.4601    0.5569    0.0000 C   0  0  0  0  0  0  0  0  0
   -1.2851    0.5569    0.0000 C   0  0  0  0  0  0  0  0  0
   -1.8372    1.1700    0.0000 N   0  0  0  0  0  0  0  0  0
   -2.6441    0.9984    0.0000 C   0  0  0  0  0  0  0  0  0
   -3.1962    1.6115    0.0000 O   0  0  0  0  0  0  0  0  0
    0.0919    1.1700    0.0000 C   0  0  0  0  0  0  0  0  0
    0.8989    0.9984    0.0000 C   0  0  0  0  0  0  0  0  0
    1.1538    0.2138    0.0000 C   0  0  0  0  0  0  0  0  0
    0.6018   -0.3993    0.0000 C   0  0  0  0  0  0  0  0  0
  1  2  1  0  0  0  0
  2  3  4  0  0  0  0
  2  7  4  0  0  0  0
  3  4  4  0  0  0  0
  4  5  4  0  0  0  0
  5  6  4  0  0  0  0
  6  7  4  0  0  0  0
  7  8  1  0  0  0  0
  8  9  1  0  0  0  0
  8 13  1  0  0  0  0
  9 10  1  0  0  0  0
 10 11  1  0  0  0  0
 11 12  1  0  0  0  0
 11 14  1  0  0  0  0
 12 13  1  0  0  0  0
 14 15  1  0  0  0  0
 15 16  1  0  0  0  0
 16 17  1  0  0  0  0
 16 25  1  0  0  0  0
 17 18  2  0  0  0  0
 17 19  1  0  0  0  0
 19 20  4  0  0  0  0
 19 23  4  0  0  0  0
 20 21  4  0  0  0  0
 21 22  4  0  0  0  0
 21 30  4  0  0  0  0
 22 23  4  0  0  0  0
 22 27  4  0  0  0  0
 23 24  1  0  0  0  0
 24 25  1  0  0  0  0
 25 26  2  0  0  0  0
 27 28  4  0  0  0  0
 28 29  4  0  0  0  0
 29 30  4  0  0  0  0
M  STY  1   1 DAT
M  SAL   1  1  20
M  SDT   1 MRV_IMPLICIT_H                                        
M  SDD   1     0.0000    0.0000    DR    ALL  0       0  
M  SED   1 IMPL_H1
M  END
>  <Name_Molregno>
83342

>  <Alpha-2A>
4

>  <Alpha-2B>
4

>  <Alpha-2C>
4

>  <Beta-2>
4

$$$$
83473
  Marvin  02231216192D 0   1.00000     0.00000     0

 32 36  0  0  0  0  0  0  0  0999 V2000
   -8.3464    1.3126    0.0000 O   0  0  0  0  0  0  0  0  0
   -9.1534    1.1411    0.0000 C   0  0  0  0  0  0  0  0  0
   -8.0915    2.0972    0.0000 C   0  0  0  0  0  0  0  0  0
   -8.6435    2.7103    0.0000 C   0  0  0  0  0  0  0  0  0
   -8.3886    3.4950    0.0000 C   0  0  0  0  0  0  0  0  0
   -7.5816    3.6665    0.0000 C   0  0  0  0  0  0  0  0  0
   -7.0295    3.0534    0.0000 C   0  0  0  0  0  0  0  0  0
   -7.2845    2.2688    0.0000 C   0  0  0  0  0  0  0  0  0
   -6.7325    1.6557    0.0000 N   0  0  0  0  0  0  0  0  0
   -5.9255    1.8272    0.0000 C   0  0  0  0  0  0  0  0  0
   -5.3734    1.2141    0.0000 C   0  0  0  0  0  0  0  0  0
   -5.6284    0.4295    0.0000 N   0  0  0  0  0  0  0  0  0
   -6.4354    0.2580    0.0000 C   0  0  0  0  0  0  0  0  0
   -6.9874    0.8710    0.0000 C   0  0  0  0  0  0  0  0  0
   -5.0764   -0.1836    0.0000 C   0  0  0  0  0  0  0  0  0
   -4.2694   -0.0121    0.0000 C   0  0  0  0  0  0  0  0  0
   -3.7174   -0.6252    0.0000 C   0  0  0  0  0  0  0  0  0
   -2.9104   -0.4537    0.0000 N   0  0  0  0  0  0  0  0  0
   -2.3583   -1.0667    0.0000 C   0  0  0  0  0  0  0  0  0
   -2.6133   -1.8514    0.0000 O   0  0  0  0  0  0  0  0  0
   -1.5514   -0.8952    0.0000 C   0  0  0  0  0  0  0  0  0
   -0.8839   -1.3801    0.0000 N   0  0  0  0  0  0  0  0  0
   -0.2165   -0.8952    0.0000 C   0  0  0  0  0  0  0  0  0
   -0.4714   -0.1106    0.0000 C   0  0  0  0  0  0  0  0  0
   -1.2964   -0.1106    0.0000 C   0  0  0  0  0  0  0  0  0
   -1.8485    0.5025    0.0000 N   0  0  0  0  0  0  0  0  0
   -2.6554    0.3310    0.0000 C   0  0  0  0  0  0  0  0  0
   -3.2075    0.9441    0.0000 O   0  0  0  0  0  0  0  0  0
    0.0806    0.5025    0.0000 C   0  0  0  0  0  0  0  0  0
    0.8876    0.3310    0.0000 C   0  0  0  0  0  0  0  0  0
    1.1425   -0.4537    0.0000 C   0  0  0  0  0  0  0  0  0
    0.5905   -1.0667    0.0000 C   0  0  0  0  0  0  0  0  0
  1  2  1  0  0  0  0
  1  3  1  0  0  0  0
  3  4  4  0  0  0  0
  3  8  4  0  0  0  0
  4  5  4  0  0  0  0
  5  6  4  0  0  0  0
  6  7  4  0  0  0  0
  7  8  4  0  0  0  0
  8  9  1  0  0  0  0
  9 10  1  0  0  0  0
  9 14  1  0  0  0  0
 10 11  1  0  0  0  0
 11 12  1  0  0  0  0
 12 13  1  0  0  0  0
 12 15  1  0  0  0  0
 13 14  1  0  0  0  0
 15 16  1  0  0  0  0
 16 17  1  0  0  0  0
 17 18  1  0  0  0  0
 18 19  1  0  0  0  0
 18 27  1  0  0  0  0
 19 20  2  0  0  0  0
 19 21  1  0  0  0  0
 21 22  4  0  0  0  0
 21 25  4  0  0  0  0
 22 23  4  0  0  0  0
 23 24  4  0  0  0  0
 23 32  4  0  0  0  0
 24 25  4  0  0  0  0
 24 29  4  0  0  0  0
 25 26  1  0  0  0  0
 26 27  1  0  0  0  0
 27 28  2  0  0  0  0
 29 30  4  0  0  0  0
 30 31  4  0  0  0  0
 31 32  4  0  0  0  0
M  STY  1   1 DAT
M  SAL   1  1  22
M  SDT   1 MRV_IMPLICIT_H                                        
M  SDD   1     0.0000    0.0000    DR    ALL  0       0  
M  SED   1 IMPL_H1
M  END
>  <Name_Molregno>
83473

>  <Alpha-2A>
7.26

>  <Alpha-2B>
7.26

>  <Alpha-2C>
7.26

>  <Beta-2>
5.93

$$$$
83492
  Marvin  02231216192D 0   1.00000     0.00000     0

 33 37  0  0  0  0  0  0  0  0999 V2000
   -7.2572   -1.6890    0.0000 O   0  0  0  0  0  0  0  0  0
   -7.5121   -2.4737    0.0000 C   0  0  0  0  0  0  0  0  0
   -7.8092   -1.0759    0.0000 C   0  0  0  0  0  0  0  0  0
   -8.6162   -1.2475    0.0000 C   0  0  0  0  0  0  0  0  0
   -9.1682   -0.6344    0.0000 C   0  0  0  0  0  0  0  0  0
   -8.9133    0.1502    0.0000 C   0  0  0  0  0  0  0  0  0
   -8.1063    0.3218    0.0000 C   0  0  0  0  0  0  0  0  0
   -7.5543   -0.2913    0.0000 C   0  0  0  0  0  0  0  0  0
   -6.7473   -0.1198    0.0000 N   0  0  0  0  0  0  0  0  0
   -6.4924    0.6648    0.0000 C   0  0  0  0  0  0  0  0  0
   -5.6854    0.8364    0.0000 C   0  0  0  0  0  0  0  0  0
   -5.1334    0.2233    0.0000 N   0  0  0  0  0  0  0  0  0
   -5.3883   -0.5614    0.0000 C   0  0  0  0  0  0  0  0  0
   -6.1953   -0.7329    0.0000 C   0  0  0  0  0  0  0  0  0
   -4.3264    0.3948    0.0000 C   0  0  0  0  0  0  0  0  0
   -3.7744   -0.2183    0.0000 C   0  0  0  0  0  0  0  0  0
   -2.9674   -0.0468    0.0000 N   0  0  0  0  0  0  0  0  0
   -2.4154   -0.6599    0.0000 C   0  0  0  0  0  0  0  0  0
   -2.6703   -1.4445    0.0000 O   0  0  0  0  0  0  0  0  0
   -1.6084   -0.4883    0.0000 C   0  0  0  0  0  0  0  0  0
   -0.9409   -0.9733    0.0000 N   0  0  0  0  0  0  0  0  0
   -0.2735   -0.4883    0.0000 C   0  0  0  0  0  0  0  0  0
   -0.5284    0.2963    0.0000 C   0  0  0  0  0  0  0  0  0
   -1.3534    0.2963    0.0000 C   0  0  0  0  0  0  0  0  0
   -1.9055    0.9094    0.0000 N   0  0  0  0  0  0  0  0  0
   -1.6505    1.6940    0.0000 C   0  0  0  0  0  0  0  0  0
   -2.7125    0.7378    0.0000 C   0  0  0  0  0  0  0  0  0
   -3.2645    1.3509    0.0000 O   0  0  0  0  0  0  0  0  0
    0.0236    0.9094    0.0000 C   0  0  0  0  0  0  0  0  0
    0.8306    0.7378    0.0000 C   0  0  0  0  0  0  0  0  0
    1.0855   -0.0468    0.0000 C   0  0  0  0  0  0  0  0  0
    0.5335   -0.6599    0.0000 C   0  0  0  0  0  0  0  0  0
   -0.9409   -1.7983    0.0000 C   0  0  0  0  0  0  0  0  0
  1  2  1  0  0  0  0
  1  3  1  0  0  0  0
  3  4  4  0  0  0  0
  3  8  4  0  0  0  0
  4  5  4  0  0  0  0
  5  6  4  0  0  0  0
  6  7  4  0  0  0  0
  7  8  4  0  0  0  0
  8  9  1  0  0  0  0
  9 10  1  0  0  0  0
  9 14  1  0  0  0  0
 10 11  1  0  0  0  0
 11 12  1  0  0  0  0
 12 13  1  0  0  0  0
 12 15  1  0  0  0  0
 13 14  1  0  0  0  0
 15 16  1  0  0  0  0
 16 17  1  0  0  0  0
 17 18  1  0  0  0  0
 17 27  1  0  0  0  0
 18 19  2  0  0  0  0
 18 20  1  0  0  0  0
 20 21  4  0  0  0  0
 20 24  4  0  0  0  0
 21 22  4  0  0  0  0
 21 33  1  0  0  0  0
 22 23  4  0  0  0  0
 22 32  4  0  0  0  0
 23 24  4  0  0  0  0
 23 29  4  0  0  0  0
 24 25  1  0  0  0  0
 25 26  1  0  0  0  0
 25 27  1  0  0  0  0
 27 28  2  0  0  0  0
 29 30  4  0  0  0  0
 30 31  4  0  0  0  0
 31 32  4  0  0  0  0
M  END
>  <Name_Molregno>
83492

>  <Alpha-2A>
5.65

>  <Alpha-2B>
5.65

>  <Alpha-2C>
5.65

>  <Beta-2>
4

$$$$
83493
  Marvin  02231216192D 0   1.00000     0.00000     0

 30 34  0  0  0  0  0  0  0  0999 V2000
   -0.1347   -0.1949    0.0000 Cl  0  0  0  0  0  0  0  0  0
    0.6722   -0.0233    0.0000 C   0  0  0  0  0  0  0  0  0
    0.9272    0.7613    0.0000 C   0  0  0  0  0  0  0  0  0
    1.7341    0.9328    0.0000 C   0  0  0  0  0  0  0  0  0
    2.2862    0.3197    0.0000 C   0  0  0  0  0  0  0  0  0
    3.0931    0.4912    0.0000 N   0  0  0  0  0  0  0  0  0
    3.3481    1.2759    0.0000 C   0  0  0  0  0  0  0  0  0
    4.1551    1.4474    0.0000 C   0  0  0  0  0  0  0  0  0
    4.7071    0.8343    0.0000 N   0  0  0  0  0  0  0  0  0
    4.4521    0.0497    0.0000 C   0  0  0  0  0  0  0  0  0
    3.6452   -0.1219    0.0000 C   0  0  0  0  0  0  0  0  0
    5.5141    1.0058    0.0000 C   0  0  0  0  0  0  0  0  0
    6.0661    0.3927    0.0000 C   0  0  0  0  0  0  0  0  0
    6.8731    0.5642    0.0000 N   0  0  0  0  0  0  0  0  0
    7.4251   -0.0488    0.0000 C   0  0  0  0  0  0  0  0  0
    7.1702   -0.8335    0.0000 O   0  0  0  0  0  0  0  0  0
    8.2321    0.1227    0.0000 C   0  0  0  0  0  0  0  0  0
    8.8995   -0.3622    0.0000 N   0  0  0  0  0  0  0  0  0
    9.5669    0.1227    0.0000 C   0  0  0  0  0  0  0  0  0
    9.3120    0.9073    0.0000 C   0  0  0  0  0  0  0  0  0
    8.4870    0.9073    0.0000 C   0  0  0  0  0  0  0  0  0
    7.9350    1.5204    0.0000 N   0  0  0  0  0  0  0  0  0
    7.1280    1.3489    0.0000 C   0  0  0  0  0  0  0  0  0
    6.5760    1.9620    0.0000 O   0  0  0  0  0  0  0  0  0
    9.8640    1.5204    0.0000 C   0  0  0  0  0  0  0  0  0
   10.6710    1.3489    0.0000 C   0  0  0  0  0  0  0  0  0
   10.9260    0.5642    0.0000 C   0  0  0  0  0  0  0  0  0
   10.3739   -0.0488    0.0000 C   0  0  0  0  0  0  0  0  0
    2.0312   -0.4649    0.0000 C   0  0  0  0  0  0  0  0  0
    1.2243   -0.6364    0.0000 C   0  0  0  0  0  0  0  0  0
  1  2  1  0  0  0  0
  2  3  4  0  0  0  0
  2 30  4  0  0  0  0
  3  4  4  0  0  0  0
  4  5  4  0  0  0  0
  5  6  1  0  0  0  0
  5 29  4  0  0  0  0
  6  7  1  0  0  0  0
  6 11  1  0  0  0  0
  7  8  1  0  0  0  0
  8  9  1  0  0  0  0
  9 10  1  0  0  0  0
  9 12  1  0  0  0  0
 10 11  1  0  0  0  0
 12 13  1  0  0  0  0
 13 14  1  0  0  0  0
 14 15  1  0  0  0  0
 14 23  1  0  0  0  0
 15 16  2  0  0  0  0
 15 17  1  0  0  0  0
 17 18  4  0  0  0  0
 17 21  4  0  0  0  0
 18 19  4  0  0  0  0
 19 20  4  0  0  0  0
 19 28  4  0  0  0  0
 20 21  4  0  0  0  0
 20 25  4  0  0  0  0
 21 22  1  0  0  0  0
 22 23  1  0  0  0  0
 23 24  2  0  0  0  0
 25 26  4  0  0  0  0
 26 27  4  0  0  0  0
 27 28  4  0  0  0  0
 29 30  4  0  0  0  0
M  STY  1   1 DAT
M  SAL   1  1  18
M  SDT   1 MRV_IMPLICIT_H                                        
M  SDD   1     0.0000    0.0000    DR    ALL  0       0  
M  SED   1 IMPL_H1
M  END
>  <Name_Molregno>
83493

>  <Alpha-2A>
4

>  <Alpha-2B>
4

>  <Alpha-2C>
4

>  <Beta-2>
4

$$$$
88815
  Marvin  02231216192D 0   1.00000     0.00000     0

 14 15  0  0  1  0  0  0  0  0999 V2000
   -3.2072   -0.1654    0.0000 S   0  0  0  0  0  0  0  0  0
   -2.4226   -0.4204    0.0000 C   0  0  0  0  0  0  0  0  0
   -1.7081   -0.0079    0.0000 C   0  0  0  0  0  0  0  0  0
   -0.9937   -0.4204    0.0000 C   0  0  0  0  0  0  0  0  0
   -0.2792   -0.0079    0.0000 N   0  0  0  0  0  0  0  0  0
    0.4353   -0.4204    0.0000 C   0  0  0  0  0  0  0  0  0
    1.1498   -0.0079    0.0000 C   0  0  0  0  0  0  0  0  0
    1.8642   -0.4204    0.0000 C   0  0  0  0  0  0  0  0  0
   -0.9937   -1.2454    0.0000 C   0  0  0  0  0  0  0  0  0
   -1.7081   -1.6579    0.0000 C   0  0  0  0  0  0  0  0  0
   -2.4226   -1.2454    0.0000 C   0  0  0  0  0  0  0  0  0
   -3.2072   -1.5003    0.0000 N   0  0  0  0  0  0  0  0  0
   -3.6921   -0.8329    0.0000 C   0  0  0  0  0  0  0  0  0
   -4.5171   -0.8329    0.0000 N   0  0  0  0  0  0  0  0  0
  1  2  4  0  0  0  0
  1 13  4  0  0  0  0
  2  3  1  0  0  0  0
  2 11  4  0  0  0  0
  3  4  1  0  0  0  0
  4  5  1  0  0  0  0
  4  9  1  0  0  0  0
  5  6  1  0  0  0  0
  6  7  1  0  0  0  0
  7  8  1  0  0  0  0
  9 10  1  0  0  0  0
 10 11  1  0  0  0  0
 11 12  4  0  0  0  0
 12 13  4  0  0  0  0
 13 14  1  0  0  0  0
M  END
>  <Name_Molregno>
88815

>  <5-HT1A>
5.67

>  <5-HT1B>
5.26

>  <5-HT1D>
5.39

>  <5-HT1E>
5

>  <5-HT2A>
5

>  <5-HT2C>
5

>  <5-HT3>
5

>  <5-HT5>
5

>  <5-HT6>
5

>  <5-HT7>
5.93

>  <Alpha-1A>
5

>  <Alpha-1B>
5

>  <Alpha-2A>
6.44

>  <Alpha-2B>
6.68

>  <Alpha-2C>
6.14

>  <Beta-1>
5

>  <Beta-2>
5

>  <DOPAMINE D1>
5

>  <DOPAMINE D2>
6.55

>  <DOPAMINE D3>
8.51

>  <DOPAMINE D4>
7.4

>  <DOPAMINE D5>
5

>  <Dopamine transporter>
5

>  <HISTAMINE H1>
5

>  <HISTAMINE H2>
5.57

>  <HISTAMINE H4>
5

>  <Muscarinic acetylcholine receptor M1>
5

>  <Muscarinic acetylcholine receptor M2>
5

>  <Muscarinic acetylcholine receptor M3>
5

>  <Muscarinic acetylcholine receptor M4>
5

>  <Muscarinic acetylcholine receptor M5>
5

>  <Norepinephrine transporter>
5

>  <Serotonin transporter>
5

$$$$
118866
  Marvin  02231216192D 0   1.00000     0.00000     0

 23 25  0  0  1  0  0  0  0  0999 V2000
    1.8177    2.5183    0.0000 I   0  0  0  0  0  0  0  0  0
    1.8177    1.6933    0.0000 C   0  0  0  0  0  0  0  0  0
    2.5322    1.2808    0.0000 C   0  0  0  0  0  0  0  0  0
    2.5322    0.4558    0.0000 C   0  0  0  0  0  0  0  0  0
    1.8177    0.0433    0.0000 C   0  0  0  0  0  0  0  0  0
    1.1033    0.4558    0.0000 C   0  0  0  0  0  0  0  0  0
    0.3888    0.0433    0.0000 I   0  0  0  0  0  0  0  0  0
    1.1033    1.2808    0.0000 C   0  0  0  0  0  0  0  0  0
    0.3888    1.6933    0.0000 O   0  0  0  0  0  0  0  0  0
   -0.3257    1.2808    0.0000 C   0  0  0  0  0  0  0  0  0
    3.2467    0.0433    0.0000 C   0  0  0  0  0  0  0  0  0
    3.2467   -0.7817    0.0000 C   0  0  0  0  0  0  0  0  0
    2.5322   -1.1942    0.0000 N   0  0  0  0  0  0  0  0  0
    2.5322   -2.0192    0.0000 C   0  0  0  0  0  0  0  0  0
    3.2467   -2.4317    0.0000 C   0  0  0  0  0  0  0  0  0
    3.9612   -2.0192    0.0000 C   0  0  0  0  0  0  0  0  0
    3.9612   -1.1942    0.0000 C   0  0  0  0  0  0  0  0  0
    4.6756   -0.7817    0.0000 C   0  0  0  0  0  0  0  0  0
    5.3901   -1.1942    0.0000 C   0  0  0  0  0  0  0  0  0
    6.1046   -0.7817    0.0000 O   0  0  0  0  0  0  0  0  0
    5.3901   -2.0192    0.0000 C   0  0  0  0  0  0  0  0  0
    6.1046   -2.4317    0.0000 O   0  0  0  0  0  0  0  0  0
    4.6756   -2.4317    0.0000 C   0  0  0  0  0  0  0  0  0
  1  2  1  0  0  0  0
  2  3  4  0  0  0  0
  2  8  4  0  0  0  0
  3  4  4  0  0  0  0
  4  5  4  0  0  0  0
  4 11  1  0  0  0  0
  5  6  4  0  0  0  0
  6  7  1  0  0  0  0
  6  8  4  0  0  0  0
  8  9  1  0  0  0  0
  9 10  1  0  0  0  0
 11 12  1  0  0  0  0
 12 13  1  0  0  0  0
 12 17  1  0  0  0  0
 13 14  1  0  0  0  0
 14 15  1  0  0  0  0
 15 16  1  0  0  0  0
 16 17  4  0  0  0  0
 16 23  4  0  0  0  0
 17 18  4  0  0  0  0
 18 19  4  0  0  0  0
 19 20  1  0  0  0  0
 19 21  4  0  0  0  0
 21 22  1  0  0  0  0
 21 23  4  0  0  0  0
M  END
>  <Name_Molregno>
118866

>  <Beta-1>
7.89

>  <Beta-2>
8.69

$$$$
120674
  Marvin  02231216192D 0   1.00000     0.00000     0

 27 29  0  0  1  0  0  0  0  0999 V2000
    4.4208    6.3587    0.0000 F   0  0  0  0  0  0  0  0  0
    4.4208    5.5337    0.0000 C   0  0  0  0  0  0  0  0  0
    5.1353    5.1212    0.0000 C   0  0  0  0  0  0  0  0  0
    5.1353    4.2962    0.0000 C   0  0  0  0  0  0  0  0  0
    4.4208    3.8837    0.0000 C   0  0  0  0  0  0  0  0  0
    3.7063    4.2962    0.0000 C   0  0  0  0  0  0  0  0  0
    3.7063    5.1212    0.0000 C   0  0  0  0  0  0  0  0  0
    4.4208    3.0587    0.0000 C   0  0  0  0  0  0  0  0  0
    5.1353    2.6462    0.0000 C   0  0  0  0  0  0  0  0  0
    5.1353    1.8212    0.0000 N   0  0  0  0  0  0  0  0  0
    5.8497    1.4087    0.0000 C   0  0  0  0  0  0  0  0  0
    5.8497    0.5837    0.0000 C   0  0  0  0  0  0  0  0  0
    5.1353    0.1712    0.0000 C   0  0  0  0  0  0  0  0  0
    4.4208    0.5837    0.0000 C   0  0  0  0  0  0  0  0  0
    4.4208    1.4087    0.0000 C   0  0  0  0  0  0  0  0  0
    5.1353   -0.6538    0.0000 C   0  0  0  0  0  0  0  0  0
    4.4208   -1.0663    0.0000 O   0  0  0  0  0  0  0  0  0
    5.8497   -1.0663    0.0000 C   0  0  0  0  0  0  0  0  0
    6.5642   -0.6538    0.0000 C   0  0  0  0  0  0  0  0  0
    7.2787   -1.0663    0.0000 C   0  0  0  0  0  0  0  0  0
    7.2787   -1.8913    0.0000 C   0  0  0  0  0  0  0  0  0
    6.5642   -2.3038    0.0000 C   0  0  0  0  0  0  0  0  0
    6.5642   -3.1288    0.0000 O   0  0  0  0  0  0  0  0  0
    7.2787   -3.5413    0.0000 C   0  0  0  0  0  0  0  0  0
    5.8497   -1.8913    0.0000 C   0  0  0  0  0  0  0  0  0
    5.1353   -2.3038    0.0000 O   0  0  0  0  0  0  0  0  0
    5.1353   -3.1288    0.0000 C   0  0  0  0  0  0  0  0  0
  1  2  1  0  0  0  0
  2  3  4  0  0  0  0
  2  7  4  0  0  0  0
  3  4  4  0  0  0  0
  4  5  4  0  0  0  0
  5  6  4  0  0  0  0
  5  8  1  0  0  0  0
  6  7  4  0  0  0  0
  8  9  1  0  0  0  0
  9 10  1  0  0  0  0
 10 11  1  0  0  0  0
 10 15  1  0  0  0  0
 11 12  1  0  0  0  0
 12 13  1  0  0  0  0
 13 14  1  0  0  0  0
 13 16  1  0  0  0  0
 14 15  1  0  0  0  0
 16 17  1  0  0  0  0
 16 18  1  0  0  0  0
 18 19  4  0  0  0  0
 18 25  4  0  0  0  0
 19 20  4  0  0  0  0
 20 21  4  0  0  0  0
 21 22  4  0  0  0  0
 22 23  1  0  0  0  0
 22 25  4  0  0  0  0
 23 24  1  0  0  0  0
 25 26  1  0  0  0  0
 26 27  1  0  0  0  0
M  END
>  <Name_Molregno>
120674

>  <5-HT1A>
5

>  <5-HT1E>
5

>  <5-HT2A>
9.16

>  <5-HT2C>
7.37

>  <5-HT3>
5

>  <5-HT5>
5

>  <5-HT6>
5.46

>  <Alpha-1A>
6.41

>  <Alpha-1B>
6.37

>  <Alpha-2A>
5.72

>  <Alpha-2B>
6.57

>  <Alpha-2C>
5.84

>  <Beta-1>
5

>  <Beta-2>
5

>  <DOPAMINE D1>
5.67

>  <DOPAMINE D2>
5.23

>  <DOPAMINE D4>
5.42

>  <DOPAMINE D5>
5

>  <Dopamine transporter>
5

>  <HISTAMINE H1>
7.18

>  <HISTAMINE H4>
5

>  <Muscarinic acetylcholine receptor M1>
5

>  <Muscarinic acetylcholine receptor M2>
5

>  <Muscarinic acetylcholine receptor M3>
5

>  <Muscarinic acetylcholine receptor M4>
5

>  <Muscarinic acetylcholine receptor M5>
5

>  <Norepinephrine transporter>
5

>  <Serotonin transporter>
5

$$$$
140715
  Marvin  02231216192D 0   1.00000     0.00000     0

 35 39  0  0  1  0  0  0  0  0999 V2000
    1.6777    2.9820    0.0000 O   0  0  0  0  0  0  0  0  0
    2.3922    2.5695    0.0000 C   0  0  0  0  0  0  0  0  0
    2.3922    1.7445    0.0000 C   0  0  0  0  0  0  0  0  0
    1.6777    1.3320    0.0000 O   0  0  0  0  0  0  0  0  0
    3.1067    1.3320    0.0000 C   0  0  0  0  0  0  0  0  0
    3.1067    0.5070    0.0000 N   0  0  0  0  0  0  0  0  0
    3.8212    0.0945    0.0000 C   0  0  0  0  0  0  0  0  0
    3.8212   -0.7305    0.0000 C   0  0  0  0  0  0  0  0  0
    3.1067   -1.1430    0.0000 N   0  0  0  0  0  0  0  0  0
    2.3922   -0.7305    0.0000 C   0  0  0  0  0  0  0  0  0
    2.3922    0.0945    0.0000 C   0  0  0  0  0  0  0  0  0
    3.1067   -1.9680    0.0000 C   0  0  0  0  0  0  0  0  0
    2.3922   -2.3805    0.0000 C   0  0  0  0  0  0  0  0  0
    2.3922   -3.2055    0.0000 C   0  0  0  0  0  0  0  0  0
    1.6777   -3.6180    0.0000 C   0  0  0  0  0  0  0  0  0
    0.9633   -3.2055    0.0000 C   0  0  0  0  0  0  0  0  0
    0.9633   -2.3805    0.0000 C   0  0  0  0  0  0  0  0  0
    1.6777   -1.9680    0.0000 C   0  0  0  0  0  0  0  0  0
    3.8212   -2.3805    0.0000 C   0  0  0  0  0  0  0  0  0
    4.5356   -1.9680    0.0000 C   0  0  0  0  0  0  0  0  0
    5.2501   -2.3805    0.0000 C   0  0  0  0  0  0  0  0  0
    5.2501   -3.2055    0.0000 C   0  0  0  0  0  0  0  0  0
    4.5356   -3.6180    0.0000 C   0  0  0  0  0  0  0  0  0
    3.8212   -3.2055    0.0000 C   0  0  0  0  0  0  0  0  0
    1.6777    3.8070    0.0000 C   0  0  0  0  0  0  0  0  0
    0.9633    4.2195    0.0000 C   0  0  0  0  0  0  0  0  0
    0.1787    3.9646    0.0000 C   0  0  0  0  0  0  0  0  0
   -0.3063    4.6320    0.0000 C   0  0  0  0  0  0  0  0  0
    0.1787    5.2995    0.0000 N   0  0  0  0  0  0  0  0  0
    0.9633    5.0445    0.0000 C   0  0  0  0  0  0  0  0  0
    1.6777    5.4570    0.0000 C   0  0  0  0  0  0  0  0  0
    2.3922    5.0445    0.0000 C   0  0  0  0  0  0  0  0  0
    2.3922    4.2195    0.0000 C   0  0  0  0  0  0  0  0  0
   -1.1313    4.6320    0.0000 C   0  0  0  0  0  0  0  0  0
   -1.9563    4.6320    0.0000 N   0  0  0  0  0  0  0  0  0
  1  2  1  0  0  0  0
  1 25  1  0  0  0  0
  2  3  1  0  0  0  0
  3  4  1  0  0  0  0
  3  5  1  0  0  0  0
  5  6  1  0  0  0  0
  6  7  1  0  0  0  0
  6 11  1  0  0  0  0
  7  8  1  0  0  0  0
  8  9  1  0  0  0  0
  9 10  1  0  0  0  0
  9 12  1  0  0  0  0
 10 11  1  0  0  0  0
 12 13  1  0  0  0  0
 12 19  1  0  0  0  0
 13 14  4  0  0  0  0
 13 18  4  0  0  0  0
 14 15  4  0  0  0  0
 15 16  4  0  0  0  0
 16 17  4  0  0  0  0
 17 18  4  0  0  0  0
 19 20  4  0  0  0  0
 19 24  4  0  0  0  0
 20 21  4  0  0  0  0
 21 22  4  0  0  0  0
 22 23  4  0  0  0  0
 23 24  4  0  0  0  0
 25 26  4  0  0  0  0
 25 33  4  0  0  0  0
 26 27  4  0  0  0  0
 26 30  4  0  0  0  0
 27 28  4  0  0  0  0
 28 29  4  0  0  0  0
 28 34  1  0  0  0  0
 29 30  4  0  0  0  0
 30 31  4  0  0  0  0
 31 32  4  0  0  0  0
 32 33  4  0  0  0  0
 34 35  3  0  0  0  0
M  STY  1   1 DAT
M  SAL   1  1  29
M  SDT   1 MRV_IMPLICIT_H                                        
M  SDD   1     0.0000    0.0000    DR    ALL  0       0  
M  SED   1 IMPL_H1
M  END
>  <Name_Molregno>
140715

>  <Beta-2>
7.24

$$$$
180370
  Marvin  02231216192D 0   1.00000     0.00000     0

 22 24  0  0  1  0  0  0  0  0999 V2000
    0.0030   -0.0039    0.0000 O   0  0  0  0  0  0  0  0  0
    0.7175   -0.4164    0.0000 C   0  0  0  0  0  0  0  0  0
    1.4319   -0.0039    0.0000 C   0  0  0  0  0  0  0  0  0
    1.4319    0.8211    0.0000 O   0  0  0  0  0  0  0  0  0
    2.1464   -0.4164    0.0000 C   0  0  0  0  0  0  0  0  0
    2.8609   -0.0039    0.0000 N   0  0  0  0  0  0  0  0  0
    3.5754   -0.4164    0.0000 C   0  0  0  0  0  0  0  0  0
    4.2898   -0.0039    0.0000 C   0  0  0  0  0  0  0  0  0
    3.5754   -1.2414    0.0000 C   0  0  0  0  0  0  0  0  0
   -0.7115   -0.4164    0.0000 C   0  0  0  0  0  0  0  0  0
   -1.4259   -0.0039    0.0000 C   0  0  0  0  0  0  0  0  0
   -1.5975    0.8031    0.0000 C   0  0  0  0  0  0  0  0  0
   -2.4180    0.8893    0.0000 C   0  0  0  0  0  0  0  0  0
   -2.7535    0.1356    0.0000 N   0  0  0  0  0  0  0  0  0
   -2.1404   -0.4164    0.0000 C   0  0  0  0  0  0  0  0  0
   -2.1404   -1.2414    0.0000 C   0  0  0  0  0  0  0  0  0
   -1.4259   -1.6539    0.0000 C   0  0  0  0  0  0  0  0  0
   -0.7115   -1.2414    0.0000 C   0  0  0  0  0  0  0  0  0
   -2.7535    1.6430    0.0000 C   0  0  0  0  0  0  0  0  0
   -2.2686    2.3104    0.0000 C   0  0  0  0  0  0  0  0  0
   -1.4481    2.2242    0.0000 C   0  0  0  0  0  0  0  0  0
   -1.1125    1.4705    0.0000 C   0  0  0  0  0  0  0  0  0
  1  2  1  0  0  0  0
  1 10  1  0  0  0  0
  2  3  1  0  0  0  0
  3  4  1  0  0  0  0
  3  5  1  0  0  0  0
  5  6  1  0  0  0  0
  6  7  1  0  0  0  0
  7  8  1  0  0  0  0
  7  9  1  0  0  0  0
 10 11  4  0  0  0  0
 10 18  4  0  0  0  0
 11 12  4  0  0  0  0
 11 15  4  0  0  0  0
 12 13  4  0  0  0  0
 12 22  4  0  0  0  0
 13 14  4  0  0  0  0
 13 19  4  0  0  0  0
 14 15  4  0  0  0  0
 15 16  4  0  0  0  0
 16 17  4  0  0  0  0
 17 18  4  0  0  0  0
 19 20  4  0  0  0  0
 20 21  4  0  0  0  0
 21 22  4  0  0  0  0
M  STY  1   1 DAT
M  SAL   1  1  14
M  SDT   1 MRV_IMPLICIT_H                                        
M  SDD   1     0.0000    0.0000    DR    ALL  0       0  
M  SED   1 IMPL_H1
M  END
>  <Name_Molregno>
180370

>  <Beta-2>
9.94

$$$$
190074
  Marvin  02231216192D 0   1.00000     0.00000     0

 18 19  0  0  1  0  0  0  0  0999 V2000
   -0.0067   -0.0070    0.0000 O   0  0  0  0  0  0  0  0  0
    0.7077    0.4055    0.0000 C   0  0  0  0  0  0  0  0  0
    1.4222   -0.0070    0.0000 C   0  0  0  0  0  0  0  0  0
    1.4222   -0.8320    0.0000 O   0  0  0  0  0  0  0  0  0
    2.1367    0.4055    0.0000 C   0  0  0  0  0  0  0  0  0
    2.8511   -0.0070    0.0000 N   0  0  0  0  0  0  0  0  0
    3.5656    0.4055    0.0000 C   0  0  0  0  0  0  0  0  0
    4.2801   -0.0070    0.0000 C   0  0  0  0  0  0  0  0  0
    3.5656    1.2305    0.0000 C   0  0  0  0  0  0  0  0  0
   -0.7212    0.4055    0.0000 C   0  0  0  0  0  0  0  0  0
   -1.4357   -0.0070    0.0000 C   0  0  0  0  0  0  0  0  0
   -2.1502    0.4055    0.0000 C   0  0  0  0  0  0  0  0  0
   -2.7633   -0.1465    0.0000 N   0  0  0  0  0  0  0  0  0
   -2.4277   -0.9002    0.0000 C   0  0  0  0  0  0  0  0  0
   -1.6072   -0.8139    0.0000 C   0  0  0  0  0  0  0  0  0
   -2.1502    1.2305    0.0000 C   0  0  0  0  0  0  0  0  0
   -1.4357    1.6430    0.0000 C   0  0  0  0  0  0  0  0  0
   -0.7212    1.2305    0.0000 C   0  0  0  0  0  0  0  0  0
  1  2  1  0  0  0  0
  1 10  1  0  0  0  0
  2  3  1  0  0  0  0
  3  4  1  0  0  0  0
  3  5  1  0  0  0  0
  5  6  1  0  0  0  0
  6  7  1  0  0  0  0
  7  8  1  0  0  0  0
  7  9  1  0  0  0  0
 10 11  4  0  0  0  0
 10 18  4  0  0  0  0
 11 12  4  0  0  0  0
 11 15  4  0  0  0  0
 12 13  4  0  0  0  0
 12 16  4  0  0  0  0
 13 14  4  0  0  0  0
 14 15  4  0  0  0  0
 16 17  4  0  0  0  0
 17 18  4  0  0  0  0
M  STY  1   1 DAT
M  SAL   1  1  13
M  SDT   1 MRV_IMPLICIT_H                                        
M  SDD   1     0.0000    0.0000    DR    ALL  0       0  
M  SED   1 IMPL_H1
M  END
>  <Name_Molregno>
190074

>  <5-HT1A>
7.39

>  <5-HT1B>
5.39

>  <5-HT1D>
5.11

>  <5-HT1E>
5

>  <5-HT2A>
5.03

>  <5-HT2C>
5

>  <5-HT7>
5

>  <Beta-1>
8.96

>  <Beta-2>
9.04

>  <Serotonin transporter>
5.15

$$$$
199111
  Marvin  02231216192D 0   1.00000     0.00000     0

 14 15  0  0  1  0  0  0  0  0999 V2000
   -0.1663    0.8600    0.0000 N   0  0  0  0  0  0  0  0  0
    0.5482    0.4475    0.0000 C   0  0  0  0  0  0  0  0  0
    1.2627    0.8600    0.0000 C   0  0  0  0  0  0  0  0  0
    1.2627    1.6850    0.0000 C   0  0  0  0  0  0  0  0  0
    1.9771    2.0975    0.0000 C   0  0  0  0  0  0  0  0  0
    2.6916    1.6850    0.0000 C   0  0  0  0  0  0  0  0  0
    2.6916    0.8600    0.0000 C   0  0  0  0  0  0  0  0  0
    1.9771    0.4475    0.0000 C   0  0  0  0  0  0  0  0  0
    1.9771   -0.3775    0.0000 N   0  0  0  0  0  0  0  0  0
    2.6916   -0.7900    0.0000 C   0  0  0  0  0  0  0  0  0
    2.6916   -1.6150    0.0000 C   0  0  0  0  0  0  0  0  0
    1.2627   -0.7900    0.0000 C   0  0  0  0  0  0  0  0  0
    0.5482    2.0975    0.0000 C   0  0  0  0  0  0  0  0  0
   -0.1663    1.6850    0.0000 C   0  0  0  0  0  0  0  0  0
  1  2  4  0  0  0  0
  1 14  4  0  0  0  0
  2  3  4  0  0  0  0
  3  4  4  0  0  0  0
  3  8  1  0  0  0  0
  4  5  1  0  0  0  0
  4 13  4  0  0  0  0
  5  6  1  0  0  0  0
  6  7  1  0  0  0  0
  7  8  1  0  0  0  0
  8  9  1  0  0  0  0
  9 10  1  0  0  0  0
  9 12  1  0  0  0  0
 10 11  1  0  0  0  0
 13 14  4  0  0  0  0
M  END
>  <Name_Molregno>
199111

>  <5-HT1A>
5

>  <5-HT1B>
5

>  <5-HT2C>
5

>  <5-HT3>
5

>  <5-HT5>
5

>  <5-HT6>
5

>  <5-HT7>
5

>  <Beta-1>
5

>  <Beta-2>
5

>  <DOPAMINE D1>
5

>  <DOPAMINE D2>
5

>  <DOPAMINE D3>
5

>  <DOPAMINE D4>
5

>  <DOPAMINE D5>
5

>  <HISTAMINE H1>
5

>  <HISTAMINE H2>
5

>  <Muscarinic acetylcholine receptor M1>
5

>  <Muscarinic acetylcholine receptor M2>
5

>  <Muscarinic acetylcholine receptor M3>
5

>  <Muscarinic acetylcholine receptor M4>
5

>  <Muscarinic acetylcholine receptor M5>
5

$$$$
201090
  Marvin  02231216192D 0   1.00000     0.00000     0

 22 24  0  0  1  0  0  0  0  0999 V2000
    0.6133    1.6567    0.0000 I   0  0  0  0  0  0  0  0  0
    1.3278    1.2442    0.0000 C   0  0  0  0  0  0  0  0  0
    2.0422    1.6567    0.0000 C   0  0  0  0  0  0  0  0  0
    2.0422    2.4817    0.0000 I   0  0  0  0  0  0  0  0  0
    2.7567    1.2442    0.0000 C   0  0  0  0  0  0  0  0  0
    2.7567    0.4192    0.0000 C   0  0  0  0  0  0  0  0  0
    2.0422    0.0067    0.0000 C   0  0  0  0  0  0  0  0  0
    1.3278    0.4192    0.0000 C   0  0  0  0  0  0  0  0  0
    0.6133    0.0067    0.0000 I   0  0  0  0  0  0  0  0  0
    3.4712    0.0067    0.0000 C   0  0  0  0  0  0  0  0  0
    3.4712   -0.8183    0.0000 C   0  0  0  0  0  0  0  0  0
    2.7567   -1.2308    0.0000 N   0  0  0  0  0  0  0  0  0
    2.7567   -2.0558    0.0000 C   0  0  0  0  0  0  0  0  0
    3.4712   -2.4683    0.0000 C   0  0  0  0  0  0  0  0  0
    4.1856   -2.0558    0.0000 C   0  0  0  0  0  0  0  0  0
    4.1856   -1.2308    0.0000 C   0  0  0  0  0  0  0  0  0
    4.9001   -0.8183    0.0000 C   0  0  0  0  0  0  0  0  0
    5.6146   -1.2308    0.0000 C   0  0  0  0  0  0  0  0  0
    6.3291   -0.8183    0.0000 O   0  0  0  0  0  0  0  0  0
    5.6146   -2.0558    0.0000 C   0  0  0  0  0  0  0  0  0
    6.3291   -2.4683    0.0000 O   0  0  0  0  0  0  0  0  0
    4.9001   -2.4683    0.0000 C   0  0  0  0  0  0  0  0  0
  1  2  1  0  0  0  0
  2  3  4  0  0  0  0
  2  8  4  0  0  0  0
  3  4  1  0  0  0  0
  3  5  4  0  0  0  0
  5  6  4  0  0  0  0
  6  7  4  0  0  0  0
  6 10  1  0  0  0  0
  7  8  4  0  0  0  0
  8  9  1  0  0  0  0
 10 11  1  0  0  0  0
 11 12  1  0  0  0  0
 11 16  1  0  0  0  0
 12 13  1  0  0  0  0
 13 14  1  0  0  0  0
 14 15  1  0  0  0  0
 15 16  4  0  0  0  0
 15 22  4  0  0  0  0
 16 17  4  0  0  0  0
 17 18  4  0  0  0  0
 18 19  1  0  0  0  0
 18 20  4  0  0  0  0
 20 21  1  0  0  0  0
 20 22  4  0  0  0  0
M  END
>  <Name_Molregno>
201090

>  <Beta-2>
8.82

$$$$
201124
  Marvin  02231216192D 0   1.00000     0.00000     0

 24 26  0  0  1  0  0  0  0  0999 V2000
   -3.7628    2.2189    0.0000 I   0  0  0  0  0  0  0  0  0
   -3.7628    1.3939    0.0000 C   0  0  0  0  0  0  0  0  0
   -3.0483    0.9814    0.0000 C   0  0  0  0  0  0  0  0  0
   -3.0483    0.1564    0.0000 C   0  0  0  0  0  0  0  0  0
   -3.7628   -0.2561    0.0000 C   0  0  0  0  0  0  0  0  0
   -4.4772    0.1564    0.0000 C   0  0  0  0  0  0  0  0  0
   -4.4772    0.9814    0.0000 C   0  0  0  0  0  0  0  0  0
   -5.1917    1.3939    0.0000 N   0  0  0  0  0  0  0  0  0
   -5.9062    0.9814    0.0000 C   0  0  0  0  0  0  0  0  0
   -6.6206    1.3939    0.0000 O   0  0  0  0  0  0  0  0  0
   -5.9062    0.1564    0.0000 C   0  0  0  0  0  0  0  0  0
   -2.3338   -0.2561    0.0000 C   0  0  0  0  0  0  0  0  0
   -2.3338   -1.0811    0.0000 C   0  0  0  0  0  0  0  0  0
   -3.0483   -1.4936    0.0000 N   0  0  0  0  0  0  0  0  0
   -3.0483   -2.3186    0.0000 C   0  0  0  0  0  0  0  0  0
   -2.3338   -2.7311    0.0000 C   0  0  0  0  0  0  0  0  0
   -1.6193   -2.3186    0.0000 C   0  0  0  0  0  0  0  0  0
   -1.6193   -1.4936    0.0000 C   0  0  0  0  0  0  0  0  0
   -0.9049   -1.0811    0.0000 C   0  0  0  0  0  0  0  0  0
   -0.1904   -1.4936    0.0000 C   0  0  0  0  0  0  0  0  0
    0.5241   -1.0811    0.0000 O   0  0  0  0  0  0  0  0  0
   -0.1904   -2.3186    0.0000 C   0  0  0  0  0  0  0  0  0
    0.5241   -2.7311    0.0000 O   0  0  0  0  0  0  0  0  0
   -0.9049   -2.7311    0.0000 C   0  0  0  0  0  0  0  0  0
  1  2  1  0  0  0  0
  2  3  4  0  0  0  0
  2  7  4  0  0  0  0
  3  4  4  0  0  0  0
  4  5  4  0  0  0  0
  4 12  1  0  0  0  0
  5  6  4  0  0  0  0
  6  7  4  0  0  0  0
  7  8  1  0  0  0  0
  8  9  1  0  0  0  0
  9 10  2  0  0  0  0
  9 11  1  0  0  0  0
 12 13  1  0  0  0  0
 13 14  1  0  0  0  0
 13 18  1  0  0  0  0
 14 15  1  0  0  0  0
 15 16  1  0  0  0  0
 16 17  1  0  0  0  0
 17 18  4  0  0  0  0
 17 24  4  0  0  0  0
 18 19  4  0  0  0  0
 19 20  4  0  0  0  0
 20 21  1  0  0  0  0
 20 22  4  0  0  0  0
 22 23  1  0  0  0  0
 22 24  4  0  0  0  0
M  END
>  <Name_Molregno>
201124

>  <Beta-2>
8.11

$$$$
201125
  Marvin  02231216192D 0   1.00000     0.00000     0

 22 24  0  0  1  0  0  0  0  0999 V2000
    1.8319    2.6096    0.0000 I   0  0  0  0  0  0  0  0  0
    1.8319    1.7846    0.0000 C   0  0  0  0  0  0  0  0  0
    2.5464    1.3721    0.0000 C   0  0  0  0  0  0  0  0  0
    2.5464    0.5471    0.0000 C   0  0  0  0  0  0  0  0  0
    1.8319    0.1346    0.0000 C   0  0  0  0  0  0  0  0  0
    1.1174    0.5471    0.0000 C   0  0  0  0  0  0  0  0  0
    0.4030    0.1346    0.0000 I   0  0  0  0  0  0  0  0  0
    1.1174    1.3721    0.0000 C   0  0  0  0  0  0  0  0  0
    0.4030    1.7846    0.0000 N   0  0  0  0  0  0  0  0  0
    3.2609    0.1346    0.0000 C   0  0  0  0  0  0  0  0  0
    3.2609   -0.6904    0.0000 C   0  0  0  0  0  0  0  0  0
    2.5464   -1.1029    0.0000 N   0  0  0  0  0  0  0  0  0
    2.5464   -1.9279    0.0000 C   0  0  0  0  0  0  0  0  0
    3.2609   -2.3404    0.0000 C   0  0  0  0  0  0  0  0  0
    3.9753   -1.9279    0.0000 C   0  0  0  0  0  0  0  0  0
    3.9753   -1.1029    0.0000 C   0  0  0  0  0  0  0  0  0
    4.6898   -0.6904    0.0000 C   0  0  0  0  0  0  0  0  0
    5.4043   -1.1029    0.0000 C   0  0  0  0  0  0  0  0  0
    6.1187   -0.6904    0.0000 O   0  0  0  0  0  0  0  0  0
    5.4043   -1.9279    0.0000 C   0  0  0  0  0  0  0  0  0
    6.1187   -2.3404    0.0000 O   0  0  0  0  0  0  0  0  0
    4.6898   -2.3404    0.0000 C   0  0  0  0  0  0  0  0  0
  1  2  1  0  0  0  0
  2  3  4  0  0  0  0
  2  8  4  0  0  0  0
  3  4  4  0  0  0  0
  4  5  4  0  0  0  0
  4 10  1  0  0  0  0
  5  6  4  0  0  0  0
  6  7  1  0  0  0  0
  6  8  4  0  0  0  0
  8  9  1  0  0  0  0
 10 11  1  0  0  0  0
 11 12  1  0  0  0  0
 11 16  1  0  0  0  0
 12 13  1  0  0  0  0
 13 14  1  0  0  0  0
 14 15  1  0  0  0  0
 15 16  4  0  0  0  0
 15 22  4  0  0  0  0
 16 17  4  0  0  0  0
 17 18  4  0  0  0  0
 18 19  1  0  0  0  0
 18 20  4  0  0  0  0
 20 21  1  0  0  0  0
 20 22  4  0  0  0  0
M  END
>  <Name_Molregno>
201125

>  <Beta-2>
8.81

$$$$
201784
  Marvin  02231216192D 0   1.00000     0.00000     0

 29 32  0  0  1  0  0  0  0  0999 V2000
   -1.4309    1.1704    0.0000 I   0  0  0  0  0  0  0  0  0
   -1.4309    0.3454    0.0000 C   0  0  0  0  0  0  0  0  0
   -0.7165   -0.0671    0.0000 C   0  0  0  0  0  0  0  0  0
   -0.7165   -0.8921    0.0000 C   0  0  0  0  0  0  0  0  0
   -1.4309   -1.3046    0.0000 C   0  0  0  0  0  0  0  0  0
   -2.1454   -0.8921    0.0000 C   0  0  0  0  0  0  0  0  0
   -2.1454   -0.0671    0.0000 C   0  0  0  0  0  0  0  0  0
   -2.8599    0.3454    0.0000 N   0  0  0  0  0  0  0  0  0
   -3.5744   -0.0671    0.0000 C   0  0  0  0  0  0  0  0  0
   -3.5744   -0.8921    0.0000 O   0  0  0  0  0  0  0  0  0
   -4.2888    0.3454    0.0000 C   0  0  0  0  0  0  0  0  0
   -5.0033   -0.0671    0.0000 C   0  0  0  0  0  0  0  0  0
   -5.7178    0.3454    0.0000 C   0  0  0  0  0  0  0  0  0
   -5.7178    1.1704    0.0000 C   0  0  0  0  0  0  0  0  0
   -5.0033    1.5829    0.0000 C   0  0  0  0  0  0  0  0  0
   -4.2888    1.1704    0.0000 C   0  0  0  0  0  0  0  0  0
   -0.0020   -1.3046    0.0000 C   0  0  0  0  0  0  0  0  0
   -0.0020   -2.1296    0.0000 C   0  0  0  0  0  0  0  0  0
   -0.7165   -2.5421    0.0000 N   0  0  0  0  0  0  0  0  0
   -0.7165   -3.3671    0.0000 C   0  0  0  0  0  0  0  0  0
   -0.0020   -3.7796    0.0000 C   0  0  0  0  0  0  0  0  0
    0.7125   -3.3671    0.0000 C   0  0  0  0  0  0  0  0  0
    0.7125   -2.5421    0.0000 C   0  0  0  0  0  0  0  0  0
    1.4269   -2.1296    0.0000 C   0  0  0  0  0  0  0  0  0
    2.1414   -2.5421    0.0000 C   0  0  0  0  0  0  0  0  0
    2.8559   -2.1296    0.0000 O   0  0  0  0  0  0  0  0  0
    2.1414   -3.3671    0.0000 C   0  0  0  0  0  0  0  0  0
    2.8559   -3.7796    0.0000 O   0  0  0  0  0  0  0  0  0
    1.4269   -3.7796    0.0000 C   0  0  0  0  0  0  0  0  0
  1  2  1  0  0  0  0
  2  3  4  0  0  0  0
  2  7  4  0  0  0  0
  3  4  4  0  0  0  0
  4  5  4  0  0  0  0
  4 17  1  0  0  0  0
  5  6  4  0  0  0  0
  6  7  4  0  0  0  0
  7  8  1  0  0  0  0
  8  9  1  0  0  0  0
  9 10  2  0  0  0  0
  9 11  1  0  0  0  0
 11 12  4  0  0  0  0
 11 16  4  0  0  0  0
 12 13  4  0  0  0  0
 13 14  4  0  0  0  0
 14 15  4  0  0  0  0
 15 16  4  0  0  0  0
 17 18  1  0  0  0  0
 18 19  1  0  0  0  0
 18 23  1  0  0  0  0
 19 20  1  0  0  0  0
 20 21  1  0  0  0  0
 21 22  1  0  0  0  0
 22 23  4  0  0  0  0
 22 29  4  0  0  0  0
 23 24  4  0  0  0  0
 24 25  4  0  0  0  0
 25 26  1  0  0  0  0
 25 27  4  0  0  0  0
 27 28  1  0  0  0  0
 27 29  4  0  0  0  0
M  END
>  <Name_Molregno>
201784

>  <Beta-2>
8.7

$$$$
201785
  Marvin  02231216192D 0   1.00000     0.00000     0

 27 29  0  0  1  0  0  0  0  0999 V2000
   -1.4113    5.3728    0.0000 F   0  0  0  0  0  0  0  0  0
   -1.4113    4.5478    0.0000 C   0  0  0  0  0  0  0  0  0
   -2.2363    4.5478    0.0000 F   0  0  0  0  0  0  0  0  0
   -0.5863    4.5478    0.0000 F   0  0  0  0  0  0  0  0  0
   -1.4113    3.7228    0.0000 C   0  0  0  0  0  0  0  0  0
   -0.6968    3.3103    0.0000 C   0  0  0  0  0  0  0  0  0
   -0.6968    2.4853    0.0000 C   0  0  0  0  0  0  0  0  0
   -1.4113    2.0728    0.0000 C   0  0  0  0  0  0  0  0  0
   -2.1258    2.4853    0.0000 C   0  0  0  0  0  0  0  0  0
   -2.1258    3.3103    0.0000 C   0  0  0  0  0  0  0  0  0
   -2.8402    2.0728    0.0000 C   0  0  0  0  0  0  0  0  0
   -3.5547    1.6603    0.0000 F   0  0  0  0  0  0  0  0  0
   -3.2527    2.7873    0.0000 F   0  0  0  0  0  0  0  0  0
   -2.4277    1.3583    0.0000 F   0  0  0  0  0  0  0  0  0
    0.0177    2.0728    0.0000 C   0  0  0  0  0  0  0  0  0
    0.0177    1.2478    0.0000 C   0  0  0  0  0  0  0  0  0
   -0.6968    0.8353    0.0000 N   0  0  0  0  0  0  0  0  0
   -0.6968    0.0103    0.0000 C   0  0  0  0  0  0  0  0  0
    0.0177   -0.4022    0.0000 C   0  0  0  0  0  0  0  0  0
    0.7321    0.0103    0.0000 C   0  0  0  0  0  0  0  0  0
    0.7321    0.8353    0.0000 C   0  0  0  0  0  0  0  0  0
    1.4466    1.2478    0.0000 C   0  0  0  0  0  0  0  0  0
    2.1611    0.8353    0.0000 C   0  0  0  0  0  0  0  0  0
    2.8755    1.2478    0.0000 O   0  0  0  0  0  0  0  0  0
    2.1611    0.0103    0.0000 C   0  0  0  0  0  0  0  0  0
    2.8755   -0.4022    0.0000 O   0  0  0  0  0  0  0  0  0
    1.4466   -0.4022    0.0000 C   0  0  0  0  0  0  0  0  0
  1  2  1  0  0  0  0
  2  3  1  0  0  0  0
  2  4  1  0  0  0  0
  2  5  1  0  0  0  0
  5  6  4  0  0  0  0
  5 10  4  0  0  0  0
  6  7  4  0  0  0  0
  7  8  4  0  0  0  0
  7 15  1  0  0  0  0
  8  9  4  0  0  0  0
  9 10  4  0  0  0  0
  9 11  1  0  0  0  0
 11 12  1  0  0  0  0
 11 13  1  0  0  0  0
 11 14  1  0  0  0  0
 15 16  1  0  0  0  0
 16 17  1  0  0  0  0
 16 21  1  0  0  0  0
 17 18  1  0  0  0  0
 18 19  1  0  0  0  0
 19 20  1  0  0  0  0
 20 21  4  0  0  0  0
 20 27  4  0  0  0  0
 21 22  4  0  0  0  0
 22 23  4  0  0  0  0
 23 24  1  0  0  0  0
 23 25  4  0  0  0  0
 25 26  1  0  0  0  0
 25 27  4  0  0  0  0
M  END
>  <Name_Molregno>
201785

>  <Beta-2>
5.36

$$$$
201803
  Marvin  02231216192D 0   1.00000     0.00000     0

 21 23  0  0  1  0  0  0  0  0999 V2000
    1.7834    2.7110    0.0000 I   0  0  0  0  0  0  0  0  0
    1.7834    1.8860    0.0000 C   0  0  0  0  0  0  0  0  0
    2.4979    1.4735    0.0000 C   0  0  0  0  0  0  0  0  0
    2.4979    0.6485    0.0000 C   0  0  0  0  0  0  0  0  0
    1.7834    0.2360    0.0000 C   0  0  0  0  0  0  0  0  0
    1.0690    0.6485    0.0000 C   0  0  0  0  0  0  0  0  0
    1.0690    1.4735    0.0000 C   0  0  0  0  0  0  0  0  0
    0.3545    1.8860    0.0000 N   0  0  0  0  0  0  0  0  0
    3.2124    0.2360    0.0000 C   0  0  0  0  0  0  0  0  0
    3.2124   -0.5890    0.0000 C   0  0  0  0  0  0  0  0  0
    2.4979   -1.0015    0.0000 N   0  0  0  0  0  0  0  0  0
    2.4979   -1.8265    0.0000 C   0  0  0  0  0  0  0  0  0
    3.2124   -2.2390    0.0000 C   0  0  0  0  0  0  0  0  0
    3.9268   -1.8265    0.0000 C   0  0  0  0  0  0  0  0  0
    3.9268   -1.0015    0.0000 C   0  0  0  0  0  0  0  0  0
    4.6413   -0.5890    0.0000 C   0  0  0  0  0  0  0  0  0
    5.3558   -1.0015    0.0000 C   0  0  0  0  0  0  0  0  0
    6.0703   -0.5890    0.0000 O   0  0  0  0  0  0  0  0  0
    5.3558   -1.8265    0.0000 C   0  0  0  0  0  0  0  0  0
    6.0703   -2.2390    0.0000 O   0  0  0  0  0  0  0  0  0
    4.6413   -2.2390    0.0000 C   0  0  0  0  0  0  0  0  0
  1  2  1  0  0  0  0
  2  3  4  0  0  0  0
  2  7  4  0  0  0  0
  3  4  4  0  0  0  0
  4  5  4  0  0  0  0
  4  9  1  0  0  0  0
  5  6  4  0  0  0  0
  6  7  4  0  0  0  0
  7  8  1  0  0  0  0
  9 10  1  0  0  0  0
 10 11  1  0  0  0  0
 10 15  1  0  0  0  0
 11 12  1  0  0  0  0
 12 13  1  0  0  0  0
 13 14  1  0  0  0  0
 14 15  4  0  0  0  0
 14 21  4  0  0  0  0
 15 16  4  0  0  0  0
 16 17  4  0  0  0  0
 17 18  1  0  0  0  0
 17 19  4  0  0  0  0
 19 20  1  0  0  0  0
 19 21  4  0  0  0  0
M  END
>  <Name_Molregno>
201803

>  <Beta-2>
8.19

$$$$
201804
  Marvin  02231216192D 0   1.00000     0.00000     0

 25 27  0  0  1  0  0  0  0  0999 V2000
    1.7858    2.3301    0.0000 I   0  0  0  0  0  0  0  0  0
    1.7858    1.5051    0.0000 C   0  0  0  0  0  0  0  0  0
    2.5002    1.0926    0.0000 C   0  0  0  0  0  0  0  0  0
    2.5002    0.2676    0.0000 C   0  0  0  0  0  0  0  0  0
    1.7858   -0.1449    0.0000 C   0  0  0  0  0  0  0  0  0
    1.0713    0.2676    0.0000 C   0  0  0  0  0  0  0  0  0
    0.3568   -0.1449    0.0000 I   0  0  0  0  0  0  0  0  0
    1.0713    1.0926    0.0000 C   0  0  0  0  0  0  0  0  0
    0.3568    1.5051    0.0000 N   0  0  0  0  0  0  0  0  0
   -0.3576    1.0926    0.0000 C   0  0  0  0  0  0  0  0  0
   -1.0721    1.5051    0.0000 O   0  0  0  0  0  0  0  0  0
   -0.3576    0.2676    0.0000 C   0  0  0  0  0  0  0  0  0
    3.2147   -0.1449    0.0000 C   0  0  0  0  0  0  0  0  0
    3.2147   -0.9699    0.0000 C   0  0  0  0  0  0  0  0  0
    2.5002   -1.3824    0.0000 N   0  0  0  0  0  0  0  0  0
    2.5002   -2.2074    0.0000 C   0  0  0  0  0  0  0  0  0
    3.2147   -2.6199    0.0000 C   0  0  0  0  0  0  0  0  0
    3.9292   -2.2074    0.0000 C   0  0  0  0  0  0  0  0  0
    3.9292   -1.3824    0.0000 C   0  0  0  0  0  0  0  0  0
    4.6436   -0.9699    0.0000 C   0  0  0  0  0  0  0  0  0
    5.3581   -1.3824    0.0000 C   0  0  0  0  0  0  0  0  0
    6.0726   -0.9699    0.0000 O   0  0  0  0  0  0  0  0  0
    5.3581   -2.2074    0.0000 C   0  0  0  0  0  0  0  0  0
    6.0726   -2.6199    0.0000 O   0  0  0  0  0  0  0  0  0
    4.6436   -2.6199    0.0000 C   0  0  0  0  0  0  0  0  0
  1  2  1  0  0  0  0
  2  3  4  0  0  0  0
  2  8  4  0  0  0  0
  3  4  4  0  0  0  0
  4  5  4  0  0  0  0
  4 13  1  0  0  0  0
  5  6  4  0  0  0  0
  6  7  1  0  0  0  0
  6  8  4  0  0  0  0
  8  9  1  0  0  0  0
  9 10  1  0  0  0  0
 10 11  2  0  0  0  0
 10 12  1  0  0  0  0
 13 14  1  0  0  0  0
 14 15  1  0  0  0  0
 14 19  1  0  0  0  0
 15 16  1  0  0  0  0
 16 17  1  0  0  0  0
 17 18  1  0  0  0  0
 18 19  4  0  0  0  0
 18 25  4  0  0  0  0
 19 20  4  0  0  0  0
 20 21  4  0  0  0  0
 21 22  1  0  0  0  0
 21 23  4  0  0  0  0
 23 24  1  0  0  0  0
 23 25  4  0  0  0  0
M  END
>  <Name_Molregno>
201804

>  <Beta-2>
8.06

$$$$
202302
  Marvin  02231216192D 0   1.00000     0.00000     0

 22 24  0  0  1  0  0  0  0  0999 V2000
    1.8319    2.6096    0.0000 I   0  0  0  0  0  0  0  0  0
    1.8319    1.7846    0.0000 C   0  0  0  0  0  0  0  0  0
    2.5464    1.3721    0.0000 C   0  0  0  0  0  0  0  0  0
    2.5464    0.5471    0.0000 C   0  0  0  0  0  0  0  0  0
    1.8319    0.1346    0.0000 C   0  0  0  0  0  0  0  0  0
    1.1174    0.5471    0.0000 C   0  0  0  0  0  0  0  0  0
    0.4030    0.1346    0.0000 I   0  0  0  0  0  0  0  0  0
    1.1174    1.3721    0.0000 C   0  0  0  0  0  0  0  0  0
    0.4030    1.7846    0.0000 O   0  0  0  0  0  0  0  0  0
    3.2609    0.1346    0.0000 C   0  0  0  0  0  0  0  0  0
    3.2609   -0.6904    0.0000 C   0  0  0  0  0  0  0  0  0
    2.5464   -1.1029    0.0000 N   0  0  0  0  0  0  0  0  0
    2.5464   -1.9279    0.0000 C   0  0  0  0  0  0  0  0  0
    3.2609   -2.3404    0.0000 C   0  0  0  0  0  0  0  0  0
    3.9753   -1.9279    0.0000 C   0  0  0  0  0  0  0  0  0
    3.9753   -1.1029    0.0000 C   0  0  0  0  0  0  0  0  0
    4.6898   -0.6904    0.0000 C   0  0  0  0  0  0  0  0  0
    5.4043   -1.1029    0.0000 C   0  0  0  0  0  0  0  0  0
    6.1187   -0.6904    0.0000 O   0  0  0  0  0  0  0  0  0
    5.4043   -1.9279    0.0000 C   0  0  0  0  0  0  0  0  0
    6.1187   -2.3404    0.0000 O   0  0  0  0  0  0  0  0  0
    4.6898   -2.3404    0.0000 C   0  0  0  0  0  0  0  0  0
  1  2  1  0  0  0  0
  2  3  4  0  0  0  0
  2  8  4  0  0  0  0
  3  4  4  0  0  0  0
  4  5  4  0  0  0  0
  4 10  1  0  0  0  0
  5  6  4  0  0  0  0
  6  7  1  0  0  0  0
  6  8  4  0  0  0  0
  8  9  1  0  0  0  0
 10 11  1  0  0  0  0
 11 12  1  0  0  0  0
 11 16  1  0  0  0  0
 12 13  1  0  0  0  0
 13 14  1  0  0  0  0
 14 15  1  0  0  0  0
 15 16  4  0  0  0  0
 15 22  4  0  0  0  0
 16 17  4  0  0  0  0
 17 18  4  0  0  0  0
 18 19  1  0  0  0  0
 18 20  4  0  0  0  0
 20 21  1  0  0  0  0
 20 22  4  0  0  0  0
M  END
>  <Name_Molregno>
202302

>  <Beta-2>
7.93

$$$$
202347
  Marvin  02231216192D 0   1.00000     0.00000     0

 21 23  0  0  1  0  0  0  0  0999 V2000
    1.8520    2.7801    0.0000 I   0  0  0  0  0  0  0  0  0
    1.8520    1.9551    0.0000 C   0  0  0  0  0  0  0  0  0
    2.5665    1.5426    0.0000 C   0  0  0  0  0  0  0  0  0
    2.5665    0.7176    0.0000 C   0  0  0  0  0  0  0  0  0
    1.8520    0.3051    0.0000 C   0  0  0  0  0  0  0  0  0
    1.1376    0.7176    0.0000 C   0  0  0  0  0  0  0  0  0
    0.4231    0.3051    0.0000 I   0  0  0  0  0  0  0  0  0
    1.1376    1.5426    0.0000 C   0  0  0  0  0  0  0  0  0
    3.2810    0.3051    0.0000 C   0  0  0  0  0  0  0  0  0
    3.2810   -0.5199    0.0000 C   0  0  0  0  0  0  0  0  0
    2.5665   -0.9324    0.0000 N   0  0  0  0  0  0  0  0  0
    2.5665   -1.7574    0.0000 C   0  0  0  0  0  0  0  0  0
    3.2810   -2.1699    0.0000 C   0  0  0  0  0  0  0  0  0
    3.9954   -1.7574    0.0000 C   0  0  0  0  0  0  0  0  0
    3.9954   -0.9324    0.0000 C   0  0  0  0  0  0  0  0  0
    4.7099   -0.5199    0.0000 C   0  0  0  0  0  0  0  0  0
    5.4244   -0.9324    0.0000 C   0  0  0  0  0  0  0  0  0
    6.1389   -0.5199    0.0000 O   0  0  0  0  0  0  0  0  0
    5.4244   -1.7574    0.0000 C   0  0  0  0  0  0  0  0  0
    6.1389   -2.1699    0.0000 O   0  0  0  0  0  0  0  0  0
    4.7099   -2.1699    0.0000 C   0  0  0  0  0  0  0  0  0
  1  2  1  0  0  0  0
  2  3  4  0  0  0  0
  2  8  4  0  0  0  0
  3  4  4  0  0  0  0
  4  5  4  0  0  0  0
  4  9  1  0  0  0  0
  5  6  4  0  0  0  0
  6  7  1  0  0  0  0
  6  8  4  0  0  0  0
  9 10  1  0  0  0  0
 10 11  1  0  0  0  0
 10 15  1  0  0  0  0
 11 12  1  0  0  0  0
 12 13  1  0  0  0  0
 13 14  1  0  0  0  0
 14 15  4  0  0  0  0
 14 21  4  0  0  0  0
 15 16  4  0  0  0  0
 16 17  4  0  0  0  0
 17 18  1  0  0  0  0
 17 19  4  0  0  0  0
 19 20  1  0  0  0  0
 19 21  4  0  0  0  0
M  END
>  <Name_Molregno>
202347

>  <Beta-1>
6.74

>  <Beta-2>
9.52

$$$$
259724
  Marvin  02231216192D 0   1.00000     0.00000     0

 18 20  0  0  1  0  0  0  0  0999 V2000
    0.3094   -0.9505    0.0000 N   0  0  0  0  0  0  0  0  0
    1.0239   -0.5380    0.0000 C   0  0  0  0  0  0  0  0  0
    1.7384   -0.9505    0.0000 C   0  0  0  0  0  0  0  0  0
    2.4528   -0.5380    0.0000 C   0  0  0  0  0  0  0  0  0
    2.4528    0.2870    0.0000 C   0  0  0  0  0  0  0  0  0
    3.1673    0.6995    0.0000 N   0  0  0  0  0  0  0  0  0
    3.8818    0.2870    0.0000 C   0  0  0  0  0  0  0  0  0
    3.8818   -0.5380    0.0000 C   0  0  0  0  0  0  0  0  0
    3.1673   -0.9505    0.0000 C   0  0  0  0  0  0  0  0  0
    3.1673    1.5245    0.0000 C   0  0  0  0  0  0  0  0  0
    3.8818    1.9370    0.0000 C   0  0  0  0  0  0  0  0  0
    3.8818    2.7620    0.0000 C   0  0  0  0  0  0  0  0  0
    1.7384    0.6995    0.0000 C   0  0  0  0  0  0  0  0  0
    1.0239    0.2870    0.0000 C   0  0  0  0  0  0  0  0  0
    0.3094    0.6995    0.0000 C   0  0  0  0  0  0  0  0  0
   -0.4050    0.2870    0.0000 N   0  0  0  0  0  0  0  0  0
   -0.4050   -0.5380    0.0000 C   0  0  0  0  0  0  0  0  0
   -1.1195   -0.9505    0.0000 N   0  0  0  0  0  0  0  0  0
  1  2  4  0  0  0  0
  1 17  4  0  0  0  0
  2  3  1  0  0  0  0
  2 14  4  0  0  0  0
  3  4  1  0  0  0  0
  4  5  1  0  0  0  0
  4  9  1  0  0  0  0
  5  6  1  0  0  0  0
  5 13  1  0  0  0  0
  6  7  1  0  0  0  0
  6 10  1  0  0  0  0
  7  8  1  0  0  0  0
  8  9  1  0  0  0  0
 10 11  1  0  0  0  0
 11 12  1  0  0  0  0
 13 14  1  0  0  0  0
 14 15  4  0  0  0  0
 15 16  4  0  0  0  0
 16 17  4  0  0  0  0
 17 18  1  0  0  0  0
M  END
>  <Name_Molregno>
259724

>  <5-HT1A>
5

>  <5-HT1B>
5

>  <5-HT1D>
5

>  <5-HT2A>
5

>  <5-HT2C>
5.58

>  <Alpha-1A>
5

>  <Alpha-1B>
5

>  <Alpha-2A>
5

>  <Alpha-2B>
5

>  <Alpha-2C>
5

>  <Beta-1>
5

>  <Beta-2>
5

>  <DOPAMINE D1>
5

>  <DOPAMINE D2>
6.33

>  <DOPAMINE D3>
8.65

>  <DOPAMINE D4>
7.72

>  <DOPAMINE D5>
5

$$$$
291817
  Marvin  02231216192D 0   1.00000     0.00000     0

 40 43  0  0  1  0  0  0  0  0999 V2000
    0.0030    0.8004    0.0000 S   0  0  0  0  0  0  0  0  0
   -0.2520    0.0158    0.0000 C   0  0  0  0  0  0  0  0  0
    0.2329   -0.6516    0.0000 C   0  0  0  0  0  0  0  0  0
    1.0534   -0.5654    0.0000 C   0  0  0  0  0  0  0  0  0
    1.3890    0.1883    0.0000 C   0  0  0  0  0  0  0  0  0
    2.2095    0.2745    0.0000 C   0  0  0  0  0  0  0  0  0
    2.6944   -0.3929    0.0000 C   0  0  0  0  0  0  0  0  0
    3.5149   -0.3067    0.0000 N   0  0  0  0  0  0  0  0  0
    3.8504    0.4470    0.0000 C   0  0  0  0  0  0  0  0  0
    4.6709    0.5332    0.0000 C   0  0  0  0  0  0  0  0  0
    5.1558   -0.1342    0.0000 C   0  0  0  0  0  0  0  0  0
    5.9763   -0.0480    0.0000 N   0  0  0  0  0  0  0  0  0
    6.4612   -0.7154    0.0000 C   0  0  0  0  0  0  0  0  0
    7.2817   -0.6292    0.0000 C   0  0  0  0  0  0  0  0  0
    7.6173    0.1245    0.0000 O   0  0  0  0  0  0  0  0  0
    7.7666   -1.2966    0.0000 C   0  0  0  0  0  0  0  0  0
    8.5871   -1.2104    0.0000 C   0  0  0  0  0  0  0  0  0
    9.0720   -1.8778    0.0000 C   0  0  0  0  0  0  0  0  0
    9.8925   -1.7916    0.0000 N   0  0  0  0  0  0  0  0  0
   10.3774   -2.4590    0.0000 S   0  0  0  0  0  0  0  0  0
   10.8624   -3.1265    0.0000 O   0  0  0  0  0  0  0  0  0
   11.0449   -1.9741    0.0000 O   0  0  0  0  0  0  0  0  0
    9.7100   -2.9440    0.0000 C   0  0  0  0  0  0  0  0  0
    8.7365   -2.6315    0.0000 C   0  0  0  0  0  0  0  0  0
    9.2214   -3.2989    0.0000 O   0  0  0  0  0  0  0  0  0
    7.9160   -2.7177    0.0000 C   0  0  0  0  0  0  0  0  0
    7.4311   -2.0503    0.0000 C   0  0  0  0  0  0  0  0  0
    4.8203   -0.8879    0.0000 C   0  0  0  0  0  0  0  0  0
    3.9998   -0.9741    0.0000 C   0  0  0  0  0  0  0  0  0
    2.3588   -1.1466    0.0000 C   0  0  0  0  0  0  0  0  0
    1.5383   -1.2328    0.0000 C   0  0  0  0  0  0  0  0  0
   -1.0770    0.0158    0.0000 C   0  0  0  0  0  0  0  0  0
   -1.5619   -0.6516    0.0000 O   0  0  0  0  0  0  0  0  0
   -1.3319    0.8004    0.0000 N   0  0  0  0  0  0  0  0  0
   -2.1165    1.0554    0.0000 C   0  0  0  0  0  0  0  0  0
   -2.2881    1.8623    0.0000 C   0  0  0  0  0  0  0  0  0
   -3.0727    2.1173    0.0000 O   0  0  0  0  0  0  0  0  0
   -1.6750    2.4144    0.0000 O   0  0  0  0  0  0  0  0  0
   -0.6645    1.2853    0.0000 C   0  0  0  0  0  0  0  0  0
   -0.6645    2.1103    0.0000 O   0  0  0  0  0  0  0  0  0
  1  2  1  0  0  0  0
  1 39  1  0  0  0  0
  2  3  1  0  0  0  0
  2 32  1  0  0  0  0
  3  4  1  0  0  0  0
  4  5  4  0  0  0  0
  4 31  4  0  0  0  0
  5  6  4  0  0  0  0
  6  7  4  0  0  0  0
  7  8  1  0  0  0  0
  7 30  4  0  0  0  0
  8  9  1  0  0  0  0
  8 29  1  0  0  0  0
  9 10  1  0  0  0  0
 10 11  1  0  0  0  0
 11 12  1  0  0  0  0
 11 28  1  0  0  0  0
 12 13  1  0  0  0  0
 13 14  1  0  0  0  0
 14 15  1  0  0  0  0
 14 16  1  0  0  0  0
 16 17  4  0  0  0  0
 16 27  4  0  0  0  0
 17 18  4  0  0  0  0
 18 19  1  0  0  0  0
 18 24  4  0  0  0  0
 19 20  1  0  0  0  0
 20 21  2  0  0  0  0
 20 22  2  0  0  0  0
 20 23  1  0  0  0  0
 24 25  1  0  0  0  0
 24 26  4  0  0  0  0
 26 27  4  0  0  0  0
 28 29  1  0  0  0  0
 30 31  4  0  0  0  0
 32 33  2  0  0  0  0
 32 34  1  0  0  0  0
 34 35  1  0  0  0  0
 34 39  1  0  0  0  0
 35 36  1  0  0  0  0
 36 37  1  0  0  0  0
 36 38  2  0  0  0  0
 39 40  2  0  0  0  0
M  END
>  <Name_Molregno>
291817

>  <Beta-1>
5.04

>  <Beta-2>
5.68

$$$$
294368
  Marvin  02231216192D 0   1.00000     0.00000     0

 41 45  0  0  1  0  0  0  0  0999 V2000
   -1.3562   -3.9724    0.0000 S   0  0  0  0  0  0  0  0  0
   -0.6887   -3.4875    0.0000 C   0  0  0  0  0  0  0  0  0
   -0.6887   -2.6625    0.0000 C   0  0  0  0  0  0  0  0  0
   -1.4032   -2.2500    0.0000 C   0  0  0  0  0  0  0  0  0
   -2.1177   -2.6625    0.0000 C   0  0  0  0  0  0  0  0  0
   -2.8321   -2.2500    0.0000 C   0  0  0  0  0  0  0  0  0
   -2.8321   -1.4250    0.0000 C   0  0  0  0  0  0  0  0  0
   -3.5466   -1.0125    0.0000 N   0  0  0  0  0  0  0  0  0
   -4.2611   -1.4250    0.0000 C   0  0  0  0  0  0  0  0  0
   -4.9756   -1.0125    0.0000 C   0  0  0  0  0  0  0  0  0
   -4.9756   -0.1875    0.0000 C   0  0  0  0  0  0  0  0  0
   -5.6900    0.2250    0.0000 N   0  0  0  0  0  0  0  0  0
   -5.6900    1.0500    0.0000 C   0  0  0  0  0  0  0  0  0
   -6.4045    1.4625    0.0000 C   0  0  0  0  0  0  0  0  0
   -7.1190    1.0500    0.0000 O   0  0  0  0  0  0  0  0  0
   -6.4045    2.2875    0.0000 C   0  0  0  0  0  0  0  0  0
   -7.1190    2.7000    0.0000 O   0  0  0  0  0  0  0  0  0
   -7.1190    3.5250    0.0000 C   0  0  0  0  0  0  0  0  0
   -7.8334    3.9375    0.0000 C   0  0  0  0  0  0  0  0  0
   -8.6181    3.6826    0.0000 N   0  0  0  0  0  0  0  0  0
   -9.1030    4.3500    0.0000 C   0  0  0  0  0  0  0  0  0
   -9.9280    4.3500    0.0000 O   0  0  0  0  0  0  0  0  0
   -8.6181    5.0175    0.0000 N   0  0  0  0  0  0  0  0  0
   -7.8334    4.7625    0.0000 C   0  0  0  0  0  0  0  0  0
   -7.1190    5.1750    0.0000 C   0  0  0  0  0  0  0  0  0
   -6.4045    4.7625    0.0000 C   0  0  0  0  0  0  0  0  0
   -6.4045    3.9375    0.0000 C   0  0  0  0  0  0  0  0  0
   -4.2611    0.2250    0.0000 C   0  0  0  0  0  0  0  0  0
   -3.5466   -0.1875    0.0000 C   0  0  0  0  0  0  0  0  0
   -2.1177   -1.0125    0.0000 C   0  0  0  0  0  0  0  0  0
   -1.4032   -1.4250    0.0000 C   0  0  0  0  0  0  0  0  0
   -0.0213   -3.9724    0.0000 C   0  0  0  0  0  0  0  0  0
    0.7633   -3.7174    0.0000 O   0  0  0  0  0  0  0  0  0
   -0.2762   -4.7570    0.0000 N   0  0  0  0  0  0  0  0  0
   -1.1012   -4.7570    0.0000 C   0  0  0  0  0  0  0  0  0
   -1.5862   -5.4244    0.0000 N   0  0  0  0  0  0  0  0  0
   -1.2506   -6.1781    0.0000 C   0  0  0  0  0  0  0  0  0
   -1.7355   -6.8456    0.0000 N   0  0  0  0  0  0  0  0  0
   -1.4000   -7.5992    0.0000 C   0  0  0  0  0  0  0  0  0
   -2.5560   -6.7593    0.0000 C   0  0  0  0  0  0  0  0  0
   -0.4301   -6.2644    0.0000 N   0  0  0  0  0  0  0  0  0
  1  2  1  0  0  0  0
  1 35  1  0  0  0  0
  2  3  2  0  0  0  0
  2 32  1  0  0  0  0
  3  4  1  0  0  0  0
  4  5  4  0  0  0  0
  4 31  4  0  0  0  0
  5  6  4  0  0  0  0
  6  7  4  0  0  0  0
  7  8  1  0  0  0  0
  7 30  4  0  0  0  0
  8  9  1  0  0  0  0
  8 29  1  0  0  0  0
  9 10  1  0  0  0  0
 10 11  1  0  0  0  0
 11 12  1  0  0  0  0
 11 28  1  0  0  0  0
 12 13  1  0  0  0  0
 13 14  1  0  0  0  0
 14 15  1  0  0  0  0
 14 16  1  0  0  0  0
 16 17  1  0  0  0  0
 17 18  1  0  0  0  0
 18 19  4  0  0  0  0
 18 27  4  0  0  0  0
 19 20  4  0  0  0  0
 19 24  4  0  0  0  0
 20 21  4  0  0  0  0
 21 22  1  0  0  0  0
 21 23  4  0  0  0  0
 23 24  4  0  0  0  0
 24 25  4  0  0  0  0
 25 26  4  0  0  0  0
 26 27  4  0  0  0  0
 28 29  1  0  0  0  0
 30 31  4  0  0  0  0
 32 33  2  0  0  0  0
 32 34  1  0  0  0  0
 34 35  2  0  0  0  0
 35 36  1  0  0  0  0
 36 37  1  0  0  0  0
 37 38  1  0  0  0  0
 37 41  2  0  0  0  0
 38 39  1  0  0  0  0
 38 40  1  0  0  0  0
M  STY  1   1 DAT
M  SAL   1  1  23
M  SDT   1 MRV_IMPLICIT_H                                        
M  SDD   1     0.0000    0.0000    DR    ALL  0       0  
M  SED   1 IMPL_H1
M  END
>  <Name_Molregno>
294368

>  <Beta-1>
8.42

>  <Beta-2>
8.14

$$$$
294752
  Marvin  02231216192D 0   1.00000     0.00000     0

 36 39  0  0  1  0  0  0  0  0999 V2000
  -10.8536    0.7920    0.0000 S   0  0  0  0  0  0  0  0  0
  -11.5681    0.3795    0.0000 O   0  0  0  0  0  0  0  0  0
  -10.4411    0.0776    0.0000 O   0  0  0  0  0  0  0  0  0
  -10.1391    1.2045    0.0000 N   0  0  0  0  0  0  0  0  0
   -9.4247    0.7920    0.0000 C   0  0  0  0  0  0  0  0  0
   -8.7102    1.2045    0.0000 C   0  0  0  0  0  0  0  0  0
   -7.9957    0.7920    0.0000 C   0  0  0  0  0  0  0  0  0
   -7.9957   -0.0330    0.0000 C   0  0  0  0  0  0  0  0  0
   -8.7102   -0.4455    0.0000 C   0  0  0  0  0  0  0  0  0
   -9.4247   -0.0330    0.0000 C   0  0  0  0  0  0  0  0  0
  -10.1391   -0.4455    0.0000 O   0  0  0  0  0  0  0  0  0
   -7.2812    1.2045    0.0000 C   0  0  0  0  0  0  0  0  0
   -7.2812    2.0295    0.0000 O   0  0  0  0  0  0  0  0  0
   -6.5668    0.7920    0.0000 C   0  0  0  0  0  0  0  0  0
   -5.8523    1.2045    0.0000 N   0  0  0  0  0  0  0  0  0
   -5.1378    0.7920    0.0000 C   0  0  0  0  0  0  0  0  0
   -4.4234    1.2045    0.0000 C   0  0  0  0  0  0  0  0  0
   -3.7089    0.7920    0.0000 C   0  0  0  0  0  0  0  0  0
   -3.7089   -0.0330    0.0000 N   0  0  0  0  0  0  0  0  0
   -4.4234   -0.4455    0.0000 C   0  0  0  0  0  0  0  0  0
   -5.1378   -0.0330    0.0000 C   0  0  0  0  0  0  0  0  0
   -2.9944   -0.4455    0.0000 C   0  0  0  0  0  0  0  0  0
   -2.2799   -0.0330    0.0000 C   0  0  0  0  0  0  0  0  0
   -1.5655   -0.4455    0.0000 C   0  0  0  0  0  0  0  0  0
   -1.5655   -1.2705    0.0000 C   0  0  0  0  0  0  0  0  0
   -2.2799   -1.6830    0.0000 C   0  0  0  0  0  0  0  0  0
   -2.9944   -1.2705    0.0000 C   0  0  0  0  0  0  0  0  0
   -0.8510   -1.6830    0.0000 C   0  0  0  0  0  0  0  0  0
   -0.8510   -2.5080    0.0000 N   0  0  0  0  0  0  0  0  0
   -0.1836   -2.9929    0.0000 O   0  0  0  0  0  0  0  0  0
   -0.4385   -3.7775    0.0000 C   0  0  0  0  0  0  0  0  0
    0.0464   -4.4449    0.0000 O   0  0  0  0  0  0  0  0  0
   -1.2635   -3.7775    0.0000 N   0  0  0  0  0  0  0  0  0
   -1.5184   -2.9929    0.0000 C   0  0  0  0  0  0  0  0  0
   -2.3031   -2.7379    0.0000 O   0  0  0  0  0  0  0  0  0
  -11.2661    1.5065    0.0000 C   0  0  0  0  0  0  0  0  0
  1  2  2  0  0  0  0
  1  3  2  0  0  0  0
  1  4  1  0  0  0  0
  1 36  1  0  0  0  0
  4  5  1  0  0  0  0
  5  6  4  0  0  0  0
  5 10  4  0  0  0  0
  6  7  4  0  0  0  0
  7  8  4  0  0  0  0
  7 12  1  0  0  0  0
  8  9  4  0  0  0  0
  9 10  4  0  0  0  0
 10 11  1  0  0  0  0
 12 13  1  0  0  0  0
 12 14  1  0  0  0  0
 14 15  1  0  0  0  0
 15 16  1  0  0  0  0
 16 17  1  0  0  0  0
 16 21  1  0  0  0  0
 17 18  1  0  0  0  0
 18 19  1  0  0  0  0
 19 20  1  0  0  0  0
 19 22  1  0  0  0  0
 20 21  1  0  0  0  0
 22 23  4  0  0  0  0
 22 27  4  0  0  0  0
 23 24  4  0  0  0  0
 24 25  4  0  0  0  0
 25 26  4  0  0  0  0
 25 28  1  0  0  0  0
 26 27  4  0  0  0  0
 28 29  1  0  0  0  0
 29 30  1  0  0  0  0
 29 34  1  0  0  0  0
 30 31  1  0  0  0  0
 31 32  2  0  0  0  0
 31 33  1  0  0  0  0
 33 34  1  0  0  0  0
 34 35  2  0  0  0  0
M  END
>  <Name_Molregno>
294752

>  <Beta-1>
5.02

>  <Beta-2>
4.13

$$$$
303730
  Marvin  02231216192D 0   1.00000     0.00000     0

 30 33  0  0  1  0  0  0  0  0999 V2000
   -9.7438   -0.3452    0.0000 O   0  0  0  0  0  0  0  0  0
   -9.7438    0.4798    0.0000 C   0  0  0  0  0  0  0  0  0
   -9.0294    0.8923    0.0000 C   0  0  0  0  0  0  0  0  0
   -9.0294    1.7173    0.0000 O   0  0  0  0  0  0  0  0  0
   -8.3149    0.4798    0.0000 N   0  0  0  0  0  0  0  0  0
   -8.3149   -0.3452    0.0000 C   0  0  0  0  0  0  0  0  0
   -7.6004   -0.7577    0.0000 C   0  0  0  0  0  0  0  0  0
   -7.6004   -1.5827    0.0000 C   0  0  0  0  0  0  0  0  0
   -6.8859   -1.9952    0.0000 O   0  0  0  0  0  0  0  0  0
   -6.1715   -1.5827    0.0000 C   0  0  0  0  0  0  0  0  0
   -5.4570   -1.9952    0.0000 C   0  0  0  0  0  0  0  0  0
   -4.7425   -1.5827    0.0000 N   0  0  0  0  0  0  0  0  0
   -4.0281   -1.9952    0.0000 C   0  0  0  0  0  0  0  0  0
   -3.3136   -1.5827    0.0000 C   0  0  0  0  0  0  0  0  0
   -3.3136   -0.7577    0.0000 O   0  0  0  0  0  0  0  0  0
   -2.5991   -1.9952    0.0000 C   0  0  0  0  0  0  0  0  0
   -1.8846   -1.5827    0.0000 O   0  0  0  0  0  0  0  0  0
   -1.1702   -1.9952    0.0000 C   0  0  0  0  0  0  0  0  0
   -0.4557   -1.5827    0.0000 C   0  0  0  0  0  0  0  0  0
    0.2588   -1.9952    0.0000 C   0  0  0  0  0  0  0  0  0
    0.8719   -1.4432    0.0000 N   0  0  0  0  0  0  0  0  0
    0.5363   -0.6895    0.0000 C   0  0  0  0  0  0  0  0  0
   -0.2842   -0.7758    0.0000 C   0  0  0  0  0  0  0  0  0
    0.2588   -2.8202    0.0000 C   0  0  0  0  0  0  0  0  0
   -0.4557   -3.2327    0.0000 C   0  0  0  0  0  0  0  0  0
   -1.1702   -2.8202    0.0000 C   0  0  0  0  0  0  0  0  0
   -5.4570   -2.8202    0.0000 C   0  0  0  0  0  0  0  0  0
   -8.3149   -1.9952    0.0000 C   0  0  0  0  0  0  0  0  0
   -9.0294   -1.5827    0.0000 C   0  0  0  0  0  0  0  0  0
   -9.0294   -0.7577    0.0000 C   0  0  0  0  0  0  0  0  0
  1  2  1  0  0  0  0
  1 30  1  0  0  0  0
  2  3  1  0  0  0  0
  3  4  2  0  0  0  0
  3  5  1  0  0  0  0
  5  6  1  0  0  0  0
  6  7  4  0  0  0  0
  6 30  4  0  0  0  0
  7  8  4  0  0  0  0
  8  9  1  0  0  0  0
  8 28  4  0  0  0  0
  9 10  1  0  0  0  0
 10 11  1  0  0  0  0
 11 12  1  0  0  0  0
 11 27  1  0  0  0  0
 12 13  1  0  0  0  0
 13 14  1  0  0  0  0
 14 15  1  0  0  0  0
 14 16  1  0  0  0  0
 16 17  1  0  0  0  0
 17 18  1  0  0  0  0
 18 19  4  0  0  0  0
 18 26  4  0  0  0  0
 19 20  4  0  0  0  0
 19 23  4  0  0  0  0
 20 21  4  0  0  0  0
 20 24  4  0  0  0  0
 21 22  4  0  0  0  0
 22 23  4  0  0  0  0
 24 25  4  0  0  0  0
 25 26  4  0  0  0  0
 28 29  4  0  0  0  0
 29 30  4  0  0  0  0
M  STY  1   1 DAT
M  SAL   1  1  21
M  SDT   1 MRV_IMPLICIT_H                                        
M  SDD   1     0.0000    0.0000    DR    ALL  0       0  
M  SED   1 IMPL_H1
M  END
>  <Name_Molregno>
303730

>  <5-HT1A>
8.7

>  <Beta-2>
8.53

>  <Serotonin transporter>
7.3

$$$$
303760
  Marvin  02231216192D 0   1.00000     0.00000     0

 28 31  0  0  0  0  0  0  0  0999 V2000
   -9.7006    2.1546    0.0000 O   0  0  0  0  0  0  0  0  0
   -9.7006    2.9796    0.0000 C   0  0  0  0  0  0  0  0  0
   -8.9862    3.3921    0.0000 C   0  0  0  0  0  0  0  0  0
   -8.9862    4.2171    0.0000 O   0  0  0  0  0  0  0  0  0
   -8.2717    2.9796    0.0000 N   0  0  0  0  0  0  0  0  0
   -8.2717    2.1546    0.0000 C   0  0  0  0  0  0  0  0  0
   -7.5572    1.7421    0.0000 C   0  0  0  0  0  0  0  0  0
   -7.5572    0.9171    0.0000 C   0  0  0  0  0  0  0  0  0
   -6.8428    0.5046    0.0000 O   0  0  0  0  0  0  0  0  0
   -6.1283    0.9171    0.0000 C   0  0  0  0  0  0  0  0  0
   -5.4138    0.5046    0.0000 C   0  0  0  0  0  0  0  0  0
   -4.6993    0.9171    0.0000 N   0  0  0  0  0  0  0  0  0
   -3.9849    0.5046    0.0000 C   0  0  0  0  0  0  0  0  0
   -3.2704    0.9171    0.0000 C   0  0  0  0  0  0  0  0  0
   -2.5559    0.5046    0.0000 C   0  0  0  0  0  0  0  0  0
   -1.8415    0.9171    0.0000 O   0  0  0  0  0  0  0  0  0
   -1.1270    0.5046    0.0000 C   0  0  0  0  0  0  0  0  0
   -0.4125    0.9171    0.0000 C   0  0  0  0  0  0  0  0  0
    0.3020    0.5046    0.0000 C   0  0  0  0  0  0  0  0  0
    0.9150    1.0566    0.0000 N   0  0  0  0  0  0  0  0  0
    0.5795    1.8103    0.0000 C   0  0  0  0  0  0  0  0  0
   -0.2410    1.7241    0.0000 C   0  0  0  0  0  0  0  0  0
    0.3020   -0.3204    0.0000 C   0  0  0  0  0  0  0  0  0
   -0.4125   -0.7329    0.0000 C   0  0  0  0  0  0  0  0  0
   -1.1270   -0.3204    0.0000 C   0  0  0  0  0  0  0  0  0
   -8.2717    0.5046    0.0000 C   0  0  0  0  0  0  0  0  0
   -8.9862    0.9171    0.0000 C   0  0  0  0  0  0  0  0  0
   -8.9862    1.7421    0.0000 C   0  0  0  0  0  0  0  0  0
  1  2  1  0  0  0  0
  1 28  1  0  0  0  0
  2  3  1  0  0  0  0
  3  4  2  0  0  0  0
  3  5  1  0  0  0  0
  5  6  1  0  0  0  0
  6  7  4  0  0  0  0
  6 28  4  0  0  0  0
  7  8  4  0  0  0  0
  8  9  1  0  0  0  0
  8 26  4  0  0  0  0
  9 10  1  0  0  0  0
 10 11  1  0  0  0  0
 11 12  1  0  0  0  0
 12 13  1  0  0  0  0
 13 14  1  0  0  0  0
 14 15  1  0  0  0  0
 15 16  1  0  0  0  0
 16 17  1  0  0  0  0
 17 18  4  0  0  0  0
 17 25  4  0  0  0  0
 18 19  4  0  0  0  0
 18 22  4  0  0  0  0
 19 20  4  0  0  0  0
 19 23  4  0  0  0  0
 20 21  4  0  0  0  0
 21 22  4  0  0  0  0
 23 24  4  0  0  0  0
 24 25  4  0  0  0  0
 26 27  4  0  0  0  0
 27 28  4  0  0  0  0
M  STY  1   1 DAT
M  SAL   1  1  20
M  SDT   1 MRV_IMPLICIT_H                                        
M  SDD   1     0.0000    0.0000    DR    ALL  0       0  
M  SED   1 IMPL_H1
M  END
>  <Name_Molregno>
303760

>  <5-HT1A>
9.15

>  <Beta-2>
6.15

>  <Serotonin transporter>
8.2

$$$$
303772
  Marvin  02231216192D 0   1.00000     0.00000     0

 32 36  0  0  0  0  0  0  0  0999 V2000
   -6.5979   -4.9561    0.0000 O   0  0  0  0  0  0  0  0  0
   -7.3124   -5.3686    0.0000 C   0  0  0  0  0  0  0  0  0
   -8.0268   -4.9561    0.0000 C   0  0  0  0  0  0  0  0  0
   -8.7413   -5.3686    0.0000 O   0  0  0  0  0  0  0  0  0
   -8.0268   -4.1311    0.0000 N   0  0  0  0  0  0  0  0  0
   -7.3124   -3.7186    0.0000 C   0  0  0  0  0  0  0  0  0
   -7.3124   -2.8936    0.0000 C   0  0  0  0  0  0  0  0  0
   -6.5979   -2.4811    0.0000 C   0  0  0  0  0  0  0  0  0
   -5.8834   -2.8936    0.0000 C   0  0  0  0  0  0  0  0  0
   -5.8834   -3.7186    0.0000 C   0  0  0  0  0  0  0  0  0
   -6.5979   -4.1311    0.0000 C   0  0  0  0  0  0  0  0  0
   -6.5979   -1.6561    0.0000 C   0  0  0  0  0  0  0  0  0
   -5.8834   -1.2436    0.0000 C   0  0  0  0  0  0  0  0  0
   -5.8834   -0.4186    0.0000 C   0  0  0  0  0  0  0  0  0
   -5.1690   -0.0061    0.0000 C   0  0  0  0  0  0  0  0  0
   -4.4545   -0.4186    0.0000 N   0  0  0  0  0  0  0  0  0
   -4.4545   -1.2436    0.0000 C   0  0  0  0  0  0  0  0  0
   -5.1690   -1.6561    0.0000 C   0  0  0  0  0  0  0  0  0
   -3.7400   -0.0061    0.0000 C   0  0  0  0  0  0  0  0  0
   -3.7400    0.8189    0.0000 C   0  0  0  0  0  0  0  0  0
   -3.0255    1.2314    0.0000 O   0  0  0  0  0  0  0  0  0
   -3.0255    2.0564    0.0000 C   0  0  0  0  0  0  0  0  0
   -2.3111    2.4689    0.0000 C   0  0  0  0  0  0  0  0  0
   -2.3111    3.2939    0.0000 C   0  0  0  0  0  0  0  0  0
   -1.5966    3.7064    0.0000 N   0  0  0  0  0  0  0  0  0
   -0.8821    3.2939    0.0000 C   0  0  0  0  0  0  0  0  0
   -0.8821    2.4689    0.0000 C   0  0  0  0  0  0  0  0  0
   -1.5966    2.0564    0.0000 C   0  0  0  0  0  0  0  0  0
   -0.1677    3.7064    0.0000 C   0  0  0  0  0  0  0  0  0
   -3.0255    3.7064    0.0000 C   0  0  0  0  0  0  0  0  0
   -3.7400    3.2939    0.0000 C   0  0  0  0  0  0  0  0  0
   -3.7400    2.4689    0.0000 C   0  0  0  0  0  0  0  0  0
  1  2  1  0  0  0  0
  1 11  1  0  0  0  0
  2  3  1  0  0  0  0
  3  4  2  0  0  0  0
  3  5  1  0  0  0  0
  5  6  1  0  0  0  0
  6  7  4  0  0  0  0
  6 11  4  0  0  0  0
  7  8  4  0  0  0  0
  8  9  4  0  0  0  0
  8 12  1  0  0  0  0
  9 10  4  0  0  0  0
 10 11  4  0  0  0  0
 12 13  1  0  0  0  0
 13 14  1  0  0  0  0
 13 18  1  0  0  0  0
 14 15  1  0  0  0  0
 15 16  1  0  0  0  0
 16 17  1  0  0  0  0
 16 19  1  0  0  0  0
 17 18  1  0  0  0  0
 19 20  1  0  0  0  0
 20 21  1  0  0  0  0
 21 22  1  0  0  0  0
 22 23  4  0  0  0  0
 22 32  4  0  0  0  0
 23 24  4  0  0  0  0
 23 28  4  0  0  0  0
 24 25  4  0  0  0  0
 24 30  4  0  0  0  0
 25 26  4  0  0  0  0
 26 27  4  0  0  0  0
 26 29  1  0  0  0  0
 27 28  4  0  0  0  0
 30 31  4  0  0  0  0
 31 32  4  0  0  0  0
M  END
>  <Name_Molregno>
303772

>  <5-HT1A>
8.92

>  <5-HT1B>
8

>  <5-HT1D>
8.8

>  <5-HT2A>
5.5

>  <5-HT2C>
5.1

>  <5-HT6>
5

>  <5-HT7>
6.7

>  <Beta-2>
6

>  <DOPAMINE D2>
5.9

>  <DOPAMINE D3>
6.2

>  <Serotonin transporter>
7.1

$$$$
308123
  Marvin  02231216192D 0   1.00000     0.00000     0

 29 30  0  0  1  0  0  0  0  0999 V2000
    1.2020    1.9563    0.0000 O   0  0  0  0  0  0  0  0  0
    1.2020    1.1313    0.0000 C   0  0  0  0  0  0  0  0  0
    1.9165    0.7188    0.0000 C   0  0  0  0  0  0  0  0  0
    1.9165   -0.1062    0.0000 C   0  0  0  0  0  0  0  0  0
    1.2020   -0.5187    0.0000 C   0  0  0  0  0  0  0  0  0
    0.4876   -0.1062    0.0000 C   0  0  0  0  0  0  0  0  0
    0.4876    0.7188    0.0000 C   0  0  0  0  0  0  0  0  0
   -0.2269    1.1313    0.0000 O   0  0  0  0  0  0  0  0  0
    2.6310   -0.5187    0.0000 C   0  0  0  0  0  0  0  0  0
    2.6310   -1.3437    0.0000 O   0  0  0  0  0  0  0  0  0
    3.3454   -0.1062    0.0000 C   0  0  0  0  0  0  0  0  0
    4.0599   -0.5187    0.0000 N   0  0  0  0  0  0  0  0  0
    4.7744   -0.1062    0.0000 C   0  0  0  0  0  0  0  0  0
    5.4889   -0.5187    0.0000 C   0  0  0  0  0  0  0  0  0
    6.2033   -0.1062    0.0000 C   0  0  0  0  0  0  0  0  0
    6.9178   -0.5187    0.0000 C   0  0  0  0  0  0  0  0  0
    7.6323   -0.1062    0.0000 C   0  0  0  0  0  0  0  0  0
    8.3467   -0.5187    0.0000 C   0  0  0  0  0  0  0  0  0
    9.0612   -0.1062    0.0000 O   0  0  0  0  0  0  0  0  0
    9.7757   -0.5187    0.0000 C   0  0  0  0  0  0  0  0  0
   10.4902   -0.1062    0.0000 C   0  0  0  0  0  0  0  0  0
   11.2046   -0.5187    0.0000 C   0  0  0  0  0  0  0  0  0
   11.9191   -0.1062    0.0000 C   0  0  0  0  0  0  0  0  0
   12.6336   -0.5187    0.0000 C   0  0  0  0  0  0  0  0  0
   13.3480   -0.1062    0.0000 C   0  0  0  0  0  0  0  0  0
   14.0625   -0.5187    0.0000 C   0  0  0  0  0  0  0  0  0
   14.0625   -1.3437    0.0000 C   0  0  0  0  0  0  0  0  0
   13.3480   -1.7562    0.0000 C   0  0  0  0  0  0  0  0  0
   12.6336   -1.3437    0.0000 C   0  0  0  0  0  0  0  0  0
  1  2  1  0  0  0  0
  2  3  4  0  0  0  0
  2  7  4  0  0  0  0
  3  4  4  0  0  0  0
  4  5  4  0  0  0  0
  4  9  1  0  0  0  0
  5  6  4  0  0  0  0
  6  7  4  0  0  0  0
  7  8  1  0  0  0  0
  9 10  1  0  0  0  0
  9 11  1  0  0  0  0
 11 12  1  0  0  0  0
 12 13  1  0  0  0  0
 13 14  1  0  0  0  0
 14 15  1  0  0  0  0
 15 16  1  0  0  0  0
 16 17  1  0  0  0  0
 17 18  1  0  0  0  0
 18 19  1  0  0  0  0
 19 20  1  0  0  0  0
 20 21  1  0  0  0  0
 21 22  1  0  0  0  0
 22 23  1  0  0  0  0
 23 24  1  0  0  0  0
 24 25  4  0  0  0  0
 24 29  4  0  0  0  0
 25 26  4  0  0  0  0
 26 27  4  0  0  0  0
 27 28  4  0  0  0  0
 28 29  4  0  0  0  0
M  END
>  <Name_Molregno>
308123

>  <Beta-2>
9

$$$$
308131
  Marvin  02231216192D 0   1.00000     0.00000     0

 29 31  0  0  1  0  0  0  0  0999 V2000
   -0.1374    0.0370    0.0000 O   0  0  0  0  0  0  0  0  0
    0.5771    0.4495    0.0000 C   0  0  0  0  0  0  0  0  0
    0.5771    1.2745    0.0000 C   0  0  0  0  0  0  0  0  0
    1.2916    1.6870    0.0000 C   0  0  0  0  0  0  0  0  0
    2.0060    1.2745    0.0000 C   0  0  0  0  0  0  0  0  0
    2.0060    0.4495    0.0000 C   0  0  0  0  0  0  0  0  0
    1.2916    0.0370    0.0000 C   0  0  0  0  0  0  0  0  0
    2.7205    1.6870    0.0000 C   0  0  0  0  0  0  0  0  0
    3.4350    1.2745    0.0000 C   0  0  0  0  0  0  0  0  0
    4.1494    1.6870    0.0000 N   0  0  0  0  0  0  0  0  0
    4.8639    1.2745    0.0000 C   0  0  0  0  0  0  0  0  0
    5.5784    1.6870    0.0000 C   0  0  0  0  0  0  0  0  0
    5.5784    2.5120    0.0000 O   0  0  0  0  0  0  0  0  0
    6.2929    1.2745    0.0000 C   0  0  0  0  0  0  0  0  0
    7.0073    1.6870    0.0000 C   0  0  0  0  0  0  0  0  0
    7.7218    1.2745    0.0000 C   0  0  0  0  0  0  0  0  0
    8.4363    1.6870    0.0000 N   0  0  0  0  0  0  0  0  0
    9.1507    1.2745    0.0000 C   0  0  0  0  0  0  0  0  0
    9.8652    1.6870    0.0000 O   0  0  0  0  0  0  0  0  0
    7.7218    0.4495    0.0000 C   0  0  0  0  0  0  0  0  0
    8.4363    0.0370    0.0000 O   0  0  0  0  0  0  0  0  0
    7.0073    0.0370    0.0000 C   0  0  0  0  0  0  0  0  0
    6.2929    0.4495    0.0000 C   0  0  0  0  0  0  0  0  0
   -0.8519    0.4495    0.0000 C   0  0  0  0  0  0  0  0  0
   -1.5663    0.0370    0.0000 C   0  0  0  0  0  0  0  0  0
   -2.2808    0.4495    0.0000 C   0  0  0  0  0  0  0  0  0
   -2.2808    1.2745    0.0000 C   0  0  0  0  0  0  0  0  0
   -1.5663    1.6870    0.0000 C   0  0  0  0  0  0  0  0  0
   -0.8519    1.2745    0.0000 C   0  0  0  0  0  0  0  0  0
  1  2  1  0  0  0  0
  1 24  1  0  0  0  0
  2  3  4  0  0  0  0
  2  7  4  0  0  0  0
  3  4  4  0  0  0  0
  4  5  4  0  0  0  0
  5  6  4  0  0  0  0
  5  8  1  0  0  0  0
  6  7  4  0  0  0  0
  8  9  1  0  0  0  0
  9 10  1  0  0  0  0
 10 11  1  0  0  0  0
 11 12  1  0  0  0  0
 12 13  1  0  0  0  0
 12 14  1  0  0  0  0
 14 15  4  0  0  0  0
 14 23  4  0  0  0  0
 15 16  4  0  0  0  0
 16 17  1  0  0  0  0
 16 20  4  0  0  0  0
 17 18  1  0  0  0  0
 18 19  2  0  0  0  0
 20 21  1  0  0  0  0
 20 22  4  0  0  0  0
 22 23  4  0  0  0  0
 24 25  4  0  0  0  0
 24 29  4  0  0  0  0
 25 26  4  0  0  0  0
 26 27  4  0  0  0  0
 27 28  4  0  0  0  0
 28 29  4  0  0  0  0
M  END
>  <Name_Molregno>
308131

>  <Beta-2>
7.45

$$$$
308135
  Marvin  02231216192D 0   1.00000     0.00000     0

 33 35  0  0  1  0  0  0  0  0999 V2000
    0.1792   -1.6513    0.0000 O   0  0  0  0  0  0  0  0  0
   -0.5353   -1.2388    0.0000 C   0  0  0  0  0  0  0  0  0
   -0.5353   -0.4138    0.0000 C   0  0  0  0  0  0  0  0  0
   -1.2498   -0.0013    0.0000 C   0  0  0  0  0  0  0  0  0
   -1.2498    0.8237    0.0000 C   0  0  0  0  0  0  0  0  0
   -1.9642    1.2362    0.0000 C   0  0  0  0  0  0  0  0  0
   -2.6787    0.8237    0.0000 C   0  0  0  0  0  0  0  0  0
   -3.3932    1.2362    0.0000 C   0  0  0  0  0  0  0  0  0
   -3.3932    2.0612    0.0000 C   0  0  0  0  0  0  0  0  0
   -2.6787    2.4737    0.0000 C   0  0  0  0  0  0  0  0  0
   -1.9642    2.0612    0.0000 C   0  0  0  0  0  0  0  0  0
    0.8937   -1.2388    0.0000 C   0  0  0  0  0  0  0  0  0
    0.8937   -0.4138    0.0000 C   0  0  0  0  0  0  0  0  0
    1.6081   -0.0013    0.0000 C   0  0  0  0  0  0  0  0  0
    2.3226   -0.4138    0.0000 C   0  0  0  0  0  0  0  0  0
    2.3226   -1.2388    0.0000 C   0  0  0  0  0  0  0  0  0
    1.6081   -1.6513    0.0000 C   0  0  0  0  0  0  0  0  0
    3.0371   -0.0013    0.0000 C   0  0  0  0  0  0  0  0  0
    3.7515   -0.4138    0.0000 C   0  0  0  0  0  0  0  0  0
    4.4660   -0.0013    0.0000 N   0  0  0  0  0  0  0  0  0
    5.1805   -0.4138    0.0000 C   0  0  0  0  0  0  0  0  0
    5.8950   -0.0013    0.0000 C   0  0  0  0  0  0  0  0  0
    5.8950    0.8237    0.0000 O   0  0  0  0  0  0  0  0  0
    6.6094   -0.4138    0.0000 C   0  0  0  0  0  0  0  0  0
    7.3239   -0.0013    0.0000 C   0  0  0  0  0  0  0  0  0
    8.0384   -0.4138    0.0000 C   0  0  0  0  0  0  0  0  0
    8.7528   -0.0013    0.0000 N   0  0  0  0  0  0  0  0  0
    9.4673   -0.4138    0.0000 C   0  0  0  0  0  0  0  0  0
   10.1818   -0.0013    0.0000 O   0  0  0  0  0  0  0  0  0
    8.0384   -1.2388    0.0000 C   0  0  0  0  0  0  0  0  0
    8.7528   -1.6513    0.0000 O   0  0  0  0  0  0  0  0  0
    7.3239   -1.6513    0.0000 C   0  0  0  0  0  0  0  0  0
    6.6094   -1.2388    0.0000 C   0  0  0  0  0  0  0  0  0
  1  2  1  0  0  0  0
  1 12  1  0  0  0  0
  2  3  1  0  0  0  0
  3  4  1  0  0  0  0
  4  5  1  0  0  0  0
  5  6  1  0  0  0  0
  6  7  4  0  0  0  0
  6 11  4  0  0  0  0
  7  8  4  0  0  0  0
  8  9  4  0  0  0  0
  9 10  4  0  0  0  0
 10 11  4  0  0  0  0
 12 13  4  0  0  0  0
 12 17  4  0  0  0  0
 13 14  4  0  0  0  0
 14 15  4  0  0  0  0
 15 16  4  0  0  0  0
 15 18  1  0  0  0  0
 16 17  4  0  0  0  0
 18 19  1  0  0  0  0
 19 20  1  0  0  0  0
 20 21  1  0  0  0  0
 21 22  1  0  0  0  0
 22 23  1  0  0  0  0
 22 24  1  0  0  0  0
 24 25  4  0  0  0  0
 24 33  4  0  0  0  0
 25 26  4  0  0  0  0
 26 27  1  0  0  0  0
 26 30  4  0  0  0  0
 27 28  1  0  0  0  0
 28 29  2  0  0  0  0
 30 31  1  0  0  0  0
 30 32  4  0  0  0  0
 32 33  4  0  0  0  0
M  END
>  <Name_Molregno>
308135

>  <Beta-2>
8.04

$$$$
308190
  Marvin  02231216192D 0   1.00000     0.00000     0

 32 34  0  0  1  0  0  0  0  0999 V2000
   -5.8181   -0.8728    0.0000 O   0  0  0  0  0  0  0  0  0
   -5.8181   -1.6978    0.0000 C   0  0  0  0  0  0  0  0  0
   -6.5326   -2.1103    0.0000 C   0  0  0  0  0  0  0  0  0
   -6.5326   -2.9353    0.0000 C   0  0  0  0  0  0  0  0  0
   -7.2471   -3.3478    0.0000 C   0  0  0  0  0  0  0  0  0
   -7.2471   -4.1728    0.0000 C   0  0  0  0  0  0  0  0  0
   -7.9615   -4.5853    0.0000 C   0  0  0  0  0  0  0  0  0
   -8.6760   -4.1728    0.0000 C   0  0  0  0  0  0  0  0  0
   -8.6760   -3.3478    0.0000 C   0  0  0  0  0  0  0  0  0
   -7.9615   -2.9353    0.0000 C   0  0  0  0  0  0  0  0  0
   -5.1036   -0.4603    0.0000 C   0  0  0  0  0  0  0  0  0
   -5.1036    0.3647    0.0000 C   0  0  0  0  0  0  0  0  0
   -4.3892    0.7772    0.0000 C   0  0  0  0  0  0  0  0  0
   -3.6747    0.3647    0.0000 C   0  0  0  0  0  0  0  0  0
   -3.6747   -0.4603    0.0000 C   0  0  0  0  0  0  0  0  0
   -4.3892   -0.8728    0.0000 C   0  0  0  0  0  0  0  0  0
   -2.9602    0.7772    0.0000 C   0  0  0  0  0  0  0  0  0
   -2.2458    0.3647    0.0000 C   0  0  0  0  0  0  0  0  0
   -1.5313    0.7772    0.0000 N   0  0  0  0  0  0  0  0  0
   -0.8168    0.3647    0.0000 C   0  0  0  0  0  0  0  0  0
   -0.1024    0.7772    0.0000 C   0  0  0  0  0  0  0  0  0
   -0.1024    1.6022    0.0000 O   0  0  0  0  0  0  0  0  0
    0.6121    0.3647    0.0000 C   0  0  0  0  0  0  0  0  0
    1.3266    0.7772    0.0000 C   0  0  0  0  0  0  0  0  0
    2.0411    0.3647    0.0000 C   0  0  0  0  0  0  0  0  0
    2.7555    0.7772    0.0000 N   0  0  0  0  0  0  0  0  0
    3.4700    0.3647    0.0000 C   0  0  0  0  0  0  0  0  0
    4.1845    0.7772    0.0000 O   0  0  0  0  0  0  0  0  0
    2.0411   -0.4603    0.0000 C   0  0  0  0  0  0  0  0  0
    2.7555   -0.8728    0.0000 O   0  0  0  0  0  0  0  0  0
    1.3266   -0.8728    0.0000 C   0  0  0  0  0  0  0  0  0
    0.6121   -0.4603    0.0000 C   0  0  0  0  0  0  0  0  0
  1  2  1  0  0  0  0
  1 11  1  0  0  0  0
  2  3  1  0  0  0  0
  3  4  1  0  0  0  0
  4  5  1  0  0  0  0
  5  6  4  0  0  0  0
  5 10  4  0  0  0  0
  6  7  4  0  0  0  0
  7  8  4  0  0  0  0
  8  9  4  0  0  0  0
  9 10  4  0  0  0  0
 11 12  4  0  0  0  0
 11 16  4  0  0  0  0
 12 13  4  0  0  0  0
 13 14  4  0  0  0  0
 14 15  4  0  0  0  0
 14 17  1  0  0  0  0
 15 16  4  0  0  0  0
 17 18  1  0  0  0  0
 18 19  1  0  0  0  0
 19 20  1  0  0  0  0
 20 21  1  0  0  0  0
 21 22  1  0  0  0  0
 21 23  1  0  0  0  0
 23 24  4  0  0  0  0
 23 32  4  0  0  0  0
 24 25  4  0  0  0  0
 25 26  1  0  0  0  0
 25 29  4  0  0  0  0
 26 27  1  0  0  0  0
 27 28  2  0  0  0  0
 29 30  1  0  0  0  0
 29 31  4  0  0  0  0
 31 32  4  0  0  0  0
M  END
>  <Name_Molregno>
308190

>  <Beta-2>
8.23

$$$$
308245
  Marvin  02231216192D 0   1.00000     0.00000     0

 31 33  0  0  1  0  0  0  0  0999 V2000
   -6.2182   -0.2422    0.0000 O   0  0  0  0  0  0  0  0  0
   -6.9327    0.1703    0.0000 C   0  0  0  0  0  0  0  0  0
   -6.9327    0.9953    0.0000 C   0  0  0  0  0  0  0  0  0
   -7.6472    1.4078    0.0000 C   0  0  0  0  0  0  0  0  0
   -8.3617    0.9953    0.0000 C   0  0  0  0  0  0  0  0  0
   -9.0761    1.4078    0.0000 C   0  0  0  0  0  0  0  0  0
   -9.0761    2.2328    0.0000 C   0  0  0  0  0  0  0  0  0
   -8.3617    2.6453    0.0000 C   0  0  0  0  0  0  0  0  0
   -7.6472    2.2328    0.0000 C   0  0  0  0  0  0  0  0  0
   -5.5038    0.1703    0.0000 C   0  0  0  0  0  0  0  0  0
   -5.5038    0.9953    0.0000 C   0  0  0  0  0  0  0  0  0
   -4.7893    1.4078    0.0000 C   0  0  0  0  0  0  0  0  0
   -4.0748    0.9953    0.0000 C   0  0  0  0  0  0  0  0  0
   -4.0748    0.1703    0.0000 C   0  0  0  0  0  0  0  0  0
   -4.7893   -0.2422    0.0000 C   0  0  0  0  0  0  0  0  0
   -3.3604    1.4078    0.0000 C   0  0  0  0  0  0  0  0  0
   -2.6459    0.9953    0.0000 C   0  0  0  0  0  0  0  0  0
   -1.9314    1.4078    0.0000 N   0  0  0  0  0  0  0  0  0
   -1.2169    0.9953    0.0000 C   0  0  0  0  0  0  0  0  0
   -0.5025    1.4078    0.0000 C   0  0  0  0  0  0  0  0  0
   -0.5025    2.2328    0.0000 O   0  0  0  0  0  0  0  0  0
    0.2120    0.9953    0.0000 C   0  0  0  0  0  0  0  0  0
    0.9265    1.4078    0.0000 C   0  0  0  0  0  0  0  0  0
    1.6409    0.9953    0.0000 C   0  0  0  0  0  0  0  0  0
    2.3554    1.4078    0.0000 N   0  0  0  0  0  0  0  0  0
    3.0699    0.9953    0.0000 C   0  0  0  0  0  0  0  0  0
    3.7844    1.4078    0.0000 O   0  0  0  0  0  0  0  0  0
    1.6409    0.1703    0.0000 C   0  0  0  0  0  0  0  0  0
    2.3554   -0.2422    0.0000 O   0  0  0  0  0  0  0  0  0
    0.9265   -0.2422    0.0000 C   0  0  0  0  0  0  0  0  0
    0.2120    0.1703    0.0000 C   0  0  0  0  0  0  0  0  0
  1  2  1  0  0  0  0
  1 10  1  0  0  0  0
  2  3  1  0  0  0  0
  3  4  1  0  0  0  0
  4  5  4  0  0  0  0
  4  9  4  0  0  0  0
  5  6  4  0  0  0  0
  6  7  4  0  0  0  0
  7  8  4  0  0  0  0
  8  9  4  0  0  0  0
 10 11  4  0  0  0  0
 10 15  4  0  0  0  0
 11 12  4  0  0  0  0
 12 13  4  0  0  0  0
 13 14  4  0  0  0  0
 13 16  1  0  0  0  0
 14 15  4  0  0  0  0
 16 17  1  0  0  0  0
 17 18  1  0  0  0  0
 18 19  1  0  0  0  0
 19 20  1  0  0  0  0
 20 21  1  0  0  0  0
 20 22  1  0  0  0  0
 22 23  4  0  0  0  0
 22 31  4  0  0  0  0
 23 24  4  0  0  0  0
 24 25  1  0  0  0  0
 24 28  4  0  0  0  0
 25 26  1  0  0  0  0
 26 27  2  0  0  0  0
 28 29  1  0  0  0  0
 28 30  4  0  0  0  0
 30 31  4  0  0  0  0
M  END
>  <Name_Molregno>
308245

>  <Beta-2>
8.11

$$$$
308321
  Marvin  02231216192D 0   1.00000     0.00000     0

 33 35  0  0  1  0  0  0  0  0999 V2000
   -4.2867    1.0959    0.0000 O   0  0  0  0  0  0  0  0  0
   -5.0012    0.6834    0.0000 C   0  0  0  0  0  0  0  0  0
   -5.7157    1.0959    0.0000 C   0  0  0  0  0  0  0  0  0
   -6.4301    0.6834    0.0000 C   0  0  0  0  0  0  0  0  0
   -7.1446    1.0959    0.0000 C   0  0  0  0  0  0  0  0  0
   -7.8591    0.6834    0.0000 C   0  0  0  0  0  0  0  0  0
   -7.8591   -0.1416    0.0000 C   0  0  0  0  0  0  0  0  0
   -8.5735   -0.5541    0.0000 C   0  0  0  0  0  0  0  0  0
   -9.2880   -0.1416    0.0000 C   0  0  0  0  0  0  0  0  0
   -9.2880    0.6834    0.0000 C   0  0  0  0  0  0  0  0  0
   -8.5735    1.0959    0.0000 C   0  0  0  0  0  0  0  0  0
   -3.5723    0.6834    0.0000 C   0  0  0  0  0  0  0  0  0
   -2.8578    1.0959    0.0000 C   0  0  0  0  0  0  0  0  0
   -2.1433    0.6834    0.0000 C   0  0  0  0  0  0  0  0  0
   -2.1433   -0.1416    0.0000 C   0  0  0  0  0  0  0  0  0
   -2.8578   -0.5541    0.0000 C   0  0  0  0  0  0  0  0  0
   -3.5723   -0.1416    0.0000 C   0  0  0  0  0  0  0  0  0
   -1.4288    1.0959    0.0000 C   0  0  0  0  0  0  0  0  0
   -0.7144    0.6834    0.0000 C   0  0  0  0  0  0  0  0  0
    0.0001    1.0959    0.0000 N   0  0  0  0  0  0  0  0  0
    0.7146    0.6834    0.0000 C   0  0  0  0  0  0  0  0  0
    1.4290    1.0959    0.0000 C   0  0  0  0  0  0  0  0  0
    1.4290    1.9209    0.0000 O   0  0  0  0  0  0  0  0  0
    2.1435    0.6834    0.0000 C   0  0  0  0  0  0  0  0  0
    2.8580    1.0959    0.0000 C   0  0  0  0  0  0  0  0  0
    3.5725    0.6834    0.0000 C   0  0  0  0  0  0  0  0  0
    4.2869    1.0959    0.0000 N   0  0  0  0  0  0  0  0  0
    5.0014    0.6834    0.0000 C   0  0  0  0  0  0  0  0  0
    5.7159    1.0959    0.0000 O   0  0  0  0  0  0  0  0  0
    3.5725   -0.1416    0.0000 C   0  0  0  0  0  0  0  0  0
    4.2869   -0.5541    0.0000 O   0  0  0  0  0  0  0  0  0
    2.8580   -0.5541    0.0000 C   0  0  0  0  0  0  0  0  0
    2.1435   -0.1416    0.0000 C   0  0  0  0  0  0  0  0  0
  1  2  1  0  0  0  0
  1 12  1  0  0  0  0
  2  3  1  0  0  0  0
  3  4  1  0  0  0  0
  4  5  1  0  0  0  0
  5  6  1  0  0  0  0
  6  7  4  0  0  0  0
  6 11  4  0  0  0  0
  7  8  4  0  0  0  0
  8  9  4  0  0  0  0
  9 10  4  0  0  0  0
 10 11  4  0  0  0  0
 12 13  4  0  0  0  0
 12 17  4  0  0  0  0
 13 14  4  0  0  0  0
 14 15  4  0  0  0  0
 14 18  1  0  0  0  0
 15 16  4  0  0  0  0
 16 17  4  0  0  0  0
 18 19  1  0  0  0  0
 19 20  1  0  0  0  0
 20 21  1  0  0  0  0
 21 22  1  0  0  0  0
 22 23  1  0  0  0  0
 22 24  1  0  0  0  0
 24 25  4  0  0  0  0
 24 33  4  0  0  0  0
 25 26  4  0  0  0  0
 26 27  1  0  0  0  0
 26 30  4  0  0  0  0
 27 28  1  0  0  0  0
 28 29  2  0  0  0  0
 30 31  1  0  0  0  0
 30 32  4  0  0  0  0
 32 33  4  0  0  0  0
M  END
>  <Name_Molregno>
308321

>  <Beta-2>
8.07

$$$$
308374
  Marvin  02231216192D 0   1.00000     0.00000     0

 32 35  0  0  1  0  0  0  0  0999 V2000
   -6.5188    0.9954    0.0000 O   0  0  0  0  0  0  0  0  0
   -6.5188    0.1704    0.0000 C   0  0  0  0  0  0  0  0  0
   -7.1862   -0.3145    0.0000 C   0  0  0  0  0  0  0  0  0
   -6.9313   -1.0992    0.0000 C   0  0  0  0  0  0  0  0  0
   -6.1063   -1.0992    0.0000 C   0  0  0  0  0  0  0  0  0
   -5.8513   -0.3145    0.0000 C   0  0  0  0  0  0  0  0  0
   -5.6938   -1.8136    0.0000 C   0  0  0  0  0  0  0  0  0
   -6.1063   -2.5281    0.0000 C   0  0  0  0  0  0  0  0  0
   -6.9313   -2.5281    0.0000 C   0  0  0  0  0  0  0  0  0
   -7.3438   -1.8136    0.0000 C   0  0  0  0  0  0  0  0  0
   -5.8043    1.4079    0.0000 C   0  0  0  0  0  0  0  0  0
   -5.8043    2.2329    0.0000 C   0  0  0  0  0  0  0  0  0
   -5.0898    2.6454    0.0000 C   0  0  0  0  0  0  0  0  0
   -4.3754    2.2329    0.0000 C   0  0  0  0  0  0  0  0  0
   -4.3754    1.4079    0.0000 C   0  0  0  0  0  0  0  0  0
   -5.0898    0.9954    0.0000 C   0  0  0  0  0  0  0  0  0
   -3.6609    2.6454    0.0000 C   0  0  0  0  0  0  0  0  0
   -2.9464    2.2329    0.0000 C   0  0  0  0  0  0  0  0  0
   -2.2320    2.6454    0.0000 N   0  0  0  0  0  0  0  0  0
   -1.5175    2.2329    0.0000 C   0  0  0  0  0  0  0  0  0
   -0.8030    2.6454    0.0000 C   0  0  0  0  0  0  0  0  0
   -0.8030    3.4704    0.0000 O   0  0  0  0  0  0  0  0  0
   -0.0885    2.2329    0.0000 C   0  0  0  0  0  0  0  0  0
    0.6259    2.6454    0.0000 C   0  0  0  0  0  0  0  0  0
    1.3404    2.2329    0.0000 C   0  0  0  0  0  0  0  0  0
    2.0549    2.6454    0.0000 N   0  0  0  0  0  0  0  0  0
    2.7693    2.2329    0.0000 C   0  0  0  0  0  0  0  0  0
    3.4838    2.6454    0.0000 O   0  0  0  0  0  0  0  0  0
    1.3404    1.4079    0.0000 C   0  0  0  0  0  0  0  0  0
    2.0549    0.9954    0.0000 O   0  0  0  0  0  0  0  0  0
    0.6259    0.9954    0.0000 C   0  0  0  0  0  0  0  0  0
   -0.0885    1.4079    0.0000 C   0  0  0  0  0  0  0  0  0
  1  2  1  0  0  0  0
  1 11  1  0  0  0  0
  2  3  1  0  0  0  0
  2  6  1  0  0  0  0
  3  4  1  0  0  0  0
  4  5  4  0  0  0  0
  4 10  4  0  0  0  0
  5  6  1  0  0  0  0
  5  7  4  0  0  0  0
  7  8  4  0  0  0  0
  8  9  4  0  0  0  0
  9 10  4  0  0  0  0
 11 12  4  0  0  0  0
 11 16  4  0  0  0  0
 12 13  4  0  0  0  0
 13 14  4  0  0  0  0
 14 15  4  0  0  0  0
 14 17  1  0  0  0  0
 15 16  4  0  0  0  0
 17 18  1  0  0  0  0
 18 19  1  0  0  0  0
 19 20  1  0  0  0  0
 20 21  1  0  0  0  0
 21 22  1  0  0  0  0
 21 23  1  0  0  0  0
 23 24  4  0  0  0  0
 23 32  4  0  0  0  0
 24 25  4  0  0  0  0
 25 26  1  0  0  0  0
 25 29  4  0  0  0  0
 26 27  1  0  0  0  0
 27 28  2  0  0  0  0
 29 30  1  0  0  0  0
 29 31  4  0  0  0  0
 31 32  4  0  0  0  0
M  END
>  <Name_Molregno>
308374

>  <Beta-2>
7.94

$$$$
308414
  Marvin  02231216192D 0   1.00000     0.00000     0

 33 35  0  0  1  0  0  0  0  0999 V2000
   -4.2867    1.0959    0.0000 O   0  0  0  0  0  0  0  0  0
   -5.0012    0.6834    0.0000 C   0  0  0  0  0  0  0  0  0
   -5.7157    1.0959    0.0000 C   0  0  0  0  0  0  0  0  0
   -6.4301    0.6834    0.0000 C   0  0  0  0  0  0  0  0  0
   -7.1446    1.0959    0.0000 O   0  0  0  0  0  0  0  0  0
   -7.8591    0.6834    0.0000 C   0  0  0  0  0  0  0  0  0
   -7.8591   -0.1416    0.0000 C   0  0  0  0  0  0  0  0  0
   -8.5735   -0.5541    0.0000 C   0  0  0  0  0  0  0  0  0
   -9.2880   -0.1416    0.0000 C   0  0  0  0  0  0  0  0  0
   -9.2880    0.6834    0.0000 C   0  0  0  0  0  0  0  0  0
   -8.5735    1.0959    0.0000 C   0  0  0  0  0  0  0  0  0
   -3.5723    0.6834    0.0000 C   0  0  0  0  0  0  0  0  0
   -2.8578    1.0959    0.0000 C   0  0  0  0  0  0  0  0  0
   -2.1433    0.6834    0.0000 C   0  0  0  0  0  0  0  0  0
   -2.1433   -0.1416    0.0000 C   0  0  0  0  0  0  0  0  0
   -2.8578   -0.5541    0.0000 C   0  0  0  0  0  0  0  0  0
   -3.5723   -0.1416    0.0000 C   0  0  0  0  0  0  0  0  0
   -1.4288    1.0959    0.0000 C   0  0  0  0  0  0  0  0  0
   -0.7144    0.6834    0.0000 C   0  0  0  0  0  0  0  0  0
    0.0001    1.0959    0.0000 N   0  0  0  0  0  0  0  0  0
    0.7146    0.6834    0.0000 C   0  0  0  0  0  0  0  0  0
    1.4290    1.0959    0.0000 C   0  0  0  0  0  0  0  0  0
    1.4290    1.9209    0.0000 O   0  0  0  0  0  0  0  0  0
    2.1435    0.6834    0.0000 C   0  0  0  0  0  0  0  0  0
    2.8580    1.0959    0.0000 C   0  0  0  0  0  0  0  0  0
    3.5725    0.6834    0.0000 C   0  0  0  0  0  0  0  0  0
    4.2869    1.0959    0.0000 N   0  0  0  0  0  0  0  0  0
    5.0014    0.6834    0.0000 C   0  0  0  0  0  0  0  0  0
    5.7159    1.0959    0.0000 O   0  0  0  0  0  0  0  0  0
    3.5725   -0.1416    0.0000 C   0  0  0  0  0  0  0  0  0
    4.2869   -0.5541    0.0000 O   0  0  0  0  0  0  0  0  0
    2.8580   -0.5541    0.0000 C   0  0  0  0  0  0  0  0  0
    2.1435   -0.1416    0.0000 C   0  0  0  0  0  0  0  0  0
  1  2  1  0  0  0  0
  1 12  1  0  0  0  0
  2  3  1  0  0  0  0
  3  4  1  0  0  0  0
  4  5  1  0  0  0  0
  5  6  1  0  0  0  0
  6  7  4  0  0  0  0
  6 11  4  0  0  0  0
  7  8  4  0  0  0  0
  8  9  4  0  0  0  0
  9 10  4  0  0  0  0
 10 11  4  0  0  0  0
 12 13  4  0  0  0  0
 12 17  4  0  0  0  0
 13 14  4  0  0  0  0
 14 15  4  0  0  0  0
 14 18  1  0  0  0  0
 15 16  4  0  0  0  0
 16 17  4  0  0  0  0
 18 19  1  0  0  0  0
 19 20  1  0  0  0  0
 20 21  1  0  0  0  0
 21 22  1  0  0  0  0
 22 23  1  0  0  0  0
 22 24  1  0  0  0  0
 24 25  4  0  0  0  0
 24 33  4  0  0  0  0
 25 26  4  0  0  0  0
 26 27  1  0  0  0  0
 26 30  4  0  0  0  0
 27 28  1  0  0  0  0
 28 29  2  0  0  0  0
 30 31  1  0  0  0  0
 30 32  4  0  0  0  0
 32 33  4  0  0  0  0
M  END
>  <Name_Molregno>
308414

>  <Beta-2>
8.48

$$$$
313022
  Marvin  02231216192D 0   1.00000     0.00000     0

 31 34  0  0  1  0  0  0  0  0999 V2000
    0.8787    1.6965    0.0000 S   0  0  0  0  0  0  0  0  0
    0.3267    2.3096    0.0000 C   0  0  0  0  0  0  0  0  0
    0.7392    3.0241    0.0000 C   0  0  0  0  0  0  0  0  0
    1.5462    2.8525    0.0000 C   0  0  0  0  0  0  0  0  0
    1.6324    2.0321    0.0000 C   0  0  0  0  0  0  0  0  0
    2.3469    1.6196    0.0000 S   0  0  0  0  0  0  0  0  0
    1.9344    0.9051    0.0000 O   0  0  0  0  0  0  0  0  0
    2.7594    2.3340    0.0000 O   0  0  0  0  0  0  0  0  0
    3.0613    1.2071    0.0000 N   0  0  0  0  0  0  0  0  0
    3.0613    0.3821    0.0000 C   0  0  0  0  0  0  0  0  0
    3.7758   -0.0304    0.0000 C   0  0  0  0  0  0  0  0  0
    3.7758   -0.8554    0.0000 C   0  0  0  0  0  0  0  0  0
    3.0613   -1.2679    0.0000 C   0  0  0  0  0  0  0  0  0
    2.3469   -0.8554    0.0000 C   0  0  0  0  0  0  0  0  0
    2.3469   -0.0304    0.0000 C   0  0  0  0  0  0  0  0  0
    4.4903   -1.2679    0.0000 C   0  0  0  0  0  0  0  0  0
    4.4903   -2.0929    0.0000 O   0  0  0  0  0  0  0  0  0
    5.2048   -0.8554    0.0000 C   0  0  0  0  0  0  0  0  0
    5.9192   -1.2679    0.0000 N   0  0  0  0  0  0  0  0  0
    6.6337   -0.8554    0.0000 C   0  0  0  0  0  0  0  0  0
    7.3482   -1.2679    0.0000 C   0  0  0  0  0  0  0  0  0
    8.0626   -0.8554    0.0000 C   0  0  0  0  0  0  0  0  0
    8.8163   -1.1910    0.0000 C   0  0  0  0  0  0  0  0  0
    9.3683   -0.5779    0.0000 C   0  0  0  0  0  0  0  0  0
    8.9558    0.1366    0.0000 N   0  0  0  0  0  0  0  0  0
    8.1489   -0.0350    0.0000 C   0  0  0  0  0  0  0  0  0
   10.1753   -0.7494    0.0000 C   0  0  0  0  0  0  0  0  0
   10.4303   -1.5340    0.0000 C   0  0  0  0  0  0  0  0  0
    9.8782   -2.1471    0.0000 C   0  0  0  0  0  0  0  0  0
    9.0713   -1.9756    0.0000 C   0  0  0  0  0  0  0  0  0
    6.6337   -0.0304    0.0000 C   0  0  0  0  0  0  0  0  0
  1  2  4  0  0  0  0
  1  5  4  0  0  0  0
  2  3  4  0  0  0  0
  3  4  4  0  0  0  0
  4  5  4  0  0  0  0
  5  6  1  0  0  0  0
  6  7  2  0  0  0  0
  6  8  2  0  0  0  0
  6  9  1  0  0  0  0
  9 10  1  0  0  0  0
 10 11  4  0  0  0  0
 10 15  4  0  0  0  0
 11 12  4  0  0  0  0
 12 13  4  0  0  0  0
 12 16  1  0  0  0  0
 13 14  4  0  0  0  0
 14 15  4  0  0  0  0
 16 17  1  0  0  0  0
 16 18  1  0  0  0  0
 18 19  1  0  0  0  0
 19 20  1  0  0  0  0
 20 21  1  0  0  0  0
 20 31  1  0  0  0  0
 21 22  1  0  0  0  0
 22 23  4  0  0  0  0
 22 26  4  0  0  0  0
 23 24  4  0  0  0  0
 23 30  4  0  0  0  0
 24 25  4  0  0  0  0
 24 27  4  0  0  0  0
 25 26  4  0  0  0  0
 27 28  4  0  0  0  0
 28 29  4  0  0  0  0
 29 30  4  0  0  0  0
M  STY  1   1 DAT
M  SAL   1  1  25
M  SDT   1 MRV_IMPLICIT_H                                        
M  SDD   1     0.0000    0.0000    DR    ALL  0       0  
M  SED   1 IMPL_H1
M  END
>  <Name_Molregno>
313022

>  <Beta-1>
6.96

>  <Beta-2>
7.29

$$$$
313176
  Marvin  02231216192D 0   1.00000     0.00000     0

 36 39  0  0  1  0  0  0  0  0999 V2000
    0.3763    0.6076    0.0000 S   0  0  0  0  0  0  0  0  0
   -0.1758    1.2206    0.0000 C   0  0  0  0  0  0  0  0  0
    0.2367    1.9351    0.0000 C   0  0  0  0  0  0  0  0  0
    1.0437    1.7636    0.0000 C   0  0  0  0  0  0  0  0  0
    1.1299    0.9431    0.0000 C   0  0  0  0  0  0  0  0  0
    1.8444    0.5306    0.0000 S   0  0  0  0  0  0  0  0  0
    1.4319   -0.1839    0.0000 O   0  0  0  0  0  0  0  0  0
    2.2569    1.2451    0.0000 O   0  0  0  0  0  0  0  0  0
    2.5589    0.1181    0.0000 N   0  0  0  0  0  0  0  0  0
    2.5589   -0.7069    0.0000 C   0  0  0  0  0  0  0  0  0
    3.2734   -1.1194    0.0000 C   0  0  0  0  0  0  0  0  0
    3.2734   -1.9444    0.0000 C   0  0  0  0  0  0  0  0  0
    2.5589   -2.3569    0.0000 C   0  0  0  0  0  0  0  0  0
    1.8444   -1.9444    0.0000 C   0  0  0  0  0  0  0  0  0
    1.8444   -1.1194    0.0000 C   0  0  0  0  0  0  0  0  0
    3.9878   -2.3569    0.0000 C   0  0  0  0  0  0  0  0  0
    3.9878   -3.1819    0.0000 O   0  0  0  0  0  0  0  0  0
    4.7023   -1.9444    0.0000 C   0  0  0  0  0  0  0  0  0
    5.4168   -2.3569    0.0000 N   0  0  0  0  0  0  0  0  0
    6.1312   -1.9444    0.0000 C   0  0  0  0  0  0  0  0  0
    6.8457   -2.3569    0.0000 C   0  0  0  0  0  0  0  0  0
    7.5602   -1.9444    0.0000 C   0  0  0  0  0  0  0  0  0
    8.3139   -2.2799    0.0000 C   0  0  0  0  0  0  0  0  0
    8.8659   -1.6669    0.0000 C   0  0  0  0  0  0  0  0  0
    8.4534   -0.9524    0.0000 N   0  0  0  0  0  0  0  0  0
    7.6464   -1.1239    0.0000 C   0  0  0  0  0  0  0  0  0
    9.6729   -1.8384    0.0000 C   0  0  0  0  0  0  0  0  0
   10.2249   -1.2253    0.0000 O   0  0  0  0  0  0  0  0  0
    9.9700   -0.4407    0.0000 C   0  0  0  0  0  0  0  0  0
   10.5220    0.1724    0.0000 C   0  0  0  0  0  0  0  0  0
   11.3290    0.0009    0.0000 O   0  0  0  0  0  0  0  0  0
   10.2670    0.9571    0.0000 O   0  0  0  0  0  0  0  0  0
    9.9278   -2.6230    0.0000 C   0  0  0  0  0  0  0  0  0
    9.3758   -3.2361    0.0000 C   0  0  0  0  0  0  0  0  0
    8.5688   -3.0646    0.0000 C   0  0  0  0  0  0  0  0  0
    6.1312   -1.1194    0.0000 C   0  0  0  0  0  0  0  0  0
  1  2  4  0  0  0  0
  1  5  4  0  0  0  0
  2  3  4  0  0  0  0
  3  4  4  0  0  0  0
  4  5  4  0  0  0  0
  5  6  1  0  0  0  0
  6  7  2  0  0  0  0
  6  8  2  0  0  0  0
  6  9  1  0  0  0  0
  9 10  1  0  0  0  0
 10 11  4  0  0  0  0
 10 15  4  0  0  0  0
 11 12  4  0  0  0  0
 12 13  4  0  0  0  0
 12 16  1  0  0  0  0
 13 14  4  0  0  0  0
 14 15  4  0  0  0  0
 16 17  1  0  0  0  0
 16 18  1  0  0  0  0
 18 19  1  0  0  0  0
 19 20  1  0  0  0  0
 20 21  1  0  0  0  0
 20 36  1  0  0  0  0
 21 22  1  0  0  0  0
 22 23  4  0  0  0  0
 22 26  4  0  0  0  0
 23 24  4  0  0  0  0
 23 35  4  0  0  0  0
 24 25  4  0  0  0  0
 24 27  4  0  0  0  0
 25 26  4  0  0  0  0
 27 28  1  0  0  0  0
 27 33  4  0  0  0  0
 28 29  1  0  0  0  0
 29 30  1  0  0  0  0
 30 31  1  0  0  0  0
 30 32  2  0  0  0  0
 33 34  4  0  0  0  0
 34 35  4  0  0  0  0
M  STY  1   1 DAT
M  SAL   1  1  25
M  SDT   1 MRV_IMPLICIT_H                                        
M  SDD   1     0.0000    0.0000    DR    ALL  0       0  
M  SED   1 IMPL_H1
M  END
>  <Name_Molregno>
313176

>  <Beta-1>
6.32

>  <Beta-2>
6.8

$$$$
313182
  Marvin  02231216192D 0   1.00000     0.00000     0

 36 39  0  0  1  0  0  0  0  0999 V2000
    0.3625    1.8247    0.0000 S   0  0  0  0  0  0  0  0  0
   -0.1895    2.4377    0.0000 C   0  0  0  0  0  0  0  0  0
    0.2230    3.1522    0.0000 C   0  0  0  0  0  0  0  0  0
    1.0299    2.9807    0.0000 C   0  0  0  0  0  0  0  0  0
    1.1162    2.1602    0.0000 C   0  0  0  0  0  0  0  0  0
    1.8306    1.7477    0.0000 S   0  0  0  0  0  0  0  0  0
    1.4181    1.0332    0.0000 O   0  0  0  0  0  0  0  0  0
    2.2431    2.4622    0.0000 O   0  0  0  0  0  0  0  0  0
    2.5451    1.3352    0.0000 N   0  0  0  0  0  0  0  0  0
    2.5451    0.5102    0.0000 C   0  0  0  0  0  0  0  0  0
    3.2596    0.0977    0.0000 C   0  0  0  0  0  0  0  0  0
    3.2596   -0.7273    0.0000 C   0  0  0  0  0  0  0  0  0
    2.5451   -1.1398    0.0000 C   0  0  0  0  0  0  0  0  0
    1.8306   -0.7273    0.0000 C   0  0  0  0  0  0  0  0  0
    1.8306    0.0977    0.0000 C   0  0  0  0  0  0  0  0  0
    3.9741   -1.1398    0.0000 C   0  0  0  0  0  0  0  0  0
    3.9741   -1.9648    0.0000 O   0  0  0  0  0  0  0  0  0
    4.6885   -0.7273    0.0000 C   0  0  0  0  0  0  0  0  0
    5.4030   -1.1398    0.0000 N   0  0  0  0  0  0  0  0  0
    6.1175   -0.7273    0.0000 C   0  0  0  0  0  0  0  0  0
    6.8319   -1.1398    0.0000 C   0  0  0  0  0  0  0  0  0
    7.5464   -0.7273    0.0000 C   0  0  0  0  0  0  0  0  0
    8.3001   -1.0628    0.0000 C   0  0  0  0  0  0  0  0  0
    8.8521   -0.4498    0.0000 C   0  0  0  0  0  0  0  0  0
    8.4396    0.2647    0.0000 N   0  0  0  0  0  0  0  0  0
    7.6326    0.0932    0.0000 C   0  0  0  0  0  0  0  0  0
    9.6591   -0.6213    0.0000 C   0  0  0  0  0  0  0  0  0
   10.2111   -0.0082    0.0000 O   0  0  0  0  0  0  0  0  0
   11.0181   -0.1797    0.0000 S   0  0  0  0  0  0  0  0  0
   11.8251   -0.3512    0.0000 O   0  0  0  0  0  0  0  0  0
   10.8466   -0.9867    0.0000 O   0  0  0  0  0  0  0  0  0
   11.1896    0.6273    0.0000 C   0  0  0  0  0  0  0  0  0
    9.9140   -1.4059    0.0000 C   0  0  0  0  0  0  0  0  0
    9.3620   -2.0190    0.0000 C   0  0  0  0  0  0  0  0  0
    8.5550   -1.8475    0.0000 C   0  0  0  0  0  0  0  0  0
    6.1175    0.0977    0.0000 C   0  0  0  0  0  0  0  0  0
  1  2  4  0  0  0  0
  1  5  4  0  0  0  0
  2  3  4  0  0  0  0
  3  4  4  0  0  0  0
  4  5  4  0  0  0  0
  5  6  1  0  0  0  0
  6  7  2  0  0  0  0
  6  8  2  0  0  0  0
  6  9  1  0  0  0  0
  9 10  1  0  0  0  0
 10 11  4  0  0  0  0
 10 15  4  0  0  0  0
 11 12  4  0  0  0  0
 12 13  4  0  0  0  0
 12 16  1  0  0  0  0
 13 14  4  0  0  0  0
 14 15  4  0  0  0  0
 16 17  1  0  0  0  0
 16 18  1  0  0  0  0
 18 19  1  0  0  0  0
 19 20  1  0  0  0  0
 20 21  1  0  0  0  0
 20 36  1  0  0  0  0
 21 22  1  0  0  0  0
 22 23  4  0  0  0  0
 22 26  4  0  0  0  0
 23 24  4  0  0  0  0
 23 35  4  0  0  0  0
 24 25  4  0  0  0  0
 24 27  4  0  0  0  0
 25 26  4  0  0  0  0
 27 28  1  0  0  0  0
 27 33  4  0  0  0  0
 28 29  1  0  0  0  0
 29 30  2  0  0  0  0
 29 31  2  0  0  0  0
 29 32  1  0  0  0  0
 33 34  4  0  0  0  0
 34 35  4  0  0  0  0
M  STY  1   1 DAT
M  SAL   1  1  25
M  SDT   1 MRV_IMPLICIT_H                                        
M  SDD   1     0.0000    0.0000    DR    ALL  0       0  
M  SED   1 IMPL_H1
M  END
>  <Name_Molregno>
313182

>  <Beta-1>
7.18

>  <Beta-2>
7.32

$$$$
313315
  Marvin  02231216192D 0   1.00000     0.00000     0

 33 36  0  0  1  0  0  0  0  0999 V2000
    0.8927    1.6246    0.0000 S   0  0  0  0  0  0  0  0  0
    0.3406    2.2377    0.0000 C   0  0  0  0  0  0  0  0  0
    0.7531    2.9522    0.0000 C   0  0  0  0  0  0  0  0  0
    1.5601    2.7807    0.0000 C   0  0  0  0  0  0  0  0  0
    1.6463    1.9602    0.0000 C   0  0  0  0  0  0  0  0  0
    2.3608    1.5477    0.0000 S   0  0  0  0  0  0  0  0  0
    1.9483    0.8332    0.0000 O   0  0  0  0  0  0  0  0  0
    2.7733    2.2621    0.0000 O   0  0  0  0  0  0  0  0  0
    3.0753    1.1352    0.0000 N   0  0  0  0  0  0  0  0  0
    3.0753    0.3102    0.0000 C   0  0  0  0  0  0  0  0  0
    3.7897   -0.1023    0.0000 C   0  0  0  0  0  0  0  0  0
    3.7897   -0.9273    0.0000 C   0  0  0  0  0  0  0  0  0
    3.0753   -1.3398    0.0000 C   0  0  0  0  0  0  0  0  0
    2.3608   -0.9273    0.0000 C   0  0  0  0  0  0  0  0  0
    2.3608   -0.1023    0.0000 C   0  0  0  0  0  0  0  0  0
    4.5042   -1.3398    0.0000 C   0  0  0  0  0  0  0  0  0
    4.5042   -2.1648    0.0000 O   0  0  0  0  0  0  0  0  0
    5.2187   -0.9273    0.0000 C   0  0  0  0  0  0  0  0  0
    5.9332   -1.3398    0.0000 N   0  0  0  0  0  0  0  0  0
    6.6476   -0.9273    0.0000 C   0  0  0  0  0  0  0  0  0
    7.3621   -1.3398    0.0000 C   0  0  0  0  0  0  0  0  0
    8.0766   -0.9273    0.0000 C   0  0  0  0  0  0  0  0  0
    8.8302   -1.2629    0.0000 C   0  0  0  0  0  0  0  0  0
    9.3823   -0.6498    0.0000 C   0  0  0  0  0  0  0  0  0
    8.9698    0.0647    0.0000 N   0  0  0  0  0  0  0  0  0
    8.1628   -0.1068    0.0000 C   0  0  0  0  0  0  0  0  0
   10.1892   -0.8213    0.0000 C   0  0  0  0  0  0  0  0  0
   10.7413   -0.2082    0.0000 O   0  0  0  0  0  0  0  0  0
   11.5482   -0.3798    0.0000 C   0  0  0  0  0  0  0  0  0
   10.4442   -1.6059    0.0000 C   0  0  0  0  0  0  0  0  0
    9.8922   -2.2190    0.0000 C   0  0  0  0  0  0  0  0  0
    9.0852   -2.0475    0.0000 C   0  0  0  0  0  0  0  0  0
    6.6476   -0.1023    0.0000 C   0  0  0  0  0  0  0  0  0
  1  2  4  0  0  0  0
  1  5  4  0  0  0  0
  2  3  4  0  0  0  0
  3  4  4  0  0  0  0
  4  5  4  0  0  0  0
  5  6  1  0  0  0  0
  6  7  2  0  0  0  0
  6  8  2  0  0  0  0
  6  9  1  0  0  0  0
  9 10  1  0  0  0  0
 10 11  4  0  0  0  0
 10 15  4  0  0  0  0
 11 12  4  0  0  0  0
 12 13  4  0  0  0  0
 12 16  1  0  0  0  0
 13 14  4  0  0  0  0
 14 15  4  0  0  0  0
 16 17  1  0  0  0  0
 16 18  1  0  0  0  0
 18 19  1  0  0  0  0
 19 20  1  0  0  0  0
 20 21  1  0  0  0  0
 20 33  1  0  0  0  0
 21 22  1  0  0  0  0
 22 23  4  0  0  0  0
 22 26  4  0  0  0  0
 23 24  4  0  0  0  0
 23 32  4  0  0  0  0
 24 25  4  0  0  0  0
 24 27  4  0  0  0  0
 25 26  4  0  0  0  0
 27 28  1  0  0  0  0
 27 30  4  0  0  0  0
 28 29  1  0  0  0  0
 30 31  4  0  0  0  0
 31 32  4  0  0  0  0
M  STY  1   1 DAT
M  SAL   1  1  25
M  SDT   1 MRV_IMPLICIT_H                                        
M  SDD   1     0.0000    0.0000    DR    ALL  0       0  
M  SED   1 IMPL_H1
M  END
>  <Name_Molregno>
313315

>  <Beta-1>
7.37

>  <Beta-2>
7.6

$$$$
313501
  Marvin  02231216192D 0   1.00000     0.00000     0

 35 38  0  0  1  0  0  0  0  0999 V2000
    0.3570    1.7074    0.0000 S   0  0  0  0  0  0  0  0  0
   -0.1950    2.3205    0.0000 C   0  0  0  0  0  0  0  0  0
    0.2175    3.0350    0.0000 C   0  0  0  0  0  0  0  0  0
    1.0244    2.8634    0.0000 C   0  0  0  0  0  0  0  0  0
    1.1107    2.0429    0.0000 C   0  0  0  0  0  0  0  0  0
    1.8251    1.6304    0.0000 S   0  0  0  0  0  0  0  0  0
    1.4126    0.9160    0.0000 O   0  0  0  0  0  0  0  0  0
    2.2376    2.3449    0.0000 O   0  0  0  0  0  0  0  0  0
    2.5396    1.2179    0.0000 N   0  0  0  0  0  0  0  0  0
    2.5396    0.3929    0.0000 C   0  0  0  0  0  0  0  0  0
    3.2541   -0.0196    0.0000 C   0  0  0  0  0  0  0  0  0
    3.2541   -0.8446    0.0000 C   0  0  0  0  0  0  0  0  0
    2.5396   -1.2571    0.0000 C   0  0  0  0  0  0  0  0  0
    1.8251   -0.8446    0.0000 C   0  0  0  0  0  0  0  0  0
    1.8251   -0.0196    0.0000 C   0  0  0  0  0  0  0  0  0
    3.9686   -1.2571    0.0000 C   0  0  0  0  0  0  0  0  0
    3.9686   -2.0821    0.0000 O   0  0  0  0  0  0  0  0  0
    4.6830   -0.8446    0.0000 C   0  0  0  0  0  0  0  0  0
    5.3975   -1.2571    0.0000 N   0  0  0  0  0  0  0  0  0
    6.1120   -0.8446    0.0000 C   0  0  0  0  0  0  0  0  0
    6.8264   -1.2571    0.0000 C   0  0  0  0  0  0  0  0  0
    7.5409   -0.8446    0.0000 C   0  0  0  0  0  0  0  0  0
    8.2946   -1.1801    0.0000 C   0  0  0  0  0  0  0  0  0
    8.8466   -0.5670    0.0000 C   0  0  0  0  0  0  0  0  0
    8.4341    0.1475    0.0000 N   0  0  0  0  0  0  0  0  0
    7.6272   -0.0241    0.0000 C   0  0  0  0  0  0  0  0  0
    9.6536   -0.7385    0.0000 C   0  0  0  0  0  0  0  0  0
   10.2056   -0.1255    0.0000 O   0  0  0  0  0  0  0  0  0
   11.0126   -0.2970    0.0000 S   0  0  0  0  0  0  0  0  0
   11.8196   -0.4685    0.0000 O   0  0  0  0  0  0  0  0  0
   10.8411   -1.1040    0.0000 O   0  0  0  0  0  0  0  0  0
   11.1841    0.5100    0.0000 C   0  0  0  0  0  0  0  0  0
    9.9085   -1.5232    0.0000 C   0  0  0  0  0  0  0  0  0
    9.3565   -2.1363    0.0000 C   0  0  0  0  0  0  0  0  0
    8.5495   -1.9647    0.0000 C   0  0  0  0  0  0  0  0  0
  1  2  4  0  0  0  0
  1  5  4  0  0  0  0
  2  3  4  0  0  0  0
  3  4  4  0  0  0  0
  4  5  4  0  0  0  0
  5  6  1  0  0  0  0
  6  7  2  0  0  0  0
  6  8  2  0  0  0  0
  6  9  1  0  0  0  0
  9 10  1  0  0  0  0
 10 11  4  0  0  0  0
 10 15  4  0  0  0  0
 11 12  4  0  0  0  0
 12 13  4  0  0  0  0
 12 16  1  0  0  0  0
 13 14  4  0  0  0  0
 14 15  4  0  0  0  0
 16 17  1  0  0  0  0
 16 18  1  0  0  0  0
 18 19  1  0  0  0  0
 19 20  1  0  0  0  0
 20 21  1  0  0  0  0
 21 22  1  0  0  0  0
 22 23  4  0  0  0  0
 22 26  4  0  0  0  0
 23 24  4  0  0  0  0
 23 35  4  0  0  0  0
 24 25  4  0  0  0  0
 24 27  4  0  0  0  0
 25 26  4  0  0  0  0
 27 28  1  0  0  0  0
 27 33  4  0  0  0  0
 28 29  1  0  0  0  0
 29 30  2  0  0  0  0
 29 31  2  0  0  0  0
 29 32  1  0  0  0  0
 33 34  4  0  0  0  0
 34 35  4  0  0  0  0
M  STY  1   1 DAT
M  SAL   1  1  25
M  SDT   1 MRV_IMPLICIT_H                                        
M  SDD   1     0.0000    0.0000    DR    ALL  0       0  
M  SED   1 IMPL_H1
M  END
>  <Name_Molregno>
313501

>  <Beta-1>
6.64

>  <Beta-2>
6.65

$$$$
313743
  Marvin  02231216192D 0   1.00000     0.00000     0

 36 39  0  0  1  0  0  0  0  0999 V2000
  -10.8166   -0.0550    0.0000 S   0  0  0  0  0  0  0  0  0
  -11.6236   -0.2265    0.0000 O   0  0  0  0  0  0  0  0  0
  -10.6451   -0.8620    0.0000 O   0  0  0  0  0  0  0  0  0
  -10.9881    0.7520    0.0000 C   0  0  0  0  0  0  0  0  0
  -10.0096    0.1165    0.0000 C   0  0  0  0  0  0  0  0  0
   -9.7547    0.9012    0.0000 C   0  0  0  0  0  0  0  0  0
  -10.1672    1.6156    0.0000 N   0  0  0  0  0  0  0  0  0
   -9.6152    2.2287    0.0000 C   0  0  0  0  0  0  0  0  0
   -8.8615    1.8932    0.0000 C   0  0  0  0  0  0  0  0  0
   -8.9477    1.0727    0.0000 C   0  0  0  0  0  0  0  0  0
   -8.3957    0.4596    0.0000 C   0  0  0  0  0  0  0  0  0
   -8.6506   -0.3250    0.0000 C   0  0  0  0  0  0  0  0  0
   -9.4576   -0.4966    0.0000 C   0  0  0  0  0  0  0  0  0
   -8.1470    2.3057    0.0000 C   0  0  0  0  0  0  0  0  0
   -7.4325    1.8932    0.0000 C   0  0  0  0  0  0  0  0  0
   -6.7181    2.3057    0.0000 N   0  0  0  0  0  0  0  0  0
   -6.0036    1.8932    0.0000 C   0  0  0  0  0  0  0  0  0
   -5.2891    2.3057    0.0000 C   0  0  0  0  0  0  0  0  0
   -5.2891    3.1307    0.0000 O   0  0  0  0  0  0  0  0  0
   -4.5747    1.8932    0.0000 C   0  0  0  0  0  0  0  0  0
   -3.8602    2.3057    0.0000 C   0  0  0  0  0  0  0  0  0
   -3.1457    1.8932    0.0000 C   0  0  0  0  0  0  0  0  0
   -2.4313    2.3057    0.0000 N   0  0  0  0  0  0  0  0  0
   -1.7168    1.8932    0.0000 S   0  0  0  0  0  0  0  0  0
   -2.1293    1.1787    0.0000 O   0  0  0  0  0  0  0  0  0
   -1.3043    2.6076    0.0000 O   0  0  0  0  0  0  0  0  0
   -1.0023    1.4807    0.0000 C   0  0  0  0  0  0  0  0  0
   -0.2878    1.8932    0.0000 C   0  0  0  0  0  0  0  0  0
    0.4266    1.4807    0.0000 C   0  0  0  0  0  0  0  0  0
    1.1411    1.8932    0.0000 N   0  0  0  0  0  0  0  0  0
    0.4266    0.6557    0.0000 C   0  0  0  0  0  0  0  0  0
   -0.2878    0.2432    0.0000 C   0  0  0  0  0  0  0  0  0
   -1.0023    0.6557    0.0000 C   0  0  0  0  0  0  0  0  0
   -3.1457    1.0682    0.0000 C   0  0  0  0  0  0  0  0  0
   -3.8602    0.6557    0.0000 C   0  0  0  0  0  0  0  0  0
   -4.5747    1.0682    0.0000 C   0  0  0  0  0  0  0  0  0
  1  2  2  0  0  0  0
  1  3  2  0  0  0  0
  1  4  1  0  0  0  0
  1  5  1  0  0  0  0
  5  6  4  0  0  0  0
  5 13  4  0  0  0  0
  6  7  4  0  0  0  0
  6 10  4  0  0  0  0
  7  8  4  0  0  0  0
  8  9  4  0  0  0  0
  9 10  4  0  0  0  0
  9 14  1  0  0  0  0
 10 11  4  0  0  0  0
 11 12  4  0  0  0  0
 12 13  4  0  0  0  0
 14 15  1  0  0  0  0
 15 16  1  0  0  0  0
 16 17  1  0  0  0  0
 17 18  1  0  0  0  0
 18 19  1  0  0  0  0
 18 20  1  0  0  0  0
 20 21  4  0  0  0  0
 20 36  4  0  0  0  0
 21 22  4  0  0  0  0
 22 23  1  0  0  0  0
 22 34  4  0  0  0  0
 23 24  1  0  0  0  0
 24 25  2  0  0  0  0
 24 26  2  0  0  0  0
 24 27  1  0  0  0  0
 27 28  4  0  0  0  0
 27 33  4  0  0  0  0
 28 29  4  0  0  0  0
 29 30  1  0  0  0  0
 29 31  4  0  0  0  0
 31 32  4  0  0  0  0
 32 33  4  0  0  0  0
 34 35  4  0  0  0  0
 35 36  4  0  0  0  0
M  STY  1   1 DAT
M  SAL   1  1   7
M  SDT   1 MRV_IMPLICIT_H                                        
M  SDD   1     0.0000    0.0000    DR    ALL  0       0  
M  SED   1 IMPL_H1
M  END
>  <Name_Molregno>
313743

>  <Beta-1>
7.05

>  <Beta-2>
7.15

$$$$
313950
  Marvin  02231216192D 0   1.00000     0.00000     0

 37 40  0  0  1  0  0  0  0  0999 V2000
  -10.7149   -2.6211    0.0000 S   0  0  0  0  0  0  0  0  0
  -11.5218   -2.7926    0.0000 O   0  0  0  0  0  0  0  0  0
  -10.5433   -3.4280    0.0000 O   0  0  0  0  0  0  0  0  0
  -10.8864   -1.8141    0.0000 C   0  0  0  0  0  0  0  0  0
   -9.9079   -2.4495    0.0000 C   0  0  0  0  0  0  0  0  0
   -9.6530   -1.6649    0.0000 C   0  0  0  0  0  0  0  0  0
  -10.0655   -0.9504    0.0000 N   0  0  0  0  0  0  0  0  0
   -9.5134   -0.3373    0.0000 C   0  0  0  0  0  0  0  0  0
   -8.7597   -0.6729    0.0000 C   0  0  0  0  0  0  0  0  0
   -8.8460   -1.4934    0.0000 C   0  0  0  0  0  0  0  0  0
   -8.2939   -2.1065    0.0000 C   0  0  0  0  0  0  0  0  0
   -8.5489   -2.8911    0.0000 C   0  0  0  0  0  0  0  0  0
   -9.3559   -3.0626    0.0000 C   0  0  0  0  0  0  0  0  0
   -8.0453   -0.2604    0.0000 C   0  0  0  0  0  0  0  0  0
   -7.3308   -0.6729    0.0000 C   0  0  0  0  0  0  0  0  0
   -6.6163   -0.2604    0.0000 N   0  0  0  0  0  0  0  0  0
   -5.9019   -0.6729    0.0000 C   0  0  0  0  0  0  0  0  0
   -5.1874   -0.2604    0.0000 C   0  0  0  0  0  0  0  0  0
   -5.1874    0.5646    0.0000 O   0  0  0  0  0  0  0  0  0
   -4.4729   -0.6729    0.0000 C   0  0  0  0  0  0  0  0  0
   -3.7584   -0.2604    0.0000 C   0  0  0  0  0  0  0  0  0
   -3.0440   -0.6729    0.0000 C   0  0  0  0  0  0  0  0  0
   -2.3295   -0.2604    0.0000 N   0  0  0  0  0  0  0  0  0
   -1.6150   -0.6729    0.0000 S   0  0  0  0  0  0  0  0  0
   -2.0275   -1.3874    0.0000 O   0  0  0  0  0  0  0  0  0
   -1.2025    0.0416    0.0000 O   0  0  0  0  0  0  0  0  0
   -0.9006   -1.0854    0.0000 C   0  0  0  0  0  0  0  0  0
   -0.1861   -0.6729    0.0000 C   0  0  0  0  0  0  0  0  0
    0.5284   -1.0854    0.0000 C   0  0  0  0  0  0  0  0  0
    1.2428   -0.6729    0.0000 N   0  0  0  0  0  0  0  0  0
    0.5284   -1.9104    0.0000 C   0  0  0  0  0  0  0  0  0
   -0.1861   -2.3229    0.0000 C   0  0  0  0  0  0  0  0  0
   -0.9006   -1.9104    0.0000 C   0  0  0  0  0  0  0  0  0
   -3.0440   -1.4979    0.0000 C   0  0  0  0  0  0  0  0  0
   -3.7584   -1.9104    0.0000 C   0  0  0  0  0  0  0  0  0
   -4.4729   -1.4979    0.0000 C   0  0  0  0  0  0  0  0  0
   -7.3308   -1.4979    0.0000 C   0  0  0  0  0  0  0  0  0
  1  2  2  0  0  0  0
  1  3  2  0  0  0  0
  1  4  1  0  0  0  0
  1  5  1  0  0  0  0
  5  6  4  0  0  0  0
  5 13  4  0  0  0  0
  6  7  4  0  0  0  0
  6 10  4  0  0  0  0
  7  8  4  0  0  0  0
  8  9  4  0  0  0  0
  9 10  4  0  0  0  0
  9 14  1  0  0  0  0
 10 11  4  0  0  0  0
 11 12  4  0  0  0  0
 12 13  4  0  0  0  0
 14 15  1  0  0  0  0
 15 16  1  0  0  0  0
 15 37  1  0  0  0  0
 16 17  1  0  0  0  0
 17 18  1  0  0  0  0
 18 19  1  0  0  0  0
 18 20  1  0  0  0  0
 20 21  4  0  0  0  0
 20 36  4  0  0  0  0
 21 22  4  0  0  0  0
 22 23  1  0  0  0  0
 22 34  4  0  0  0  0
 23 24  1  0  0  0  0
 24 25  2  0  0  0  0
 24 26  2  0  0  0  0
 24 27  1  0  0  0  0
 27 28  4  0  0  0  0
 27 33  4  0  0  0  0
 28 29  4  0  0  0  0
 29 30  1  0  0  0  0
 29 31  4  0  0  0  0
 31 32  4  0  0  0  0
 32 33  4  0  0  0  0
 34 35  4  0  0  0  0
 35 36  4  0  0  0  0
M  STY  1   1 DAT
M  SAL   1  1   7
M  SDT   1 MRV_IMPLICIT_H                                        
M  SDD   1     0.0000    0.0000    DR    ALL  0       0  
M  SED   1 IMPL_H1
M  END
>  <Name_Molregno>
313950

>  <Beta-1>
7.47

>  <Beta-2>
7.7

$$$$
320346
  Marvin  02231216192D 0   1.00000     0.00000     0

 25 28  0  0  1  0  0  0  0  0999 V2000
   -0.3965   -3.1617    0.0000 O   0  0  0  0  0  0  0  0  0
    0.3175   -3.5751    0.0000 C   0  0  0  0  0  0  0  0  0
    1.0325   -3.1634    0.0000 N   0  0  0  0  0  0  0  0  0
    1.0334   -2.3384    0.0000 C   0  0  0  0  0  0  0  0  0
    1.7484   -1.9268    0.0000 C   0  0  0  0  0  0  0  0  0
    1.7494   -1.1018    0.0000 C   0  0  0  0  0  0  0  0  0
    1.0354   -0.6884    0.0000 C   0  0  0  0  0  0  0  0  0
    0.3205   -1.1001    0.0000 N   0  0  0  0  0  0  0  0  0
    0.3195   -1.9251    0.0000 C   0  0  0  0  0  0  0  0  0
   -0.3935   -0.6867    0.0000 C   0  0  0  0  0  0  0  0  0
    1.0369    0.1357    0.0000 C   0  0  0  0  0  0  0  0  0
    1.7494    0.5482    0.0000 C   0  0  0  0  0  0  0  0  0
    2.4619    0.1357    0.0000 C   0  0  0  0  0  0  0  0  0
    2.4619   -0.6893    0.0000 C   0  0  0  0  0  0  0  0  0
    3.1798   -1.1018    0.0000 C   0  0  0  0  0  0  0  0  0
    3.8923   -0.6893    0.0000 C   0  0  0  0  0  0  0  0  0
    3.8923    0.1357    0.0000 C   0  0  0  0  0  0  0  0  0
    3.1798    0.5482    0.0000 C   0  0  0  0  0  0  0  0  0
    2.8744    1.4054    0.0000 N   0  0  0  0  0  0  0  0  0
    2.0494    1.4054    0.0000 C   0  0  0  0  0  0  0  0  0
    0.3165   -4.4001    0.0000 N   0  0  0  0  0  0  0  0  0
   -0.3985   -4.8117    0.0000 C   0  0  0  0  0  0  0  0  0
   -0.3994   -5.6367    0.0000 C   0  0  0  0  0  0  0  0  0
    1.0305   -4.8134    0.0000 C   0  0  0  0  0  0  0  0  0
    1.0295   -5.6384    0.0000 C   0  0  0  0  0  0  0  0  0
  1  2  2  0  0  0  0
  2  3  1  0  0  0  0
  2 21  1  0  0  0  0
  3  4  1  0  0  0  0
  4  5  1  0  0  0  0
  4  9  1  0  0  0  0
  5  6  2  0  0  0  0
  6  7  1  0  0  0  0
  6 14  1  0  0  0  0
  7  8  1  0  0  0  0
  7 11  1  0  0  0  0
  8  9  1  0  0  0  0
  8 10  1  0  0  0  0
 11 12  1  0  0  0  0
 12 13  4  0  0  0  0
 12 20  4  0  0  0  0
 13 14  4  0  0  0  0
 13 18  4  0  0  0  0
 14 15  4  0  0  0  0
 15 16  4  0  0  0  0
 16 17  4  0  0  0  0
 17 18  4  0  0  0  0
 18 19  4  0  0  0  0
 19 20  4  0  0  0  0
 21 22  1  0  0  0  0
 21 24  1  0  0  0  0
 22 23  1  0  0  0  0
 24 25  1  0  0  0  0
M  STY  1   1 DAT
M  SAL   1  1  19
M  SDT   1 MRV_IMPLICIT_H                                        
M  SDD   1     0.0000    0.0000    DR    ALL  0       0  
M  SED   1 IMPL_H1
M  END
>  <Name_Molregno>
320346

>  <5-HT1A>
9.06

>  <5-HT1B>
7.73

>  <5-HT1D>
9.01

>  <5-HT2A>
8.71

>  <5-HT2C>
8.2

>  <Alpha-1A>
8.26

>  <Alpha-1B>
7.78

>  <Alpha-2A>
10.26

>  <Alpha-2B>
9.87

>  <Beta-1>
7.17

>  <Beta-2>
8.1

>  <DOPAMINE D1>
7.19

>  <DOPAMINE D2>
9.31

>  <DOPAMINE D3>
9.14

>  <DOPAMINE D4>
8.33

>  <DOPAMINE D5>
8.45

$$$$
321985
  Marvin  02231216192D 0   1.00000     0.00000     0

 31 35  0  0  0  0  0  0  0  0999 V2000
    4.0403    1.1934    0.0000 O   0  0  0  0  0  0  0  0  0
    3.3258    0.7809    0.0000 C   0  0  0  0  0  0  0  0  0
    3.3258   -0.0441    0.0000 C   0  0  0  0  0  0  0  0  0
    2.6114   -0.4566    0.0000 N   0  0  0  0  0  0  0  0  0
    2.6114   -1.2816    0.0000 C   0  0  0  0  0  0  0  0  0
    1.8969   -1.6941    0.0000 C   0  0  0  0  0  0  0  0  0
    1.1824   -1.2816    0.0000 N   0  0  0  0  0  0  0  0  0
    1.1824   -0.4566    0.0000 C   0  0  0  0  0  0  0  0  0
    1.8969   -0.0441    0.0000 C   0  0  0  0  0  0  0  0  0
    0.4679   -1.6941    0.0000 C   0  0  0  0  0  0  0  0  0
   -0.2465   -1.2816    0.0000 C   0  0  0  0  0  0  0  0  0
   -0.9610   -1.6941    0.0000 C   0  0  0  0  0  0  0  0  0
   -0.9610   -2.5191    0.0000 N   0  0  0  0  0  0  0  0  0
   -1.6755   -2.9316    0.0000 C   0  0  0  0  0  0  0  0  0
   -2.3899   -2.5191    0.0000 C   0  0  0  0  0  0  0  0  0
   -2.3899   -1.6941    0.0000 C   0  0  0  0  0  0  0  0  0
   -1.6755   -1.2816    0.0000 C   0  0  0  0  0  0  0  0  0
   -1.6755   -0.4566    0.0000 C   0  0  0  0  0  0  0  0  0
   -0.9610   -0.0441    0.0000 C   0  0  0  0  0  0  0  0  0
   -0.2465   -0.4566    0.0000 C   0  0  0  0  0  0  0  0  0
    4.0403    2.0184    0.0000 C   0  0  0  0  0  0  0  0  0
    4.7548    2.4309    0.0000 C   0  0  0  0  0  0  0  0  0
    4.7548    3.2559    0.0000 C   0  0  0  0  0  0  0  0  0
    5.4692    3.6684    0.0000 N   0  0  0  0  0  0  0  0  0
    6.1837    3.2559    0.0000 C   0  0  0  0  0  0  0  0  0
    6.1837    2.4309    0.0000 C   0  0  0  0  0  0  0  0  0
    5.4692    2.0184    0.0000 C   0  0  0  0  0  0  0  0  0
    6.8982    3.6684    0.0000 C   0  0  0  0  0  0  0  0  0
    4.0403    3.6684    0.0000 C   0  0  0  0  0  0  0  0  0
    3.3258    3.2559    0.0000 C   0  0  0  0  0  0  0  0  0
    3.3258    2.4309    0.0000 C   0  0  0  0  0  0  0  0  0
  1  2  1  0  0  0  0
  1 21  1  0  0  0  0
  2  3  1  0  0  0  0
  3  4  1  0  0  0  0
  4  5  1  0  0  0  0
  4  9  1  0  0  0  0
  5  6  1  0  0  0  0
  6  7  1  0  0  0  0
  7  8  1  0  0  0  0
  7 10  1  0  0  0  0
  8  9  1  0  0  0  0
 10 11  1  0  0  0  0
 11 12  4  0  0  0  0
 11 20  4  0  0  0  0
 12 13  4  0  0  0  0
 12 17  4  0  0  0  0
 13 14  4  0  0  0  0
 14 15  4  0  0  0  0
 15 16  4  0  0  0  0
 16 17  4  0  0  0  0
 17 18  4  0  0  0  0
 18 19  4  0  0  0  0
 19 20  4  0  0  0  0
 21 22  4  0  0  0  0
 21 31  4  0  0  0  0
 22 23  4  0  0  0  0
 22 27  4  0  0  0  0
 23 24  4  0  0  0  0
 23 29  4  0  0  0  0
 24 25  4  0  0  0  0
 25 26  4  0  0  0  0
 25 28  1  0  0  0  0
 26 27  4  0  0  0  0
 29 30  4  0  0  0  0
 30 31  4  0  0  0  0
M  END
>  <Name_Molregno>
321985

>  <5-HT1A>
6.5

>  <5-HT1B>
6.7

>  <5-HT1D>
9.1

>  <5-HT1E>
5

>  <5-HT2A>
5.6

>  <5-HT2C>
5.5

>  <5-HT5>
5.5

>  <5-HT6>
5

>  <5-HT7>
6.3

>  <Alpha-1B>
6

>  <Beta-2>
5.7

>  <DOPAMINE D2>
5.5

>  <DOPAMINE D3>
6

>  <DOPAMINE D4>
5

$$$$
335202
  Marvin  02231216192D 0   1.00000     0.00000     0

 31 34  0  0  0  0  0  0  0  0999 V2000
   -5.3316    5.4643    0.0000 O   0  0  0  0  0  0  0  0  0
   -6.0461    5.8768    0.0000 C   0  0  0  0  0  0  0  0  0
   -4.6172    5.8768    0.0000 C   0  0  0  0  0  0  0  0  0
   -3.9027    5.4643    0.0000 C   0  0  0  0  0  0  0  0  0
   -3.1882    5.8768    0.0000 C   0  0  0  0  0  0  0  0  0
   -3.1882    6.7018    0.0000 C   0  0  0  0  0  0  0  0  0
   -3.9027    7.1143    0.0000 C   0  0  0  0  0  0  0  0  0
   -4.6172    6.7018    0.0000 C   0  0  0  0  0  0  0  0  0
   -2.4737    7.1143    0.0000 C   0  0  0  0  0  0  0  0  0
   -1.7593    6.7018    0.0000 C   0  0  0  0  0  0  0  0  0
   -1.7593    5.8768    0.0000 C   0  0  0  0  0  0  0  0  0
   -2.4737    5.4643    0.0000 C   0  0  0  0  0  0  0  0  0
   -2.4737    4.6393    0.0000 N   0  0  0  0  0  0  0  0  0
   -1.7593    4.2268    0.0000 C   0  0  0  0  0  0  0  0  0
   -1.7593    3.4018    0.0000 C   0  0  0  0  0  0  0  0  0
   -2.4737    2.9893    0.0000 N   0  0  0  0  0  0  0  0  0
   -3.1882    3.4018    0.0000 C   0  0  0  0  0  0  0  0  0
   -3.1882    4.2268    0.0000 C   0  0  0  0  0  0  0  0  0
   -2.4737    2.1643    0.0000 C   0  0  0  0  0  0  0  0  0
   -1.7593    1.7518    0.0000 C   0  0  0  0  0  0  0  0  0
   -1.7593    0.9268    0.0000 C   0  0  0  0  0  0  0  0  0
   -1.0448    0.5143    0.0000 C   0  0  0  0  0  0  0  0  0
   -1.0448   -0.3107    0.0000 N   0  0  0  0  0  0  0  0  0
   -0.3303   -0.7232    0.0000 N   0  0  0  0  0  0  0  0  0
   -0.3303   -1.5482    0.0000 C   0  0  0  0  0  0  0  0  0
   -1.0448   -1.9607    0.0000 C   0  0  0  0  0  0  0  0  0
   -1.0448   -2.7857    0.0000 O   0  0  0  0  0  0  0  0  0
   -1.7593   -1.5482    0.0000 N   0  0  0  0  0  0  0  0  0
   -2.4737   -1.9607    0.0000 C   0  0  0  0  0  0  0  0  0
   -1.7593   -0.7232    0.0000 C   0  0  0  0  0  0  0  0  0
   -2.4737   -0.3107    0.0000 O   0  0  0  0  0  0  0  0  0
  1  2  1  0  0  0  0
  1  3  1  0  0  0  0
  3  4  4  0  0  0  0
  3  8  4  0  0  0  0
  4  5  4  0  0  0  0
  5  6  4  0  0  0  0
  5 12  4  0  0  0  0
  6  7  4  0  0  0  0
  6  9  4  0  0  0  0
  7  8  4  0  0  0  0
  9 10  4  0  0  0  0
 10 11  4  0  0  0  0
 11 12  4  0  0  0  0
 12 13  1  0  0  0  0
 13 14  1  0  0  0  0
 13 18  1  0  0  0  0
 14 15  1  0  0  0  0
 15 16  1  0  0  0  0
 16 17  1  0  0  0  0
 16 19  1  0  0  0  0
 17 18  1  0  0  0  0
 19 20  1  0  0  0  0
 20 21  1  0  0  0  0
 21 22  1  0  0  0  0
 22 23  1  0  0  0  0
 23 24  1  0  0  0  0
 23 30  1  0  0  0  0
 24 25  2  0  0  0  0
 25 26  1  0  0  0  0
 26 27  2  0  0  0  0
 26 28  1  0  0  0  0
 28 29  1  0  0  0  0
 28 30  1  0  0  0  0
 30 31  2  0  0  0  0
M  END
>  <Name_Molregno>
335202

>  <5-HT1A>
8.87

>  <5-HT2A>
7.38

>  <5-HT2C>
7

>  <5-HT3>
5

>  <5-HT5>
6.64

>  <5-HT6>
6.92

>  <5-HT7>
8.04

>  <Alpha-2A>
5.99

>  <Alpha-2B>
6.5

>  <Alpha-2C>
7.63

>  <Beta-1>
6.32

>  <Beta-2>
7.22

>  <DOPAMINE D1>
5.13

>  <DOPAMINE D2>
7.66

>  <DOPAMINE D3>
7.2

>  <DOPAMINE D4>
8.07

>  <DOPAMINE D5>
5

>  <Dopamine transporter>
6.39

>  <HISTAMINE H1>
6.82

>  <HISTAMINE H2>
6.52

>  <HISTAMINE H3>
5

>  <HISTAMINE H4>
5

>  <Norepinephrine transporter>
5.16

>  <Serotonin transporter>
5.21

$$$$
345770
  Marvin  02231216192D 0   1.00000     0.00000     0

 29 31  0  0  1  0  0  0  0  0999 V2000
    1.3875    2.1313    0.0000 Cl  0  0  0  0  0  0  0  0  0
    1.3875    1.3063    0.0000 C   0  0  0  0  0  0  0  0  0
    2.1020    0.8938    0.0000 C   0  0  0  0  0  0  0  0  0
    2.1020    0.0688    0.0000 C   0  0  0  0  0  0  0  0  0
    1.3875   -0.3437    0.0000 C   0  0  0  0  0  0  0  0  0
    0.6730    0.0688    0.0000 C   0  0  0  0  0  0  0  0  0
    0.6730    0.8938    0.0000 C   0  0  0  0  0  0  0  0  0
    2.8164   -0.3437    0.0000 C   0  0  0  0  0  0  0  0  0
    2.8164   -1.1687    0.0000 O   0  0  0  0  0  0  0  0  0
    3.5309    0.0688    0.0000 C   0  0  0  0  0  0  0  0  0
    4.2454   -0.3437    0.0000 N   0  0  0  0  0  0  0  0  0
    4.9599    0.0688    0.0000 C   0  0  0  0  0  0  0  0  0
    5.6743   -0.3437    0.0000 C   0  0  0  0  0  0  0  0  0
    6.3888    0.0688    0.0000 N   0  0  0  0  0  0  0  0  0
    7.1033   -0.3437    0.0000 C   0  0  0  0  0  0  0  0  0
    7.8177    0.0688    0.0000 C   0  0  0  0  0  0  0  0  0
    8.5322   -0.3437    0.0000 C   0  0  0  0  0  0  0  0  0
    8.5322   -1.1687    0.0000 C   0  0  0  0  0  0  0  0  0
    7.8177   -1.5812    0.0000 C   0  0  0  0  0  0  0  0  0
    7.1033   -1.1687    0.0000 C   0  0  0  0  0  0  0  0  0
    9.2467    0.0688    0.0000 C   0  0  0  0  0  0  0  0  0
    9.2467    0.8938    0.0000 C   0  0  0  0  0  0  0  0  0
    9.9612    1.3063    0.0000 C   0  0  0  0  0  0  0  0  0
   10.6756    0.8938    0.0000 C   0  0  0  0  0  0  0  0  0
   10.6756    0.0688    0.0000 C   0  0  0  0  0  0  0  0  0
    9.9612   -0.3437    0.0000 C   0  0  0  0  0  0  0  0  0
    9.9612    2.1313    0.0000 C   0  0  0  0  0  0  0  0  0
   10.6756    2.5438    0.0000 O   0  0  0  0  0  0  0  0  0
    9.2467    2.5438    0.0000 O   0  0  0  0  0  0  0  0  0
  1  2  1  0  0  0  0
  2  3  4  0  0  0  0
  2  7  4  0  0  0  0
  3  4  4  0  0  0  0
  4  5  4  0  0  0  0
  4  8  1  0  0  0  0
  5  6  4  0  0  0  0
  6  7  4  0  0  0  0
  8  9  1  0  0  0  0
  8 10  1  0  0  0  0
 10 11  1  0  0  0  0
 11 12  1  0  0  0  0
 12 13  1  0  0  0  0
 13 14  1  0  0  0  0
 14 15  1  0  0  0  0
 15 16  4  0  0  0  0
 15 20  4  0  0  0  0
 16 17  4  0  0  0  0
 17 18  4  0  0  0  0
 17 21  1  0  0  0  0
 18 19  4  0  0  0  0
 19 20  4  0  0  0  0
 21 22  4  0  0  0  0
 21 26  4  0  0  0  0
 22 23  4  0  0  0  0
 23 24  4  0  0  0  0
 23 27  1  0  0  0  0
 24 25  4  0  0  0  0
 25 26  4  0  0  0  0
 27 28  1  0  0  0  0
 27 29  2  0  0  0  0
M  END
>  <Name_Molregno>
345770

>  <Beta-1>
6.4

>  <Beta-2>
5.8

$$$$
379240
  Marvin  02231216192D 0   1.00000     0.00000     0

 18 18  0  0  1  0  0  0  0  0999 V2000
   -5.2879    0.1006    0.0000 S   0  0  0  0  0  0  0  0  0
   -5.7728    0.7681    0.0000 O   0  0  0  0  0  0  0  0  0
   -5.9553   -0.3843    0.0000 O   0  0  0  0  0  0  0  0  0
   -4.8030   -0.5668    0.0000 N   0  0  0  0  0  0  0  0  0
   -3.9825   -0.4806    0.0000 C   0  0  0  0  0  0  0  0  0
   -3.5700    0.2339    0.0000 N   0  0  0  0  0  0  0  0  0
   -2.7630    0.0624    0.0000 O   0  0  0  0  0  0  0  0  0
   -2.6768   -0.7581    0.0000 C   0  0  0  0  0  0  0  0  0
   -3.4305   -1.0937    0.0000 C   0  0  0  0  0  0  0  0  0
   -1.9623   -1.1706    0.0000 C   0  0  0  0  0  0  0  0  0
   -1.9623   -1.9956    0.0000 O   0  0  0  0  0  0  0  0  0
   -1.2479   -0.7581    0.0000 C   0  0  0  0  0  0  0  0  0
   -0.5334   -1.1706    0.0000 N   0  0  0  0  0  0  0  0  0
    0.1811   -0.7581    0.0000 C   0  0  0  0  0  0  0  0  0
    0.8956   -0.3456    0.0000 C   0  0  0  0  0  0  0  0  0
    0.5936   -1.4726    0.0000 C   0  0  0  0  0  0  0  0  0
   -0.2314   -0.0436    0.0000 C   0  0  0  0  0  0  0  0  0
   -4.6205    0.5856    0.0000 C   0  0  0  0  0  0  0  0  0
  1  2  2  0  0  0  0
  1  3  2  0  0  0  0
  1  4  1  0  0  0  0
  1 18  1  0  0  0  0
  4  5  1  0  0  0  0
  5  6  4  0  0  0  0
  5  9  4  0  0  0  0
  6  7  4  0  0  0  0
  7  8  4  0  0  0  0
  8  9  4  0  0  0  0
  8 10  1  0  0  0  0
 10 11  1  0  0  0  0
 10 12  1  0  0  0  0
 12 13  1  0  0  0  0
 13 14  1  0  0  0  0
 14 15  1  0  0  0  0
 14 16  1  0  0  0  0
 14 17  1  0  0  0  0
M  END
>  <Name_Molregno>
379240

>  <Beta-1>
4

>  <Beta-2>
4

$$$$
379241
  Marvin  02231216192D 0   1.00000     0.00000     0

 24 25  0  0  1  0  0  0  0  0999 V2000
    0.7050   -0.8571    0.0000 Br  0  0  0  0  0  0  0  0  0
    1.0405   -0.1034    0.0000 C   0  0  0  0  0  0  0  0  0
    0.6280    0.6111    0.0000 N   0  0  0  0  0  0  0  0  0
    1.1801    1.2242    0.0000 O   0  0  0  0  0  0  0  0  0
    1.9337    0.8886    0.0000 C   0  0  0  0  0  0  0  0  0
    1.8475    0.0681    0.0000 C   0  0  0  0  0  0  0  0  0
    2.6482    1.3011    0.0000 C   0  0  0  0  0  0  0  0  0
    2.6482    2.1261    0.0000 O   0  0  0  0  0  0  0  0  0
    3.3627    0.8886    0.0000 C   0  0  0  0  0  0  0  0  0
    4.0771    1.3011    0.0000 N   0  0  0  0  0  0  0  0  0
    4.7916    0.8886    0.0000 C   0  0  0  0  0  0  0  0  0
    5.5061    1.3011    0.0000 C   0  0  0  0  0  0  0  0  0
    6.2206    0.8886    0.0000 C   0  0  0  0  0  0  0  0  0
    6.9350    1.3011    0.0000 C   0  0  0  0  0  0  0  0  0
    7.6495    0.8886    0.0000 C   0  0  0  0  0  0  0  0  0
    7.6495    0.0636    0.0000 C   0  0  0  0  0  0  0  0  0
    8.3640   -0.3489    0.0000 O   0  0  0  0  0  0  0  0  0
    9.0784    0.0636    0.0000 C   0  0  0  0  0  0  0  0  0
    9.7929   -0.3489    0.0000 C   0  0  0  0  0  0  0  0  0
   10.5074    0.0636    0.0000 O   0  0  0  0  0  0  0  0  0
    9.7929   -1.1739    0.0000 O   0  0  0  0  0  0  0  0  0
    6.9350   -0.3489    0.0000 C   0  0  0  0  0  0  0  0  0
    6.2206    0.0636    0.0000 C   0  0  0  0  0  0  0  0  0
    4.7916    0.0636    0.0000 C   0  0  0  0  0  0  0  0  0
  1  2  1  0  0  0  0
  2  3  4  0  0  0  0
  2  6  4  0  0  0  0
  3  4  4  0  0  0  0
  4  5  4  0  0  0  0
  5  6  4  0  0  0  0
  5  7  1  0  0  0  0
  7  8  1  0  0  0  0
  7  9  1  0  0  0  0
  9 10  1  0  0  0  0
 10 11  1  0  0  0  0
 11 12  1  0  0  0  0
 11 24  1  0  0  0  0
 12 13  1  0  0  0  0
 13 14  4  0  0  0  0
 13 23  4  0  0  0  0
 14 15  4  0  0  0  0
 15 16  4  0  0  0  0
 16 17  1  0  0  0  0
 16 22  4  0  0  0  0
 17 18  1  0  0  0  0
 18 19  1  0  0  0  0
 19 20  1  0  0  0  0
 19 21  2  0  0  0  0
 22 23  4  0  0  0  0
M  END
>  <Name_Molregno>
379241

>  <Beta-1>
6.2

>  <Beta-2>
7.08

$$$$
379245
  Marvin  02231216192D 0   1.00000     0.00000     0

 26 27  0  0  1  0  0  0  0  0999 V2000
    0.7064   -1.5930    0.0000 Br  0  0  0  0  0  0  0  0  0
    1.0419   -0.8393    0.0000 C   0  0  0  0  0  0  0  0  0
    0.6294   -0.1249    0.0000 N   0  0  0  0  0  0  0  0  0
    1.1814    0.4882    0.0000 O   0  0  0  0  0  0  0  0  0
    1.9351    0.1527    0.0000 C   0  0  0  0  0  0  0  0  0
    1.8489   -0.6678    0.0000 C   0  0  0  0  0  0  0  0  0
    2.6496    0.5652    0.0000 C   0  0  0  0  0  0  0  0  0
    2.6496    1.3902    0.0000 O   0  0  0  0  0  0  0  0  0
    3.3641    0.1527    0.0000 C   0  0  0  0  0  0  0  0  0
    4.0785    0.5652    0.0000 N   0  0  0  0  0  0  0  0  0
    4.7930    0.1527    0.0000 C   0  0  0  0  0  0  0  0  0
    5.5075    0.5652    0.0000 C   0  0  0  0  0  0  0  0  0
    6.2219    0.1527    0.0000 C   0  0  0  0  0  0  0  0  0
    6.9364    0.5652    0.0000 C   0  0  0  0  0  0  0  0  0
    7.6509    0.1527    0.0000 C   0  0  0  0  0  0  0  0  0
    7.6509   -0.6723    0.0000 C   0  0  0  0  0  0  0  0  0
    8.3654   -1.0848    0.0000 O   0  0  0  0  0  0  0  0  0
    9.0798   -0.6723    0.0000 C   0  0  0  0  0  0  0  0  0
    9.7943   -1.0848    0.0000 C   0  0  0  0  0  0  0  0  0
   10.5088   -0.6723    0.0000 O   0  0  0  0  0  0  0  0  0
   11.2232   -1.0848    0.0000 C   0  0  0  0  0  0  0  0  0
   11.9377   -0.6723    0.0000 C   0  0  0  0  0  0  0  0  0
    9.7943   -1.9098    0.0000 O   0  0  0  0  0  0  0  0  0
    6.9364   -1.0848    0.0000 C   0  0  0  0  0  0  0  0  0
    6.2219   -0.6723    0.0000 C   0  0  0  0  0  0  0  0  0
    4.7930   -0.6723    0.0000 C   0  0  0  0  0  0  0  0  0
  1  2  1  0  0  0  0
  2  3  4  0  0  0  0
  2  6  4  0  0  0  0
  3  4  4  0  0  0  0
  4  5  4  0  0  0  0
  5  6  4  0  0  0  0
  5  7  1  0  0  0  0
  7  8  1  0  0  0  0
  7  9  1  0  0  0  0
  9 10  1  0  0  0  0
 10 11  1  0  0  0  0
 11 12  1  0  0  0  0
 11 26  1  0  0  0  0
 12 13  1  0  0  0  0
 13 14  4  0  0  0  0
 13 25  4  0  0  0  0
 14 15  4  0  0  0  0
 15 16  4  0  0  0  0
 16 17  1  0  0  0  0
 16 24  4  0  0  0  0
 17 18  1  0  0  0  0
 18 19  1  0  0  0  0
 19 20  1  0  0  0  0
 19 23  2  0  0  0  0
 20 21  1  0  0  0  0
 21 22  1  0  0  0  0
 24 25  4  0  0  0  0
M  END
>  <Name_Molregno>
379245

>  <Beta-1>
6.79

>  <Beta-2>
7.82

$$$$
379247
  Marvin  02231216192D 0   1.00000     0.00000     0

 24 25  0  0  1  0  0  0  0  0999 V2000
    1.7788   -2.8036    0.0000 Br  0  0  0  0  0  0  0  0  0
    2.1143   -2.0499    0.0000 C   0  0  0  0  0  0  0  0  0
    1.7018   -1.3355    0.0000 N   0  0  0  0  0  0  0  0  0
    2.2539   -0.7224    0.0000 O   0  0  0  0  0  0  0  0  0
    3.0075   -1.0579    0.0000 C   0  0  0  0  0  0  0  0  0
    2.9213   -1.8784    0.0000 C   0  0  0  0  0  0  0  0  0
    3.7220   -0.6454    0.0000 C   0  0  0  0  0  0  0  0  0
    3.7220    0.1796    0.0000 O   0  0  0  0  0  0  0  0  0
    4.4365   -1.0579    0.0000 C   0  0  0  0  0  0  0  0  0
    5.1510   -0.6454    0.0000 N   0  0  0  0  0  0  0  0  0
    5.8654   -1.0579    0.0000 C   0  0  0  0  0  0  0  0  0
    6.5799   -0.6454    0.0000 C   0  0  0  0  0  0  0  0  0
    6.5799    0.1796    0.0000 C   0  0  0  0  0  0  0  0  0
    5.8654    0.5921    0.0000 C   0  0  0  0  0  0  0  0  0
    5.8654    1.4171    0.0000 C   0  0  0  0  0  0  0  0  0
    6.5799    1.8296    0.0000 C   0  0  0  0  0  0  0  0  0
    6.5799    2.6546    0.0000 O   0  0  0  0  0  0  0  0  0
    7.2944    3.0671    0.0000 C   0  0  0  0  0  0  0  0  0
    7.2944    3.8921    0.0000 C   0  0  0  0  0  0  0  0  0
    8.0088    4.3046    0.0000 C   0  0  0  0  0  0  0  0  0
    8.0088    5.1296    0.0000 C   0  0  0  0  0  0  0  0  0
    7.2944    1.4171    0.0000 C   0  0  0  0  0  0  0  0  0
    7.2944    0.5921    0.0000 C   0  0  0  0  0  0  0  0  0
    5.8654   -1.8829    0.0000 C   0  0  0  0  0  0  0  0  0
  1  2  1  0  0  0  0
  2  3  4  0  0  0  0
  2  6  4  0  0  0  0
  3  4  4  0  0  0  0
  4  5  4  0  0  0  0
  5  6  4  0  0  0  0
  5  7  1  0  0  0  0
  7  8  1  0  0  0  0
  7  9  1  0  0  0  0
  9 10  1  0  0  0  0
 10 11  1  0  0  0  0
 11 12  1  0  0  0  0
 11 24  1  0  0  0  0
 12 13  1  0  0  0  0
 13 14  4  0  0  0  0
 13 23  4  0  0  0  0
 14 15  4  0  0  0  0
 15 16  4  0  0  0  0
 16 17  1  0  0  0  0
 16 22  4  0  0  0  0
 17 18  1  0  0  0  0
 18 19  1  0  0  0  0
 19 20  1  0  0  0  0
 20 21  1  0  0  0  0
 22 23  4  0  0  0  0
M  END
>  <Name_Molregno>
379247

>  <Beta-1>
6.42

>  <Beta-2>
7.08

$$$$
380840
  Marvin  02231216192D 0   1.00000     0.00000     0

 22 23  0  0  1  0  0  0  0  0999 V2000
   -0.1090    0.0070    0.0000 O   0  0  0  0  0  0  0  0  0
    0.6054   -0.4055    0.0000 C   0  0  0  0  0  0  0  0  0
    1.3199    0.0070    0.0000 C   0  0  0  0  0  0  0  0  0
    2.0344   -0.4055    0.0000 C   0  0  0  0  0  0  0  0  0
    2.0344   -1.2305    0.0000 C   0  0  0  0  0  0  0  0  0
    1.3199   -1.6430    0.0000 C   0  0  0  0  0  0  0  0  0
    1.3199   -2.4680    0.0000 O   0  0  0  0  0  0  0  0  0
    0.6054   -1.2305    0.0000 C   0  0  0  0  0  0  0  0  0
    2.7488    0.0070    0.0000 C   0  0  0  0  0  0  0  0  0
    2.7488    0.8320    0.0000 O   0  0  0  0  0  0  0  0  0
    3.4633   -0.4055    0.0000 C   0  0  0  0  0  0  0  0  0
    4.1778    0.0070    0.0000 N   0  0  0  0  0  0  0  0  0
    4.8922   -0.4055    0.0000 C   0  0  0  0  0  0  0  0  0
    5.6067    0.0070    0.0000 C   0  0  0  0  0  0  0  0  0
    6.3212   -0.4055    0.0000 C   0  0  0  0  0  0  0  0  0
    7.0357    0.0070    0.0000 C   0  0  0  0  0  0  0  0  0
    7.7501   -0.4055    0.0000 C   0  0  0  0  0  0  0  0  0
    7.7501   -1.2305    0.0000 C   0  0  0  0  0  0  0  0  0
    8.4646   -1.6430    0.0000 O   0  0  0  0  0  0  0  0  0
    7.0357   -1.6430    0.0000 C   0  0  0  0  0  0  0  0  0
    6.3212   -1.2305    0.0000 C   0  0  0  0  0  0  0  0  0
    4.8922   -1.2305    0.0000 C   0  0  0  0  0  0  0  0  0
  1  2  1  0  0  0  0
  2  3  4  0  0  0  0
  2  8  4  0  0  0  0
  3  4  4  0  0  0  0
  4  5  4  0  0  0  0
  4  9  1  0  0  0  0
  5  6  4  0  0  0  0
  6  7  1  0  0  0  0
  6  8  4  0  0  0  0
  9 10  1  0  0  0  0
  9 11  1  0  0  0  0
 11 12  1  0  0  0  0
 12 13  1  0  0  0  0
 13 14  1  0  0  0  0
 13 22  1  0  0  0  0
 14 15  1  0  0  0  0
 15 16  4  0  0  0  0
 15 21  4  0  0  0  0
 16 17  4  0  0  0  0
 17 18  4  0  0  0  0
 18 19  1  0  0  0  0
 18 20  4  0  0  0  0
 20 21  4  0  0  0  0
M  END
>  <Name_Molregno>
380840

>  <Beta-1>
5

>  <Beta-2>
5.45

$$$$
380877
  Marvin  02231216192D 0   1.00000     0.00000     0

 23 24  0  0  1  0  0  0  0  0999 V2000
   -8.2629    0.4260    0.0000 O   0  0  0  0  0  0  0  0  0
   -8.2629   -0.3990    0.0000 C   0  0  0  0  0  0  0  0  0
   -7.5484    0.8385    0.0000 C   0  0  0  0  0  0  0  0  0
   -7.5484    1.6635    0.0000 C   0  0  0  0  0  0  0  0  0
   -6.8339    2.0760    0.0000 C   0  0  0  0  0  0  0  0  0
   -6.1194    1.6635    0.0000 C   0  0  0  0  0  0  0  0  0
   -6.1194    0.8385    0.0000 C   0  0  0  0  0  0  0  0  0
   -6.8339    0.4260    0.0000 C   0  0  0  0  0  0  0  0  0
   -5.4050    2.0760    0.0000 C   0  0  0  0  0  0  0  0  0
   -4.6905    1.6635    0.0000 C   0  0  0  0  0  0  0  0  0
   -3.9760    2.0760    0.0000 N   0  0  0  0  0  0  0  0  0
   -3.2616    1.6635    0.0000 C   0  0  0  0  0  0  0  0  0
   -2.5471    2.0760    0.0000 C   0  0  0  0  0  0  0  0  0
   -2.5471    2.9010    0.0000 O   0  0  0  0  0  0  0  0  0
   -1.8326    1.6635    0.0000 C   0  0  0  0  0  0  0  0  0
   -1.1181    2.0760    0.0000 C   0  0  0  0  0  0  0  0  0
   -0.4037    1.6635    0.0000 C   0  0  0  0  0  0  0  0  0
    0.3108    2.0760    0.0000 O   0  0  0  0  0  0  0  0  0
   -0.4037    0.8385    0.0000 C   0  0  0  0  0  0  0  0  0
   -1.1181    0.4260    0.0000 C   0  0  0  0  0  0  0  0  0
   -1.1181   -0.3990    0.0000 O   0  0  0  0  0  0  0  0  0
   -1.8326    0.8385    0.0000 C   0  0  0  0  0  0  0  0  0
   -4.6905    0.8385    0.0000 C   0  0  0  0  0  0  0  0  0
  1  2  1  0  0  0  0
  1  3  1  0  0  0  0
  3  4  4  0  0  0  0
  3  8  4  0  0  0  0
  4  5  4  0  0  0  0
  5  6  4  0  0  0  0
  6  7  4  0  0  0  0
  6  9  1  0  0  0  0
  7  8  4  0  0  0  0
  9 10  1  0  0  0  0
 10 11  1  0  0  0  0
 10 23  1  0  0  0  0
 11 12  1  0  0  0  0
 12 13  1  0  0  0  0
 13 14  1  0  0  0  0
 13 15  1  0  0  0  0
 15 16  4  0  0  0  0
 15 22  4  0  0  0  0
 16 17  4  0  0  0  0
 17 18  1  0  0  0  0
 17 19  4  0  0  0  0
 19 20  4  0  0  0  0
 20 21  1  0  0  0  0
 20 22  4  0  0  0  0
M  END
>  <Name_Molregno>
380877

>  <Beta-2>
5.53

$$$$
380898
  Marvin  02231216192D 0   1.00000     0.00000     0

 21 22  0  0  1  0  0  0  0  0999 V2000
   -0.1012    0.0195    0.0000 O   0  0  0  0  0  0  0  0  0
    0.6133   -0.3930    0.0000 C   0  0  0  0  0  0  0  0  0
    1.3278    0.0195    0.0000 C   0  0  0  0  0  0  0  0  0
    2.0422   -0.3930    0.0000 C   0  0  0  0  0  0  0  0  0
    2.0422   -1.2180    0.0000 C   0  0  0  0  0  0  0  0  0
    1.3278   -1.6305    0.0000 C   0  0  0  0  0  0  0  0  0
    1.3278   -2.4555    0.0000 O   0  0  0  0  0  0  0  0  0
    0.6133   -1.2180    0.0000 C   0  0  0  0  0  0  0  0  0
    2.7567    0.0195    0.0000 C   0  0  0  0  0  0  0  0  0
    2.7567    0.8445    0.0000 O   0  0  0  0  0  0  0  0  0
    3.4712   -0.3930    0.0000 C   0  0  0  0  0  0  0  0  0
    4.1856    0.0195    0.0000 N   0  0  0  0  0  0  0  0  0
    4.9001   -0.3930    0.0000 C   0  0  0  0  0  0  0  0  0
    5.6146    0.0195    0.0000 C   0  0  0  0  0  0  0  0  0
    6.3291   -0.3930    0.0000 C   0  0  0  0  0  0  0  0  0
    7.0435    0.0195    0.0000 C   0  0  0  0  0  0  0  0  0
    7.7580   -0.3930    0.0000 C   0  0  0  0  0  0  0  0  0
    7.7580   -1.2180    0.0000 C   0  0  0  0  0  0  0  0  0
    7.0435   -1.6305    0.0000 C   0  0  0  0  0  0  0  0  0
    6.3291   -1.2180    0.0000 C   0  0  0  0  0  0  0  0  0
    4.9001   -1.2180    0.0000 C   0  0  0  0  0  0  0  0  0
  1  2  1  0  0  0  0
  2  3  4  0  0  0  0
  2  8  4  0  0  0  0
  3  4  4  0  0  0  0
  4  5  4  0  0  0  0
  4  9  1  0  0  0  0
  5  6  4  0  0  0  0
  6  7  1  0  0  0  0
  6  8  4  0  0  0  0
  9 10  1  0  0  0  0
  9 11  1  0  0  0  0
 11 12  1  0  0  0  0
 12 13  1  0  0  0  0
 13 14  1  0  0  0  0
 13 21  1  0  0  0  0
 14 15  1  0  0  0  0
 15 16  4  0  0  0  0
 15 20  4  0  0  0  0
 16 17  4  0  0  0  0
 17 18  4  0  0  0  0
 18 19  4  0  0  0  0
 19 20  4  0  0  0  0
M  END
>  <Name_Molregno>
380898

>  <Beta-2>
4.95

$$$$
380906
  Marvin  02231216192D 0   1.00000     0.00000     0

 22 23  0  0  1  0  0  0  0  0999 V2000
   -0.1090    0.0070    0.0000 O   0  0  0  0  0  0  0  0  0
    0.6054   -0.4055    0.0000 C   0  0  0  0  0  0  0  0  0
    1.3199    0.0070    0.0000 C   0  0  0  0  0  0  0  0  0
    2.0344   -0.4055    0.0000 C   0  0  0  0  0  0  0  0  0
    2.0344   -1.2305    0.0000 C   0  0  0  0  0  0  0  0  0
    1.3199   -1.6430    0.0000 C   0  0  0  0  0  0  0  0  0
    1.3199   -2.4680    0.0000 O   0  0  0  0  0  0  0  0  0
    0.6054   -1.2305    0.0000 C   0  0  0  0  0  0  0  0  0
    2.7488    0.0070    0.0000 C   0  0  0  0  0  0  0  0  0
    2.7488    0.8320    0.0000 O   0  0  0  0  0  0  0  0  0
    3.4633   -0.4055    0.0000 C   0  0  0  0  0  0  0  0  0
    4.1778    0.0070    0.0000 N   0  0  0  0  0  0  0  0  0
    4.8922   -0.4055    0.0000 C   0  0  0  0  0  0  0  0  0
    5.6067    0.0070    0.0000 C   0  0  0  0  0  0  0  0  0
    6.3212   -0.4055    0.0000 C   0  0  0  0  0  0  0  0  0
    7.0357    0.0070    0.0000 C   0  0  0  0  0  0  0  0  0
    7.7501   -0.4055    0.0000 C   0  0  0  0  0  0  0  0  0
    7.7501   -1.2305    0.0000 C   0  0  0  0  0  0  0  0  0
    8.4646   -1.6430    0.0000 N   0  0  0  0  0  0  0  0  0
    7.0357   -1.6430    0.0000 C   0  0  0  0  0  0  0  0  0
    6.3212   -1.2305    0.0000 C   0  0  0  0  0  0  0  0  0
    4.8922   -1.2305    0.0000 C   0  0  0  0  0  0  0  0  0
  1  2  1  0  0  0  0
  2  3  4  0  0  0  0
  2  8  4  0  0  0  0
  3  4  4  0  0  0  0
  4  5  4  0  0  0  0
  4  9  1  0  0  0  0
  5  6  4  0  0  0  0
  6  7  1  0  0  0  0
  6  8  4  0  0  0  0
  9 10  1  0  0  0  0
  9 11  1  0  0  0  0
 11 12  1  0  0  0  0
 12 13  1  0  0  0  0
 13 14  1  0  0  0  0
 13 22  1  0  0  0  0
 14 15  1  0  0  0  0
 15 16  4  0  0  0  0
 15 21  4  0  0  0  0
 16 17  4  0  0  0  0
 17 18  4  0  0  0  0
 18 19  1  0  0  0  0
 18 20  4  0  0  0  0
 20 21  4  0  0  0  0
M  END
>  <Name_Molregno>
380906

>  <Beta-2>
5

$$$$
380911
  Marvin  02231216192D 0   1.00000     0.00000     0

 25 27  0  0  1  0  0  0  0  0999 V2000
    0.5046    1.8518    0.0000 O   0  0  0  0  0  0  0  0  0
    0.5046    1.0268    0.0000 C   0  0  0  0  0  0  0  0  0
    1.2191    0.6143    0.0000 C   0  0  0  0  0  0  0  0  0
    1.2191   -0.2107    0.0000 C   0  0  0  0  0  0  0  0  0
    0.5046   -0.6232    0.0000 C   0  0  0  0  0  0  0  0  0
   -0.2099   -0.2107    0.0000 C   0  0  0  0  0  0  0  0  0
   -0.9244   -0.6232    0.0000 O   0  0  0  0  0  0  0  0  0
   -0.2099    0.6143    0.0000 C   0  0  0  0  0  0  0  0  0
    1.9335   -0.6232    0.0000 C   0  0  0  0  0  0  0  0  0
    1.9335   -1.4482    0.0000 O   0  0  0  0  0  0  0  0  0
    2.6480   -0.2107    0.0000 C   0  0  0  0  0  0  0  0  0
    3.3625   -0.6232    0.0000 N   0  0  0  0  0  0  0  0  0
    4.0769   -0.2107    0.0000 C   0  0  0  0  0  0  0  0  0
    4.7914   -0.6232    0.0000 C   0  0  0  0  0  0  0  0  0
    5.5059   -0.2107    0.0000 C   0  0  0  0  0  0  0  0  0
    6.2204   -0.6232    0.0000 C   0  0  0  0  0  0  0  0  0
    6.9348   -0.2107    0.0000 C   0  0  0  0  0  0  0  0  0
    6.9348    0.6143    0.0000 C   0  0  0  0  0  0  0  0  0
    6.2204    1.0268    0.0000 C   0  0  0  0  0  0  0  0  0
    5.5059    0.6143    0.0000 C   0  0  0  0  0  0  0  0  0
    7.6493   -0.6232    0.0000 C   0  0  0  0  0  0  0  0  0
    7.6493   -1.4482    0.0000 C   0  0  0  0  0  0  0  0  0
    6.9348   -1.8607    0.0000 C   0  0  0  0  0  0  0  0  0
    6.2204   -1.4482    0.0000 C   0  0  0  0  0  0  0  0  0
    4.0769    0.6143    0.0000 C   0  0  0  0  0  0  0  0  0
  1  2  1  0  0  0  0
  2  3  4  0  0  0  0
  2  8  4  0  0  0  0
  3  4  4  0  0  0  0
  4  5  4  0  0  0  0
  4  9  1  0  0  0  0
  5  6  4  0  0  0  0
  6  7  1  0  0  0  0
  6  8  4  0  0  0  0
  9 10  1  0  0  0  0
  9 11  1  0  0  0  0
 11 12  1  0  0  0  0
 12 13  1  0  0  0  0
 13 14  1  0  0  0  0
 13 25  1  0  0  0  0
 14 15  1  0  0  0  0
 15 16  4  0  0  0  0
 15 20  4  0  0  0  0
 16 17  4  0  0  0  0
 16 24  4  0  0  0  0
 17 18  4  0  0  0  0
 17 21  4  0  0  0  0
 18 19  4  0  0  0  0
 19 20  4  0  0  0  0
 21 22  4  0  0  0  0
 22 23  4  0  0  0  0
 23 24  4  0  0  0  0
M  END
>  <Name_Molregno>
380911

>  <Beta-2>
6.11

$$$$
380915
  Marvin  02231216192D 0   1.00000     0.00000     0

 18 18  0  0  1  0  0  0  0  0999 V2000
   -0.0379    0.0632    0.0000 O   0  0  0  0  0  0  0  0  0
   -0.0379   -0.7618    0.0000 C   0  0  0  0  0  0  0  0  0
    0.6765   -1.1743    0.0000 C   0  0  0  0  0  0  0  0  0
    0.6765   -1.9993    0.0000 C   0  0  0  0  0  0  0  0  0
   -0.0379   -2.4118    0.0000 C   0  0  0  0  0  0  0  0  0
   -0.7524   -1.9993    0.0000 C   0  0  0  0  0  0  0  0  0
   -1.4669   -2.4118    0.0000 O   0  0  0  0  0  0  0  0  0
   -0.7524   -1.1743    0.0000 C   0  0  0  0  0  0  0  0  0
    1.3910   -2.4118    0.0000 C   0  0  0  0  0  0  0  0  0
    1.3910   -3.2368    0.0000 O   0  0  0  0  0  0  0  0  0
    2.1055   -1.9993    0.0000 C   0  0  0  0  0  0  0  0  0
    2.8200   -2.4118    0.0000 N   0  0  0  0  0  0  0  0  0
    3.5344   -1.9993    0.0000 C   0  0  0  0  0  0  0  0  0
    4.2489   -2.4118    0.0000 C   0  0  0  0  0  0  0  0  0
    4.9634   -1.9993    0.0000 C   0  0  0  0  0  0  0  0  0
    5.6778   -2.4118    0.0000 C   0  0  0  0  0  0  0  0  0
    6.3923   -1.9993    0.0000 C   0  0  0  0  0  0  0  0  0
    3.5344   -1.1743    0.0000 C   0  0  0  0  0  0  0  0  0
  1  2  1  0  0  0  0
  2  3  4  0  0  0  0
  2  8  4  0  0  0  0
  3  4  4  0  0  0  0
  4  5  4  0  0  0  0
  4  9  1  0  0  0  0
  5  6  4  0  0  0  0
  6  7  1  0  0  0  0
  6  8  4  0  0  0  0
  9 10  1  0  0  0  0
  9 11  1  0  0  0  0
 11 12  1  0  0  0  0
 12 13  1  0  0  0  0
 13 14  1  0  0  0  0
 13 18  1  0  0  0  0
 14 15  1  0  0  0  0
 15 16  1  0  0  0  0
 16 17  1  0  0  0  0
M  END
>  <Name_Molregno>
380915

>  <Beta-2>
4.45

$$$$
380919
  Marvin  02231216192D 0   1.00000     0.00000     0

 20 21  0  0  1  0  0  0  0  0999 V2000
   -0.1033    1.2398    0.0000 O   0  0  0  0  0  0  0  0  0
    0.6112    0.8273    0.0000 C   0  0  0  0  0  0  0  0  0
    1.3257    1.2398    0.0000 C   0  0  0  0  0  0  0  0  0
    2.0401    0.8273    0.0000 C   0  0  0  0  0  0  0  0  0
    2.0401    0.0023    0.0000 C   0  0  0  0  0  0  0  0  0
    1.3257   -0.4102    0.0000 C   0  0  0  0  0  0  0  0  0
    1.3257   -1.2352    0.0000 O   0  0  0  0  0  0  0  0  0
    0.6112    0.0023    0.0000 C   0  0  0  0  0  0  0  0  0
    2.7546    1.2398    0.0000 C   0  0  0  0  0  0  0  0  0
    2.7546    2.0648    0.0000 O   0  0  0  0  0  0  0  0  0
    3.4691    0.8273    0.0000 C   0  0  0  0  0  0  0  0  0
    4.1836    1.2398    0.0000 N   0  0  0  0  0  0  0  0  0
    4.8980    0.8273    0.0000 C   0  0  0  0  0  0  0  0  0
    5.6125    1.2398    0.0000 C   0  0  0  0  0  0  0  0  0
    6.3270    0.8273    0.0000 C   0  0  0  0  0  0  0  0  0
    7.0414    1.2398    0.0000 C   0  0  0  0  0  0  0  0  0
    7.7559    0.8273    0.0000 C   0  0  0  0  0  0  0  0  0
    7.7559    0.0023    0.0000 C   0  0  0  0  0  0  0  0  0
    7.0414   -0.4102    0.0000 C   0  0  0  0  0  0  0  0  0
    6.3270    0.0023    0.0000 C   0  0  0  0  0  0  0  0  0
  1  2  1  0  0  0  0
  2  3  4  0  0  0  0
  2  8  4  0  0  0  0
  3  4  4  0  0  0  0
  4  5  4  0  0  0  0
  4  9  1  0  0  0  0
  5  6  4  0  0  0  0
  6  7  1  0  0  0  0
  6  8  4  0  0  0  0
  9 10  1  0  0  0  0
  9 11  1  0  0  0  0
 11 12  1  0  0  0  0
 12 13  1  0  0  0  0
 13 14  1  0  0  0  0
 14 15  1  0  0  0  0
 15 16  4  0  0  0  0
 15 20  4  0  0  0  0
 16 17  4  0  0  0  0
 17 18  4  0  0  0  0
 18 19  4  0  0  0  0
 19 20  4  0  0  0  0
M  END
>  <Name_Molregno>
380919

>  <Beta-2>
4.84

$$$$
382415
  Marvin  02231216192D 0   1.00000     0.00000     0

 18 19  0  0  0  0  0  0  0  0999 V2000
   -0.7360    1.4792    0.0000 S   0  0  0  0  0  0  0  0  0
   -0.9909    0.6946    0.0000 C   0  0  0  0  0  0  0  0  0
   -1.8159    0.6946    0.0000 C   0  0  0  0  0  0  0  0  0
   -2.0709    1.4792    0.0000 N   0  0  0  0  0  0  0  0  0
   -1.4034    1.9642    0.0000 C   0  0  0  0  0  0  0  0  0
   -1.4034    2.7892    0.0000 C   0  0  0  0  0  0  0  0  0
   -0.6890    3.2017    0.0000 F   0  0  0  0  0  0  0  0  0
   -2.3008    0.0272    0.0000 C   0  0  0  0  0  0  0  0  0
   -2.7858   -0.6403    0.0000 C   0  0  0  0  0  0  0  0  0
   -3.2707   -1.3077    0.0000 C   0  0  0  0  0  0  0  0  0
   -2.9351   -2.0614    0.0000 C   0  0  0  0  0  0  0  0  0
   -3.4201   -2.7288    0.0000 C   0  0  0  0  0  0  0  0  0
   -4.2405   -2.6426    0.0000 C   0  0  0  0  0  0  0  0  0
   -4.5761   -1.8889    0.0000 C   0  0  0  0  0  0  0  0  0
   -5.3966   -1.8027    0.0000 F   0  0  0  0  0  0  0  0  0
   -4.0912   -1.2215    0.0000 C   0  0  0  0  0  0  0  0  0
   -3.0845   -3.4825    0.0000 C   0  0  0  0  0  0  0  0  0
   -2.7489   -4.2362    0.0000 N   0  0  0  0  0  0  0  0  0
  1  2  4  0  0  0  0
  1  5  4  0  0  0  0
  2  3  4  0  0  0  0
  3  4  4  0  0  0  0
  3  8  1  0  0  0  0
  4  5  4  0  0  0  0
  5  6  1  0  0  0  0
  6  7  1  0  0  0  0
  8  9  3  0  0  0  0
  9 10  1  0  0  0  0
 10 11  4  0  0  0  0
 10 16  4  0  0  0  0
 11 12  4  0  0  0  0
 12 13  4  0  0  0  0
 12 17  1  0  0  0  0
 13 14  4  0  0  0  0
 14 15  1  0  0  0  0
 14 16  4  0  0  0  0
 17 18  3  0  0  0  0
M  END
>  <Name_Molregno>
382415

>  <5-HT1A>
5

>  <5-HT1B>
5

>  <5-HT1D>
5

>  <5-HT1E>
5

>  <5-HT2A>
5

>  <5-HT2C>
5

>  <5-HT3>
5

>  <5-HT5>
5

>  <5-HT6>
5

>  <5-HT7>
5

>  <Alpha-1A>
5

>  <Alpha-1B>
5

>  <Alpha-2A>
5

>  <Alpha-2B>
5

>  <Alpha-2C>
5

>  <Beta-1>
5

>  <Beta-2>
5

>  <DOPAMINE D1>
5

>  <DOPAMINE D2>
5

>  <DOPAMINE D3>
5

>  <DOPAMINE D4>
5

>  <DOPAMINE D5>
5

>  <Dopamine transporter>
5

>  <HISTAMINE H1>
5

>  <HISTAMINE H2>
5

>  <HISTAMINE H3>
5

>  <HISTAMINE H4>
5

>  <Muscarinic acetylcholine receptor M1>
5

>  <Muscarinic acetylcholine receptor M2>
5

>  <Muscarinic acetylcholine receptor M3>
5

>  <Muscarinic acetylcholine receptor M4>
5

>  <Muscarinic acetylcholine receptor M5>
5

>  <Norepinephrine transporter>
5

>  <Serotonin transporter>
5

$$$$
389011
  Marvin  02231216192D 0   1.00000     0.00000     0

 25 26  0  0  1  0  0  0  0  0999 V2000
   -2.9244    1.8604    0.0000 S   0  0  0  0  0  0  0  0  0
   -3.7494    1.8604    0.0000 O   0  0  0  0  0  0  0  0  0
   -2.0994    1.8604    0.0000 O   0  0  0  0  0  0  0  0  0
   -2.9244    2.6854    0.0000 C   0  0  0  0  0  0  0  0  0
   -3.6388    3.0979    0.0000 C   0  0  0  0  0  0  0  0  0
   -2.9244    1.0354    0.0000 C   0  0  0  0  0  0  0  0  0
   -2.2099    0.6229    0.0000 C   0  0  0  0  0  0  0  0  0
   -2.2099   -0.2021    0.0000 C   0  0  0  0  0  0  0  0  0
   -1.4954   -0.6146    0.0000 C   0  0  0  0  0  0  0  0  0
   -0.7810   -0.2021    0.0000 O   0  0  0  0  0  0  0  0  0
   -1.4954   -1.4396    0.0000 N   0  0  0  0  0  0  0  0  0
   -0.7810   -1.8521    0.0000 C   0  0  0  0  0  0  0  0  0
   -0.7810   -2.6771    0.0000 C   0  0  0  0  0  0  0  0  0
   -0.1135   -3.1620    0.0000 N   0  0  0  0  0  0  0  0  0
   -0.3685   -3.9466    0.0000 C   0  0  0  0  0  0  0  0  0
   -1.1935   -3.9466    0.0000 C   0  0  0  0  0  0  0  0  0
   -1.4484   -3.1620    0.0000 C   0  0  0  0  0  0  0  0  0
    0.6711   -2.9071    0.0000 C   0  0  0  0  0  0  0  0  0
    1.2842   -3.4591    0.0000 C   0  0  0  0  0  0  0  0  0
   -2.9244   -0.6146    0.0000 C   0  0  0  0  0  0  0  0  0
   -2.9244   -1.4396    0.0000 O   0  0  0  0  0  0  0  0  0
   -3.6388   -1.8521    0.0000 C   0  0  0  0  0  0  0  0  0
   -3.6388   -0.2021    0.0000 C   0  0  0  0  0  0  0  0  0
   -3.6388    0.6229    0.0000 C   0  0  0  0  0  0  0  0  0
   -4.3533    1.0354    0.0000 N   0  0  0  0  0  0  0  0  0
  1  2  2  0  0  0  0
  1  3  2  0  0  0  0
  1  4  1  0  0  0  0
  1  6  1  0  0  0  0
  4  5  1  0  0  0  0
  6  7  4  0  0  0  0
  6 24  4  0  0  0  0
  7  8  4  0  0  0  0
  8  9  1  0  0  0  0
  8 20  4  0  0  0  0
  9 10  2  0  0  0  0
  9 11  1  0  0  0  0
 11 12  1  0  0  0  0
 12 13  1  0  0  0  0
 13 14  1  0  0  0  0
 13 17  1  0  0  0  0
 14 15  1  0  0  0  0
 14 18  1  0  0  0  0
 15 16  1  0  0  0  0
 16 17  1  0  0  0  0
 18 19  1  0  0  0  0
 20 21  1  0  0  0  0
 20 23  4  0  0  0  0
 21 22  1  0  0  0  0
 23 24  4  0  0  0  0
 24 25  1  0  0  0  0
M  END
>  <Name_Molregno>
389011

>  <5-HT1A>
5

>  <5-HT1B>
5.76

>  <5-HT1D>
5.87

>  <5-HT1E>
5

>  <5-HT2A>
5.64

>  <5-HT2C>
5

>  <5-HT3>
5

>  <5-HT5>
5

>  <5-HT6>
5.38

>  <5-HT7>
7.47

>  <Alpha-1A>
5

>  <Alpha-1B>
5

>  <Alpha-2A>
5.95

>  <Alpha-2C>
5.81

>  <Beta-1>
5

>  <Beta-2>
5

>  <DOPAMINE D1>
5

>  <DOPAMINE D2>
8.71

>  <DOPAMINE D3>
8.51

>  <DOPAMINE D4>
5.63

>  <DOPAMINE D5>
5

>  <Dopamine transporter>
5

>  <HISTAMINE H1>
5

>  <HISTAMINE H2>
5

>  <HISTAMINE H4>
5

>  <Muscarinic acetylcholine receptor M1>
5

>  <Muscarinic acetylcholine receptor M2>
5

>  <Muscarinic acetylcholine receptor M3>
5

>  <Muscarinic acetylcholine receptor M4>
5

>  <Muscarinic acetylcholine receptor M5>
5

>  <Norepinephrine transporter>
5

>  <Serotonin transporter>
5

$$$$
398438
  Marvin  02231216192D 0   1.00000     0.00000     0

 21 23  0  0  1  0  0  0  0  0999 V2000
   -0.0258   -0.0044    0.0000 O   0  0  0  0  0  0  0  0  0
    0.6886    0.4081    0.0000 C   0  0  0  0  0  0  0  0  0
    1.4031   -0.0044    0.0000 C   0  0  0  0  0  0  0  0  0
    1.4031   -0.8294    0.0000 O   0  0  0  0  0  0  0  0  0
    2.1176    0.4081    0.0000 C   0  0  0  0  0  0  0  0  0
    2.8321   -0.0044    0.0000 N   0  0  0  0  0  0  0  0  0
    3.5465    0.4081    0.0000 C   0  0  0  0  0  0  0  0  0
    3.5465    1.2331    0.0000 C   0  0  0  0  0  0  0  0  0
    4.2610    1.6456    0.0000 C   0  0  0  0  0  0  0  0  0
    4.9755    1.2331    0.0000 C   0  0  0  0  0  0  0  0  0
    4.9755    0.4081    0.0000 C   0  0  0  0  0  0  0  0  0
    4.2610   -0.0044    0.0000 C   0  0  0  0  0  0  0  0  0
   -0.7403    0.4081    0.0000 C   0  0  0  0  0  0  0  0  0
   -1.4548   -0.0044    0.0000 C   0  0  0  0  0  0  0  0  0
   -2.1692    0.4081    0.0000 C   0  0  0  0  0  0  0  0  0
   -2.7823   -0.1439    0.0000 N   0  0  0  0  0  0  0  0  0
   -2.4468   -0.8976    0.0000 C   0  0  0  0  0  0  0  0  0
   -1.6263   -0.8114    0.0000 C   0  0  0  0  0  0  0  0  0
   -2.1692    1.2331    0.0000 C   0  0  0  0  0  0  0  0  0
   -1.4548    1.6456    0.0000 C   0  0  0  0  0  0  0  0  0
   -0.7403    1.2331    0.0000 C   0  0  0  0  0  0  0  0  0
  1  2  1  0  0  0  0
  1 13  1  0  0  0  0
  2  3  1  0  0  0  0
  3  4  1  0  0  0  0
  3  5  1  0  0  0  0
  5  6  1  0  0  0  0
  6  7  1  0  0  0  0
  7  8  1  0  0  0  0
  7 12  1  0  0  0  0
  8  9  1  0  0  0  0
  9 10  1  0  0  0  0
 10 11  1  0  0  0  0
 11 12  1  0  0  0  0
 13 14  4  0  0  0  0
 13 21  4  0  0  0  0
 14 15  4  0  0  0  0
 14 18  4  0  0  0  0
 15 16  4  0  0  0  0
 15 19  4  0  0  0  0
 16 17  4  0  0  0  0
 17 18  4  0  0  0  0
 19 20  4  0  0  0  0
 20 21  4  0  0  0  0
M  STY  1   1 DAT
M  SAL   1  1  16
M  SDT   1 MRV_IMPLICIT_H                                        
M  SDD   1     0.0000    0.0000    DR    ALL  0       0  
M  SED   1 IMPL_H1
M  END
>  <Name_Molregno>
398438

>  <5-HT1A>
8.07

>  <Beta-1>
8.63

>  <Beta-2>
8.43

$$$$
398439
  Marvin  02231216192D 0   1.00000     0.00000     0

 25 29  0  0  1  0  0  0  0  0999 V2000
    1.0630   -0.9321    0.0000 O   0  0  0  0  0  0  0  0  0
    1.0630   -0.1071    0.0000 C   0  0  0  0  0  0  0  0  0
    1.7774    0.3054    0.0000 C   0  0  0  0  0  0  0  0  0
    2.4919   -0.1070    0.0000 O   0  0  0  0  0  0  0  0  0
    1.7774    1.1304    0.0000 C   0  0  0  0  0  0  0  0  0
    2.4918    1.5430    0.0000 N   0  0  0  0  0  0  0  0  0
    2.4918    2.3680    0.0000 C   0  0  0  0  0  0  0  0  0
    1.7564    1.9943    0.0000 C   0  0  0  0  0  0  0  0  0
    2.2058    2.7846    0.0000 C   0  0  0  0  0  0  0  0  0
    2.2058    3.5320    0.0000 C   0  0  0  0  0  0  0  0  0
    2.9413    3.9057    0.0000 C   0  0  0  0  0  0  0  0  0
    2.4918    3.1154    0.0000 C   0  0  0  0  0  0  0  0  0
    3.6769    3.5320    0.0000 C   0  0  0  0  0  0  0  0  0
    3.6769    2.7846    0.0000 C   0  0  0  0  0  0  0  0  0
    3.2274    1.9943    0.0000 C   0  0  0  0  0  0  0  0  0
    2.9413    2.4109    0.0000 C   0  0  0  0  0  0  0  0  0
    0.3486   -1.3447    0.0000 C   0  0  0  0  0  0  0  0  0
    0.3486   -2.1697    0.0000 C   0  0  0  0  0  0  0  0  0
   -0.3658   -2.5822    0.0000 C   0  0  0  0  0  0  0  0  0
   -0.1942   -3.3892    0.0000 N   0  0  0  0  0  0  0  0  0
    0.6262   -3.4754    0.0000 C   0  0  0  0  0  0  0  0  0
    0.9618   -2.7217    0.0000 C   0  0  0  0  0  0  0  0  0
   -1.0803   -2.1697    0.0000 C   0  0  0  0  0  0  0  0  0
   -1.0804   -1.3447    0.0000 C   0  0  0  0  0  0  0  0  0
   -0.3659   -0.9322    0.0000 C   0  0  0  0  0  0  0  0  0
  1  2  1  0  0  0  0
  1 17  1  0  0  0  0
  2  3  1  0  0  0  0
  3  4  1  0  0  0  0
  3  5  1  0  0  0  0
  5  6  1  0  0  0  0
  6  7  1  0  0  0  0
  7  8  1  0  0  0  0
 14 16  1  0  0  0  0
  7 15  1  0  0  0  0
  8  9  1  0  0  0  0
 14 15  1  0  0  0  0
  9 16  1  0  0  0  0
 10 11  1  0  0  0  0
 11 12  1  0  0  0  0
 11 13  1  0  0  0  0
 13 14  1  0  0  0  0
  9 10  1  0  0  0  0
  7 12  1  0  0  0  0
 17 18  4  0  0  0  0
 17 25  4  0  0  0  0
 18 19  4  0  0  0  0
 18 22  4  0  0  0  0
 19 20  4  0  0  0  0
 19 23  4  0  0  0  0
 20 21  4  0  0  0  0
 21 22  4  0  0  0  0
 23 24  4  0  0  0  0
 24 25  4  0  0  0  0
M  STY  1   1 DAT
M  SAL   1  1  20
M  SDT   1 MRV_IMPLICIT_H                                        
M  SDD   1     0.0000    0.0000    DR    ALL  0       0  
M  SED   1 IMPL_H1
M  END
>  <Name_Molregno>
398439

>  <5-HT1A>
8.02

>  <Beta-1>
8.1

>  <Beta-2>
8.18

$$$$
405786
  Marvin  02231216192D 0   1.00000     0.00000     0

 16 18  0  0  1  0  0  0  0  0999 V2000
   -4.1976   -1.0327    0.0000 N   0  0  0  0  0  0  0  0  0
   -4.6825   -0.3653    0.0000 N   0  0  0  0  0  0  0  0  0
   -4.1976    0.3022    0.0000 C   0  0  0  0  0  0  0  0  0
   -3.4129    0.0472    0.0000 C   0  0  0  0  0  0  0  0  0
   -2.6985    0.4597    0.0000 C   0  0  0  0  0  0  0  0  0
   -1.9840    0.0472    0.0000 C   0  0  0  0  0  0  0  0  0
   -1.2695    0.4597    0.0000 N   0  0  0  0  0  0  0  0  0
   -0.5551    0.0472    0.0000 C   0  0  0  0  0  0  0  0  0
   -0.5551   -0.7778    0.0000 C   0  0  0  0  0  0  0  0  0
   -1.2695   -1.1903    0.0000 C   0  0  0  0  0  0  0  0  0
   -1.9840   -0.7778    0.0000 C   0  0  0  0  0  0  0  0  0
   -2.6985   -1.1903    0.0000 C   0  0  0  0  0  0  0  0  0
   -3.4129   -0.7778    0.0000 C   0  0  0  0  0  0  0  0  0
   -1.2695    1.2847    0.0000 C   0  0  0  0  0  0  0  0  0
   -0.5551    1.6972    0.0000 C   0  0  0  0  0  0  0  0  0
   -0.5551    2.5222    0.0000 C   0  0  0  0  0  0  0  0  0
  1  2  4  0  0  0  0
  1 13  4  0  0  0  0
  2  3  4  0  0  0  0
  3  4  4  0  0  0  0
  4  5  1  0  0  0  0
  4 13  4  0  0  0  0
  5  6  1  0  0  0  0
  6  7  1  0  0  0  0
  6 11  1  0  0  0  0
  7  8  1  0  0  0  0
  7 14  1  0  0  0  0
  8  9  1  0  0  0  0
  9 10  1  0  0  0  0
 10 11  1  0  0  0  0
 11 12  1  0  0  0  0
 12 13  1  0  0  0  0
 14 15  1  0  0  0  0
 15 16  1  0  0  0  0
M  STY  1   1 DAT
M  SAL   1  1   1
M  SDT   1 MRV_IMPLICIT_H                                        
M  SDD   1     0.0000    0.0000    DR    ALL  0       0  
M  SED   1 IMPL_H1
M  END
>  <Name_Molregno>
405786

>  <5-HT1A>
5.77

>  <5-HT1B>
5

>  <5-HT1D>
5

>  <5-HT2A>
5.24

>  <5-HT2C>
5.24

>  <Alpha-1A>
5

>  <Alpha-1B>
5

>  <Alpha-2A>
5

>  <Alpha-2B>
5.6

>  <Alpha-2C>
5

>  <Beta-1>
5

>  <Beta-2>
5

>  <DOPAMINE D1>
5

>  <DOPAMINE D2>
6.31

>  <DOPAMINE D3>
7.73

>  <DOPAMINE D4>
7.37

>  <DOPAMINE D5>
5

$$$$
417068
  Marvin  02231216192D 0   1.00000     0.00000     0

 33 35  0  0  1  0  0  0  0  0999 V2000
   -6.3469    5.3239    0.0000 S   0  0  0  0  0  0  0  0  0
   -7.0613    5.7364    0.0000 O   0  0  0  0  0  0  0  0  0
   -6.7594    4.6094    0.0000 O   0  0  0  0  0  0  0  0  0
   -5.6324    4.9114    0.0000 N   0  0  0  0  0  0  0  0  0
   -5.6324    4.0864    0.0000 C   0  0  0  0  0  0  0  0  0
   -4.9179    3.6739    0.0000 C   0  0  0  0  0  0  0  0  0
   -4.9179    2.8489    0.0000 C   0  0  0  0  0  0  0  0  0
   -5.6324    2.4364    0.0000 C   0  0  0  0  0  0  0  0  0
   -6.3469    2.8489    0.0000 C   0  0  0  0  0  0  0  0  0
   -6.3469    3.6739    0.0000 C   0  0  0  0  0  0  0  0  0
   -7.0613    4.0864    0.0000 O   0  0  0  0  0  0  0  0  0
   -4.2034    2.4364    0.0000 C   0  0  0  0  0  0  0  0  0
   -3.4890    2.8489    0.0000 C   0  0  0  0  0  0  0  0  0
   -3.4890    3.6739    0.0000 O   0  0  0  0  0  0  0  0  0
   -2.7745    2.4364    0.0000 C   0  0  0  0  0  0  0  0  0
   -2.0600    2.8489    0.0000 N   0  0  0  0  0  0  0  0  0
   -1.3456    2.4364    0.0000 C   0  0  0  0  0  0  0  0  0
   -0.6311    2.8489    0.0000 C   0  0  0  0  0  0  0  0  0
    0.0834    2.4364    0.0000 C   0  0  0  0  0  0  0  0  0
    0.7979    2.8489    0.0000 C   0  0  0  0  0  0  0  0  0
    1.5123    2.4364    0.0000 C   0  0  0  0  0  0  0  0  0
    1.5123    1.6114    0.0000 C   0  0  0  0  0  0  0  0  0
    0.7979    1.1989    0.0000 C   0  0  0  0  0  0  0  0  0
    0.0834    1.6114    0.0000 C   0  0  0  0  0  0  0  0  0
   -1.3456    1.6114    0.0000 C   0  0  0  0  0  0  0  0  0
   -0.6311    1.1989    0.0000 C   0  0  0  0  0  0  0  0  0
   -0.6311    0.3739    0.0000 C   0  0  0  0  0  0  0  0  0
    0.0834   -0.0386    0.0000 O   0  0  0  0  0  0  0  0  0
    0.0834   -0.8636    0.0000 C   0  0  0  0  0  0  0  0  0
   -1.3456   -0.0386    0.0000 C   0  0  0  0  0  0  0  0  0
   -2.0600    0.3739    0.0000 C   0  0  0  0  0  0  0  0  0
   -2.0600    1.1989    0.0000 C   0  0  0  0  0  0  0  0  0
   -5.9344    6.0383    0.0000 C   0  0  0  0  0  0  0  0  0
  1  2  2  0  0  0  0
  1  3  2  0  0  0  0
  1  4  1  0  0  0  0
  1 33  1  0  0  0  0
  4  5  1  0  0  0  0
  5  6  4  0  0  0  0
  5 10  4  0  0  0  0
  6  7  4  0  0  0  0
  7  8  4  0  0  0  0
  7 12  1  0  0  0  0
  8  9  4  0  0  0  0
  9 10  4  0  0  0  0
 10 11  1  0  0  0  0
 12 13  1  0  0  0  0
 13 14  1  0  0  0  0
 13 15  1  0  0  0  0
 15 16  1  0  0  0  0
 16 17  1  0  0  0  0
 17 18  1  0  0  0  0
 17 25  1  0  0  0  0
 18 19  1  0  0  0  0
 19 20  4  0  0  0  0
 19 24  4  0  0  0  0
 20 21  4  0  0  0  0
 21 22  4  0  0  0  0
 22 23  4  0  0  0  0
 23 24  4  0  0  0  0
 25 26  4  0  0  0  0
 25 32  4  0  0  0  0
 26 27  4  0  0  0  0
 27 28  1  0  0  0  0
 27 30  4  0  0  0  0
 28 29  1  0  0  0  0
 30 31  4  0  0  0  0
 31 32  4  0  0  0  0
M  END
>  <Name_Molregno>
417068

>  <Beta-1>
5.22

>  <Beta-2>
6.02

$$$$
417074
  Marvin  02231216192D 0   1.00000     0.00000     0

 33 35  0  0  1  0  0  0  0  0999 V2000
   -7.1680    4.8492    0.0000 S   0  0  0  0  0  0  0  0  0
   -7.9930    4.8492    0.0000 O   0  0  0  0  0  0  0  0  0
   -7.1680    4.0242    0.0000 O   0  0  0  0  0  0  0  0  0
   -6.3430    4.8492    0.0000 N   0  0  0  0  0  0  0  0  0
   -5.9305    4.1347    0.0000 C   0  0  0  0  0  0  0  0  0
   -5.1055    4.1347    0.0000 C   0  0  0  0  0  0  0  0  0
   -4.6930    3.4203    0.0000 C   0  0  0  0  0  0  0  0  0
   -5.1055    2.7058    0.0000 C   0  0  0  0  0  0  0  0  0
   -5.9305    2.7058    0.0000 C   0  0  0  0  0  0  0  0  0
   -6.3430    3.4203    0.0000 C   0  0  0  0  0  0  0  0  0
   -7.1680    3.4203    0.0000 O   0  0  0  0  0  0  0  0  0
   -3.8680    3.4203    0.0000 C   0  0  0  0  0  0  0  0  0
   -3.4555    2.7058    0.0000 C   0  0  0  0  0  0  0  0  0
   -3.8680    1.9913    0.0000 O   0  0  0  0  0  0  0  0  0
   -2.6305    2.7058    0.0000 C   0  0  0  0  0  0  0  0  0
   -2.2180    1.9913    0.0000 N   0  0  0  0  0  0  0  0  0
   -1.3930    1.9913    0.0000 C   0  0  0  0  0  0  0  0  0
   -0.9805    2.7058    0.0000 C   0  0  0  0  0  0  0  0  0
   -0.1555    2.7058    0.0000 C   0  0  0  0  0  0  0  0  0
    0.2570    3.4203    0.0000 C   0  0  0  0  0  0  0  0  0
    1.0820    3.4203    0.0000 C   0  0  0  0  0  0  0  0  0
    1.4945    2.7058    0.0000 C   0  0  0  0  0  0  0  0  0
    1.0820    1.9913    0.0000 C   0  0  0  0  0  0  0  0  0
    0.2570    1.9913    0.0000 C   0  0  0  0  0  0  0  0  0
   -0.9805    1.2769    0.0000 C   0  0  0  0  0  0  0  0  0
   -0.1555    1.2769    0.0000 C   0  0  0  0  0  0  0  0  0
    0.2570    0.5624    0.0000 C   0  0  0  0  0  0  0  0  0
   -0.1555   -0.1521    0.0000 C   0  0  0  0  0  0  0  0  0
    0.2570   -0.8666    0.0000 O   0  0  0  0  0  0  0  0  0
    1.0820   -0.8666    0.0000 C   0  0  0  0  0  0  0  0  0
   -0.9805   -0.1521    0.0000 C   0  0  0  0  0  0  0  0  0
   -1.3930    0.5624    0.0000 C   0  0  0  0  0  0  0  0  0
   -7.1680    5.6742    0.0000 C   0  0  0  0  0  0  0  0  0
  1  2  2  0  0  0  0
  1  3  2  0  0  0  0
  1  4  1  0  0  0  0
  1 33  1  0  0  0  0
  4  5  1  0  0  0  0
  5  6  4  0  0  0  0
  5 10  4  0  0  0  0
  6  7  4  0  0  0  0
  7  8  4  0  0  0  0
  7 12  1  0  0  0  0
  8  9  4  0  0  0  0
  9 10  4  0  0  0  0
 10 11  1  0  0  0  0
 12 13  1  0  0  0  0
 13 14  1  0  0  0  0
 13 15  1  0  0  0  0
 15 16  1  0  0  0  0
 16 17  1  0  0  0  0
 17 18  1  0  0  0  0
 17 25  1  0  0  0  0
 18 19  1  0  0  0  0
 19 20  4  0  0  0  0
 19 24  4  0  0  0  0
 20 21  4  0  0  0  0
 21 22  4  0  0  0  0
 22 23  4  0  0  0  0
 23 24  4  0  0  0  0
 25 26  4  0  0  0  0
 25 32  4  0  0  0  0
 26 27  4  0  0  0  0
 27 28  4  0  0  0  0
 28 29  1  0  0  0  0
 28 31  4  0  0  0  0
 29 30  1  0  0  0  0
 31 32  4  0  0  0  0
M  END
>  <Name_Molregno>
417074

>  <Beta-1>
5.11

>  <Beta-2>
5.9

$$$$
417079
  Marvin  02231216192D 0   1.00000     0.00000     0

 35 37  0  0  1  0  0  0  0  0999 V2000
   -7.6030    4.9624    0.0000 S   0  0  0  0  0  0  0  0  0
   -8.4280    4.9624    0.0000 O   0  0  0  0  0  0  0  0  0
   -7.6030    4.1374    0.0000 O   0  0  0  0  0  0  0  0  0
   -6.7780    4.9624    0.0000 N   0  0  0  0  0  0  0  0  0
   -6.3655    4.2480    0.0000 C   0  0  0  0  0  0  0  0  0
   -5.5405    4.2480    0.0000 C   0  0  0  0  0  0  0  0  0
   -5.1280    3.5335    0.0000 C   0  0  0  0  0  0  0  0  0
   -5.5405    2.8190    0.0000 C   0  0  0  0  0  0  0  0  0
   -6.3655    2.8190    0.0000 C   0  0  0  0  0  0  0  0  0
   -6.7780    3.5335    0.0000 C   0  0  0  0  0  0  0  0  0
   -7.6030    3.5335    0.0000 O   0  0  0  0  0  0  0  0  0
   -4.3030    3.5335    0.0000 C   0  0  0  0  0  0  0  0  0
   -3.8905    2.8190    0.0000 C   0  0  0  0  0  0  0  0  0
   -4.3030    2.1046    0.0000 O   0  0  0  0  0  0  0  0  0
   -3.0655    2.8190    0.0000 C   0  0  0  0  0  0  0  0  0
   -2.6530    2.1046    0.0000 N   0  0  0  0  0  0  0  0  0
   -1.8280    2.1046    0.0000 C   0  0  0  0  0  0  0  0  0
   -1.4155    2.8190    0.0000 C   0  0  0  0  0  0  0  0  0
   -0.5905    2.8190    0.0000 C   0  0  0  0  0  0  0  0  0
   -0.1780    3.5335    0.0000 C   0  0  0  0  0  0  0  0  0
    0.6470    3.5335    0.0000 C   0  0  0  0  0  0  0  0  0
    1.0595    2.8190    0.0000 C   0  0  0  0  0  0  0  0  0
    0.6470    2.1046    0.0000 C   0  0  0  0  0  0  0  0  0
   -0.1780    2.1046    0.0000 C   0  0  0  0  0  0  0  0  0
   -1.4155    1.3901    0.0000 C   0  0  0  0  0  0  0  0  0
   -0.5905    1.3901    0.0000 C   0  0  0  0  0  0  0  0  0
   -0.1780    0.6756    0.0000 C   0  0  0  0  0  0  0  0  0
    0.6470    0.6756    0.0000 O   0  0  0  0  0  0  0  0  0
    1.0595   -0.0389    0.0000 C   0  0  0  0  0  0  0  0  0
   -0.5905   -0.0389    0.0000 C   0  0  0  0  0  0  0  0  0
   -0.1780   -0.7533    0.0000 O   0  0  0  0  0  0  0  0  0
    0.6470   -0.7533    0.0000 C   0  0  0  0  0  0  0  0  0
   -1.4155   -0.0389    0.0000 C   0  0  0  0  0  0  0  0  0
   -1.8280    0.6756    0.0000 C   0  0  0  0  0  0  0  0  0
   -7.6030    5.7874    0.0000 C   0  0  0  0  0  0  0  0  0
  1  2  2  0  0  0  0
  1  3  2  0  0  0  0
  1  4  1  0  0  0  0
  1 35  1  0  0  0  0
  4  5  1  0  0  0  0
  5  6  4  0  0  0  0
  5 10  4  0  0  0  0
  6  7  4  0  0  0  0
  7  8  4  0  0  0  0
  7 12  1  0  0  0  0
  8  9  4  0  0  0  0
  9 10  4  0  0  0  0
 10 11  1  0  0  0  0
 12 13  1  0  0  0  0
 13 14  1  0  0  0  0
 13 15  1  0  0  0  0
 15 16  1  0  0  0  0
 16 17  1  0  0  0  0
 17 18  1  0  0  0  0
 17 25  1  0  0  0  0
 18 19  1  0  0  0  0
 19 20  4  0  0  0  0
 19 24  4  0  0  0  0
 20 21  4  0  0  0  0
 21 22  4  0  0  0  0
 22 23  4  0  0  0  0
 23 24  4  0  0  0  0
 25 26  4  0  0  0  0
 25 34  4  0  0  0  0
 26 27  4  0  0  0  0
 27 28  1  0  0  0  0
 27 30  4  0  0  0  0
 28 29  1  0  0  0  0
 30 31  1  0  0  0  0
 30 33  4  0  0  0  0
 31 32  1  0  0  0  0
 33 34  4  0  0  0  0
M  END
>  <Name_Molregno>
417079

>  <Beta-1>
5.29

>  <Beta-2>
6.68

$$$$
417094
  Marvin  02231216192D 0   1.00000     0.00000     0

 33 35  0  0  1  0  0  0  0  0999 V2000
    8.1911    1.8668    0.0000 Cl  0  0  0  0  0  0  0  0  0
    7.3661    1.8668    0.0000 C   0  0  0  0  0  0  0  0  0
    6.9536    1.1524    0.0000 C   0  0  0  0  0  0  0  0  0
    6.1286    1.1524    0.0000 C   0  0  0  0  0  0  0  0  0
    5.7161    1.8668    0.0000 C   0  0  0  0  0  0  0  0  0
    6.1286    2.5813    0.0000 C   0  0  0  0  0  0  0  0  0
    6.9536    2.5813    0.0000 C   0  0  0  0  0  0  0  0  0
    7.3661    3.2958    0.0000 Cl  0  0  0  0  0  0  0  0  0
    5.7161    0.4379    0.0000 C   0  0  0  0  0  0  0  0  0
    4.8911    0.4379    0.0000 N   0  0  0  0  0  0  0  0  0
    4.4786   -0.2766    0.0000 C   0  0  0  0  0  0  0  0  0
    3.6536   -0.2766    0.0000 C   0  0  0  0  0  0  0  0  0
    3.2411    0.4379    0.0000 O   0  0  0  0  0  0  0  0  0
    3.2411   -0.9911    0.0000 C   0  0  0  0  0  0  0  0  0
    2.4161   -0.9911    0.0000 C   0  0  0  0  0  0  0  0  0
    2.0036   -1.7055    0.0000 C   0  0  0  0  0  0  0  0  0
    1.1786   -1.7055    0.0000 C   0  0  0  0  0  0  0  0  0
    0.7661   -2.4200    0.0000 N   0  0  0  0  0  0  0  0  0
    1.1786   -3.1345    0.0000 S   0  0  0  0  0  0  0  0  0
    1.5911   -3.8489    0.0000 O   0  0  0  0  0  0  0  0  0
    0.4641   -3.5470    0.0000 O   0  0  0  0  0  0  0  0  0
    1.8931   -2.7220    0.0000 C   0  0  0  0  0  0  0  0  0
    0.7661   -0.9911    0.0000 C   0  0  0  0  0  0  0  0  0
   -0.0589   -0.9911    0.0000 O   0  0  0  0  0  0  0  0  0
    1.1786   -0.2766    0.0000 C   0  0  0  0  0  0  0  0  0
    2.0036   -0.2766    0.0000 C   0  0  0  0  0  0  0  0  0
    6.1286   -0.2766    0.0000 C   0  0  0  0  0  0  0  0  0
    5.7161   -0.9911    0.0000 C   0  0  0  0  0  0  0  0  0
    6.1286   -1.7055    0.0000 C   0  0  0  0  0  0  0  0  0
    5.7161   -2.4200    0.0000 C   0  0  0  0  0  0  0  0  0
    4.8911   -2.4200    0.0000 C   0  0  0  0  0  0  0  0  0
    4.4786   -1.7055    0.0000 C   0  0  0  0  0  0  0  0  0
    4.8911   -0.9911    0.0000 C   0  0  0  0  0  0  0  0  0
  1  2  1  0  0  0  0
  2  3  4  0  0  0  0
  2  7  4  0  0  0  0
  3  4  4  0  0  0  0
  4  5  4  0  0  0  0
  4  9  1  0  0  0  0
  5  6  4  0  0  0  0
  6  7  4  0  0  0  0
  7  8  1  0  0  0  0
  9 10  1  0  0  0  0
  9 27  1  0  0  0  0
 10 11  1  0  0  0  0
 11 12  1  0  0  0  0
 12 13  1  0  0  0  0
 12 14  1  0  0  0  0
 14 15  1  0  0  0  0
 15 16  4  0  0  0  0
 15 26  4  0  0  0  0
 16 17  4  0  0  0  0
 17 18  1  0  0  0  0
 17 23  4  0  0  0  0
 18 19  1  0  0  0  0
 19 20  2  0  0  0  0
 19 21  2  0  0  0  0
 19 22  1  0  0  0  0
 23 24  1  0  0  0  0
 23 25  4  0  0  0  0
 25 26  4  0  0  0  0
 27 28  1  0  0  0  0
 28 29  4  0  0  0  0
 28 33  4  0  0  0  0
 29 30  4  0  0  0  0
 30 31  4  0  0  0  0
 31 32  4  0  0  0  0
 32 33  4  0  0  0  0
M  END
>  <Name_Molregno>
417094

>  <Beta-1>
5.82

>  <Beta-2>
7.42

$$$$
417095
  Marvin  02231216192D 0   1.00000     0.00000     0

 34 36  0  0  1  0  0  0  0  0999 V2000
   -7.3532    4.8866    0.0000 S   0  0  0  0  0  0  0  0  0
   -8.1782    4.8866    0.0000 O   0  0  0  0  0  0  0  0  0
   -7.3532    4.0616    0.0000 O   0  0  0  0  0  0  0  0  0
   -6.5282    4.8866    0.0000 N   0  0  0  0  0  0  0  0  0
   -6.1157    4.1722    0.0000 C   0  0  0  0  0  0  0  0  0
   -5.2907    4.1722    0.0000 C   0  0  0  0  0  0  0  0  0
   -4.8782    3.4577    0.0000 C   0  0  0  0  0  0  0  0  0
   -5.2907    2.7432    0.0000 C   0  0  0  0  0  0  0  0  0
   -6.1157    2.7432    0.0000 C   0  0  0  0  0  0  0  0  0
   -6.5282    3.4577    0.0000 C   0  0  0  0  0  0  0  0  0
   -7.3532    3.4577    0.0000 O   0  0  0  0  0  0  0  0  0
   -4.0532    3.4577    0.0000 C   0  0  0  0  0  0  0  0  0
   -3.6407    2.7432    0.0000 C   0  0  0  0  0  0  0  0  0
   -4.0532    2.0288    0.0000 O   0  0  0  0  0  0  0  0  0
   -2.8157    2.7432    0.0000 C   0  0  0  0  0  0  0  0  0
   -2.4032    2.0288    0.0000 N   0  0  0  0  0  0  0  0  0
   -1.5782    2.0288    0.0000 C   0  0  0  0  0  0  0  0  0
   -1.1657    2.7432    0.0000 C   0  0  0  0  0  0  0  0  0
   -0.3407    2.7432    0.0000 C   0  0  0  0  0  0  0  0  0
    0.0718    3.4577    0.0000 C   0  0  0  0  0  0  0  0  0
    0.8968    3.4577    0.0000 C   0  0  0  0  0  0  0  0  0
    1.3093    2.7432    0.0000 C   0  0  0  0  0  0  0  0  0
    0.8968    2.0288    0.0000 C   0  0  0  0  0  0  0  0  0
    0.0718    2.0288    0.0000 C   0  0  0  0  0  0  0  0  0
   -1.1657    1.3143    0.0000 C   0  0  0  0  0  0  0  0  0
   -0.3407    1.3143    0.0000 C   0  0  0  0  0  0  0  0  0
    0.0718    0.5998    0.0000 C   0  0  0  0  0  0  0  0  0
    0.8968    0.5998    0.0000 O   0  0  0  0  0  0  0  0  0
   -0.3407   -0.1147    0.0000 C   0  0  0  0  0  0  0  0  0
    0.0718   -0.8291    0.0000 O   0  0  0  0  0  0  0  0  0
    0.8968   -0.8291    0.0000 C   0  0  0  0  0  0  0  0  0
   -1.1657   -0.1147    0.0000 C   0  0  0  0  0  0  0  0  0
   -1.5782    0.5998    0.0000 C   0  0  0  0  0  0  0  0  0
   -7.3532    5.7116    0.0000 C   0  0  0  0  0  0  0  0  0
  1  2  2  0  0  0  0
  1  3  2  0  0  0  0
  1  4  1  0  0  0  0
  1 34  1  0  0  0  0
  4  5  1  0  0  0  0
  5  6  4  0  0  0  0
  5 10  4  0  0  0  0
  6  7  4  0  0  0  0
  7  8  4  0  0  0  0
  7 12  1  0  0  0  0
  8  9  4  0  0  0  0
  9 10  4  0  0  0  0
 10 11  1  0  0  0  0
 12 13  1  0  0  0  0
 13 14  1  0  0  0  0
 13 15  1  0  0  0  0
 15 16  1  0  0  0  0
 16 17  1  0  0  0  0
 17 18  1  0  0  0  0
 17 25  1  0  0  0  0
 18 19  1  0  0  0  0
 19 20  4  0  0  0  0
 19 24  4  0  0  0  0
 20 21  4  0  0  0  0
 21 22  4  0  0  0  0
 22 23  4  0  0  0  0
 23 24  4  0  0  0  0
 25 26  4  0  0  0  0
 25 33  4  0  0  0  0
 26 27  4  0  0  0  0
 27 28  1  0  0  0  0
 27 29  4  0  0  0  0
 29 30  1  0  0  0  0
 29 32  4  0  0  0  0
 30 31  1  0  0  0  0
 32 33  4  0  0  0  0
M  END
>  <Name_Molregno>
417095

>  <Beta-1>
5.49

>  <Beta-2>
5.97

$$$$
417096
  Marvin  02231216192D 0   1.00000     0.00000     0

 39 41  0  0  1  0  0  0  0  0999 V2000
   -7.8542    0.0500    0.0000 S   0  0  0  0  0  0  0  0  0
   -8.6792    0.0500    0.0000 O   0  0  0  0  0  0  0  0  0
   -7.8542   -0.7750    0.0000 O   0  0  0  0  0  0  0  0  0
   -7.0292    0.0500    0.0000 N   0  0  0  0  0  0  0  0  0
   -6.6167   -0.6645    0.0000 C   0  0  0  0  0  0  0  0  0
   -5.7917   -0.6645    0.0000 C   0  0  0  0  0  0  0  0  0
   -5.3792   -1.3789    0.0000 C   0  0  0  0  0  0  0  0  0
   -5.7917   -2.0934    0.0000 C   0  0  0  0  0  0  0  0  0
   -6.6167   -2.0934    0.0000 C   0  0  0  0  0  0  0  0  0
   -7.0292   -1.3789    0.0000 C   0  0  0  0  0  0  0  0  0
   -7.8542   -1.3789    0.0000 O   0  0  0  0  0  0  0  0  0
   -4.5542   -1.3789    0.0000 C   0  0  0  0  0  0  0  0  0
   -4.1417   -2.0934    0.0000 C   0  0  0  0  0  0  0  0  0
   -4.5542   -2.8079    0.0000 O   0  0  0  0  0  0  0  0  0
   -3.3167   -2.0934    0.0000 C   0  0  0  0  0  0  0  0  0
   -2.9042   -2.8079    0.0000 N   0  0  0  0  0  0  0  0  0
   -2.0792   -2.8079    0.0000 C   0  0  0  0  0  0  0  0  0
   -1.6667   -2.0934    0.0000 C   0  0  0  0  0  0  0  0  0
   -2.0792   -1.3789    0.0000 C   0  0  0  0  0  0  0  0  0
   -2.9042   -1.3789    0.0000 C   0  0  0  0  0  0  0  0  0
   -3.3167   -0.6645    0.0000 C   0  0  0  0  0  0  0  0  0
   -2.9042    0.0500    0.0000 C   0  0  0  0  0  0  0  0  0
   -2.0792    0.0500    0.0000 C   0  0  0  0  0  0  0  0  0
   -1.6667   -0.6645    0.0000 C   0  0  0  0  0  0  0  0  0
   -1.6667   -3.5224    0.0000 C   0  0  0  0  0  0  0  0  0
   -0.8417   -3.5224    0.0000 C   0  0  0  0  0  0  0  0  0
   -0.4292   -4.2368    0.0000 C   0  0  0  0  0  0  0  0  0
    0.3958   -4.2368    0.0000 O   0  0  0  0  0  0  0  0  0
    0.8083   -3.5224    0.0000 C   0  0  0  0  0  0  0  0  0
    0.3958   -2.8079    0.0000 F   0  0  0  0  0  0  0  0  0
    1.6333   -3.5224    0.0000 F   0  0  0  0  0  0  0  0  0
   -0.8417   -4.9513    0.0000 C   0  0  0  0  0  0  0  0  0
   -0.4292   -5.6658    0.0000 O   0  0  0  0  0  0  0  0  0
   -0.8417   -6.3802    0.0000 C   0  0  0  0  0  0  0  0  0
   -0.4292   -7.0947    0.0000 F   0  0  0  0  0  0  0  0  0
   -1.6667   -6.3802    0.0000 F   0  0  0  0  0  0  0  0  0
   -1.6667   -4.9513    0.0000 C   0  0  0  0  0  0  0  0  0
   -2.0792   -4.2368    0.0000 C   0  0  0  0  0  0  0  0  0
   -7.8542    0.8750    0.0000 C   0  0  0  0  0  0  0  0  0
  1  2  2  0  0  0  0
  1  3  2  0  0  0  0
  1  4  1  0  0  0  0
  1 39  1  0  0  0  0
  4  5  1  0  0  0  0
  5  6  4  0  0  0  0
  5 10  4  0  0  0  0
  6  7  4  0  0  0  0
  7  8  4  0  0  0  0
  7 12  1  0  0  0  0
  8  9  4  0  0  0  0
  9 10  4  0  0  0  0
 10 11  1  0  0  0  0
 12 13  1  0  0  0  0
 13 14  1  0  0  0  0
 13 15  1  0  0  0  0
 15 16  1  0  0  0  0
 16 17  1  0  0  0  0
 17 18  1  0  0  0  0
 17 25  1  0  0  0  0
 18 19  1  0  0  0  0
 19 20  4  0  0  0  0
 19 24  4  0  0  0  0
 20 21  4  0  0  0  0
 21 22  4  0  0  0  0
 22 23  4  0  0  0  0
 23 24  4  0  0  0  0
 25 26  4  0  0  0  0
 25 38  4  0  0  0  0
 26 27  4  0  0  0  0
 27 28  1  0  0  0  0
 27 32  4  0  0  0  0
 28 29  1  0  0  0  0
 29 30  1  0  0  0  0
 29 31  1  0  0  0  0
 32 33  1  0  0  0  0
 32 37  4  0  0  0  0
 33 34  1  0  0  0  0
 34 35  1  0  0  0  0
 34 36  1  0  0  0  0
 37 38  4  0  0  0  0
M  END
>  <Name_Molregno>
417096

>  <Beta-1>
6.16

>  <Beta-2>
6.99

$$$$
417111
  Marvin  02231216192D 0   1.00000     0.00000     0

 36 38  0  0  1  0  0  0  0  0999 V2000
   -1.4288   -3.3820    0.0000 S   0  0  0  0  0  0  0  0  0
   -2.1433   -3.7945    0.0000 O   0  0  0  0  0  0  0  0  0
   -1.0163   -4.0964    0.0000 O   0  0  0  0  0  0  0  0  0
   -0.7143   -2.9695    0.0000 N   0  0  0  0  0  0  0  0  0
    0.0002   -3.3820    0.0000 C   0  0  0  0  0  0  0  0  0
    0.7146   -2.9695    0.0000 C   0  0  0  0  0  0  0  0  0
    1.4291   -3.3820    0.0000 C   0  0  0  0  0  0  0  0  0
    1.4291   -4.2070    0.0000 C   0  0  0  0  0  0  0  0  0
    0.7146   -4.6195    0.0000 C   0  0  0  0  0  0  0  0  0
    0.0002   -4.2070    0.0000 C   0  0  0  0  0  0  0  0  0
   -0.7143   -4.6195    0.0000 O   0  0  0  0  0  0  0  0  0
    2.1436   -2.9695    0.0000 C   0  0  0  0  0  0  0  0  0
    2.8580   -3.3820    0.0000 C   0  0  0  0  0  0  0  0  0
    2.8580   -4.2070    0.0000 O   0  0  0  0  0  0  0  0  0
    3.5725   -2.9695    0.0000 C   0  0  0  0  0  0  0  0  0
    4.2870   -3.3820    0.0000 N   0  0  0  0  0  0  0  0  0
    5.0015   -2.9695    0.0000 C   0  0  0  0  0  0  0  0  0
    5.7159   -3.3820    0.0000 C   0  0  0  0  0  0  0  0  0
    6.4304   -2.9695    0.0000 C   0  0  0  0  0  0  0  0  0
    7.1449   -3.3820    0.0000 C   0  0  0  0  0  0  0  0  0
    7.8593   -2.9695    0.0000 C   0  0  0  0  0  0  0  0  0
    8.5738   -3.3820    0.0000 C   0  0  0  0  0  0  0  0  0
    8.5738   -4.2070    0.0000 C   0  0  0  0  0  0  0  0  0
    7.8593   -4.6195    0.0000 C   0  0  0  0  0  0  0  0  0
    7.1449   -4.2070    0.0000 C   0  0  0  0  0  0  0  0  0
    5.0015   -2.1445    0.0000 C   0  0  0  0  0  0  0  0  0
    4.2870   -1.7320    0.0000 C   0  0  0  0  0  0  0  0  0
    4.2870   -0.9070    0.0000 C   0  0  0  0  0  0  0  0  0
    3.5725   -0.4945    0.0000 O   0  0  0  0  0  0  0  0  0
    3.5725    0.3305    0.0000 C   0  0  0  0  0  0  0  0  0
    5.0015   -0.4945    0.0000 C   0  0  0  0  0  0  0  0  0
    5.0015    0.3305    0.0000 O   0  0  0  0  0  0  0  0  0
    5.7159    0.7430    0.0000 C   0  0  0  0  0  0  0  0  0
    5.7159   -0.9070    0.0000 C   0  0  0  0  0  0  0  0  0
    5.7159   -1.7320    0.0000 C   0  0  0  0  0  0  0  0  0
   -1.8413   -2.6675    0.0000 C   0  0  0  0  0  0  0  0  0
  1  2  2  0  0  0  0
  1  3  2  0  0  0  0
  1  4  1  0  0  0  0
  1 36  1  0  0  0  0
  4  5  1  0  0  0  0
  5  6  4  0  0  0  0
  5 10  4  0  0  0  0
  6  7  4  0  0  0  0
  7  8  4  0  0  0  0
  7 12  1  0  0  0  0
  8  9  4  0  0  0  0
  9 10  4  0  0  0  0
 10 11  1  0  0  0  0
 12 13  1  0  0  0  0
 13 14  1  0  0  0  0
 13 15  1  0  0  0  0
 15 16  1  0  0  0  0
 16 17  1  0  0  0  0
 17 18  1  0  0  0  0
 17 26  1  0  0  0  0
 18 19  1  0  0  0  0
 19 20  1  0  0  0  0
 20 21  4  0  0  0  0
 20 25  4  0  0  0  0
 21 22  4  0  0  0  0
 22 23  4  0  0  0  0
 23 24  4  0  0  0  0
 24 25  4  0  0  0  0
 26 27  4  0  0  0  0
 26 35  4  0  0  0  0
 27 28  4  0  0  0  0
 28 29  1  0  0  0  0
 28 31  4  0  0  0  0
 29 30  1  0  0  0  0
 31 32  1  0  0  0  0
 31 34  4  0  0  0  0
 32 33  1  0  0  0  0
 34 35  4  0  0  0  0
M  END
>  <Name_Molregno>
417111

>  <Beta-1>
6

>  <Beta-2>
6.41

$$$$
417113
  Marvin  02231216192D 0   1.00000     0.00000     0

 34 36  0  0  1  0  0  0  0  0999 V2000
   -8.1473   -3.0436    0.0000 S   0  0  0  0  0  0  0  0  0
   -8.8617   -3.4561    0.0000 O   0  0  0  0  0  0  0  0  0
   -7.7348   -3.7580    0.0000 O   0  0  0  0  0  0  0  0  0
   -7.4328   -2.6311    0.0000 N   0  0  0  0  0  0  0  0  0
   -6.7183   -3.0436    0.0000 C   0  0  0  0  0  0  0  0  0
   -6.0039   -2.6311    0.0000 C   0  0  0  0  0  0  0  0  0
   -5.2894   -3.0436    0.0000 C   0  0  0  0  0  0  0  0  0
   -5.2894   -3.8686    0.0000 C   0  0  0  0  0  0  0  0  0
   -6.0039   -4.2811    0.0000 C   0  0  0  0  0  0  0  0  0
   -6.7183   -3.8686    0.0000 C   0  0  0  0  0  0  0  0  0
   -7.4328   -4.2811    0.0000 O   0  0  0  0  0  0  0  0  0
   -4.5749   -2.6311    0.0000 C   0  0  0  0  0  0  0  0  0
   -3.8605   -3.0436    0.0000 C   0  0  0  0  0  0  0  0  0
   -3.8605   -3.8686    0.0000 O   0  0  0  0  0  0  0  0  0
   -3.1460   -2.6311    0.0000 C   0  0  0  0  0  0  0  0  0
   -2.4315   -3.0436    0.0000 N   0  0  0  0  0  0  0  0  0
   -1.7170   -2.6311    0.0000 C   0  0  0  0  0  0  0  0  0
   -1.0026   -3.0436    0.0000 C   0  0  0  0  0  0  0  0  0
   -0.2881   -2.6311    0.0000 C   0  0  0  0  0  0  0  0  0
    0.4264   -3.0436    0.0000 C   0  0  0  0  0  0  0  0  0
    1.1408   -2.6311    0.0000 C   0  0  0  0  0  0  0  0  0
    1.8553   -3.0436    0.0000 C   0  0  0  0  0  0  0  0  0
    1.8553   -3.8686    0.0000 C   0  0  0  0  0  0  0  0  0
    1.1408   -4.2811    0.0000 C   0  0  0  0  0  0  0  0  0
    0.4264   -3.8686    0.0000 C   0  0  0  0  0  0  0  0  0
   -1.7170   -1.8061    0.0000 C   0  0  0  0  0  0  0  0  0
   -2.4315   -1.3936    0.0000 C   0  0  0  0  0  0  0  0  0
   -2.4315   -0.5686    0.0000 C   0  0  0  0  0  0  0  0  0
   -1.7170   -0.1561    0.0000 C   0  0  0  0  0  0  0  0  0
   -1.7170    0.6689    0.0000 O   0  0  0  0  0  0  0  0  0
   -1.0026    1.0814    0.0000 C   0  0  0  0  0  0  0  0  0
   -1.0026   -0.5686    0.0000 C   0  0  0  0  0  0  0  0  0
   -1.0026   -1.3936    0.0000 C   0  0  0  0  0  0  0  0  0
   -8.5598   -2.3291    0.0000 C   0  0  0  0  0  0  0  0  0
  1  2  2  0  0  0  0
  1  3  2  0  0  0  0
  1  4  1  0  0  0  0
  1 34  1  0  0  0  0
  4  5  1  0  0  0  0
  5  6  4  0  0  0  0
  5 10  4  0  0  0  0
  6  7  4  0  0  0  0
  7  8  4  0  0  0  0
  7 12  1  0  0  0  0
  8  9  4  0  0  0  0
  9 10  4  0  0  0  0
 10 11  1  0  0  0  0
 12 13  1  0  0  0  0
 13 14  1  0  0  0  0
 13 15  1  0  0  0  0
 15 16  1  0  0  0  0
 16 17  1  0  0  0  0
 17 18  1  0  0  0  0
 17 26  1  0  0  0  0
 18 19  1  0  0  0  0
 19 20  1  0  0  0  0
 20 21  4  0  0  0  0
 20 25  4  0  0  0  0
 21 22  4  0  0  0  0
 22 23  4  0  0  0  0
 23 24  4  0  0  0  0
 24 25  4  0  0  0  0
 26 27  4  0  0  0  0
 26 33  4  0  0  0  0
 27 28  4  0  0  0  0
 28 29  4  0  0  0  0
 29 30  1  0  0  0  0
 29 32  4  0  0  0  0
 30 31  1  0  0  0  0
 32 33  4  0  0  0  0
M  END
>  <Name_Molregno>
417113

>  <Beta-1>
6.14

>  <Beta-2>
6.55

$$$$
417115
  Marvin  02231216192D 0   1.00000     0.00000     0

 34 36  0  0  1  0  0  0  0  0999 V2000
   -1.5965    2.2401    0.0000 S   0  0  0  0  0  0  0  0  0
   -2.3110    1.8276    0.0000 O   0  0  0  0  0  0  0  0  0
   -1.1840    1.5256    0.0000 O   0  0  0  0  0  0  0  0  0
   -0.8820    2.6526    0.0000 N   0  0  0  0  0  0  0  0  0
   -0.1676    2.2401    0.0000 C   0  0  0  0  0  0  0  0  0
    0.5469    2.6526    0.0000 C   0  0  0  0  0  0  0  0  0
    1.2614    2.2401    0.0000 C   0  0  0  0  0  0  0  0  0
    1.2614    1.4151    0.0000 C   0  0  0  0  0  0  0  0  0
    0.5469    1.0026    0.0000 C   0  0  0  0  0  0  0  0  0
   -0.1676    1.4151    0.0000 C   0  0  0  0  0  0  0  0  0
   -0.8820    1.0026    0.0000 O   0  0  0  0  0  0  0  0  0
    1.9758    2.6526    0.0000 C   0  0  0  0  0  0  0  0  0
    2.6903    2.2401    0.0000 C   0  0  0  0  0  0  0  0  0
    2.6903    1.4151    0.0000 O   0  0  0  0  0  0  0  0  0
    3.4048    2.6526    0.0000 C   0  0  0  0  0  0  0  0  0
    4.1193    2.2401    0.0000 N   0  0  0  0  0  0  0  0  0
    4.8337    2.6526    0.0000 C   0  0  0  0  0  0  0  0  0
    5.5482    2.2401    0.0000 C   0  0  0  0  0  0  0  0  0
    6.2627    2.6526    0.0000 C   0  0  0  0  0  0  0  0  0
    6.9771    2.2401    0.0000 C   0  0  0  0  0  0  0  0  0
    7.6916    2.6526    0.0000 C   0  0  0  0  0  0  0  0  0
    8.4061    2.2401    0.0000 C   0  0  0  0  0  0  0  0  0
    8.4061    1.4151    0.0000 C   0  0  0  0  0  0  0  0  0
    7.6916    1.0026    0.0000 C   0  0  0  0  0  0  0  0  0
    6.9771    1.4151    0.0000 C   0  0  0  0  0  0  0  0  0
    4.8337    3.4776    0.0000 C   0  0  0  0  0  0  0  0  0
    4.1193    3.8901    0.0000 C   0  0  0  0  0  0  0  0  0
    4.1193    4.7151    0.0000 C   0  0  0  0  0  0  0  0  0
    3.4048    5.1276    0.0000 O   0  0  0  0  0  0  0  0  0
    3.4048    5.9526    0.0000 C   0  0  0  0  0  0  0  0  0
    4.8337    5.1276    0.0000 C   0  0  0  0  0  0  0  0  0
    5.5482    4.7151    0.0000 C   0  0  0  0  0  0  0  0  0
    5.5482    3.8901    0.0000 C   0  0  0  0  0  0  0  0  0
   -2.0090    2.9545    0.0000 C   0  0  0  0  0  0  0  0  0
  1  2  2  0  0  0  0
  1  3  2  0  0  0  0
  1  4  1  0  0  0  0
  1 34  1  0  0  0  0
  4  5  1  0  0  0  0
  5  6  4  0  0  0  0
  5 10  4  0  0  0  0
  6  7  4  0  0  0  0
  7  8  4  0  0  0  0
  7 12  1  0  0  0  0
  8  9  4  0  0  0  0
  9 10  4  0  0  0  0
 10 11  1  0  0  0  0
 12 13  1  0  0  0  0
 13 14  1  0  0  0  0
 13 15  1  0  0  0  0
 15 16  1  0  0  0  0
 16 17  1  0  0  0  0
 17 18  1  0  0  0  0
 17 26  1  0  0  0  0
 18 19  1  0  0  0  0
 19 20  1  0  0  0  0
 20 21  4  0  0  0  0
 20 25  4  0  0  0  0
 21 22  4  0  0  0  0
 22 23  4  0  0  0  0
 23 24  4  0  0  0  0
 24 25  4  0  0  0  0
 26 27  4  0  0  0  0
 26 33  4  0  0  0  0
 27 28  4  0  0  0  0
 28 29  1  0  0  0  0
 28 31  4  0  0  0  0
 29 30  1  0  0  0  0
 31 32  4  0  0  0  0
 32 33  4  0  0  0  0
M  END
>  <Name_Molregno>
417115

>  <Beta-1>
6.24

>  <Beta-2>
6.7

$$$$
417116
  Marvin  02231216192D 0   1.00000     0.00000     0

 40 42  0  0  1  0  0  0  0  0999 V2000
   -0.2553    3.8542    0.0000 S   0  0  0  0  0  0  0  0  0
   -1.0803    3.8542    0.0000 O   0  0  0  0  0  0  0  0  0
   -0.2553    3.0292    0.0000 O   0  0  0  0  0  0  0  0  0
    0.5697    3.8542    0.0000 N   0  0  0  0  0  0  0  0  0
    0.9822    3.1397    0.0000 C   0  0  0  0  0  0  0  0  0
    1.8072    3.1397    0.0000 C   0  0  0  0  0  0  0  0  0
    2.2197    2.4253    0.0000 C   0  0  0  0  0  0  0  0  0
    1.8072    1.7108    0.0000 C   0  0  0  0  0  0  0  0  0
    0.9822    1.7108    0.0000 C   0  0  0  0  0  0  0  0  0
    0.5697    2.4253    0.0000 C   0  0  0  0  0  0  0  0  0
   -0.2553    2.4253    0.0000 O   0  0  0  0  0  0  0  0  0
    3.0447    2.4253    0.0000 C   0  0  0  0  0  0  0  0  0
    3.4572    1.7108    0.0000 C   0  0  0  0  0  0  0  0  0
    3.0447    0.9963    0.0000 O   0  0  0  0  0  0  0  0  0
    4.2822    1.7108    0.0000 C   0  0  0  0  0  0  0  0  0
    4.6947    0.9963    0.0000 N   0  0  0  0  0  0  0  0  0
    5.5197    0.9963    0.0000 C   0  0  0  0  0  0  0  0  0
    5.9322    1.7108    0.0000 C   0  0  0  0  0  0  0  0  0
    5.5197    2.4253    0.0000 C   0  0  0  0  0  0  0  0  0
    5.9322    3.1397    0.0000 C   0  0  0  0  0  0  0  0  0
    5.5197    3.8542    0.0000 C   0  0  0  0  0  0  0  0  0
    5.9322    4.5687    0.0000 C   0  0  0  0  0  0  0  0  0
    6.7572    4.5687    0.0000 C   0  0  0  0  0  0  0  0  0
    7.1697    3.8542    0.0000 C   0  0  0  0  0  0  0  0  0
    6.7572    3.1397    0.0000 C   0  0  0  0  0  0  0  0  0
    5.9322    0.2819    0.0000 C   0  0  0  0  0  0  0  0  0
    6.7572    0.2819    0.0000 C   0  0  0  0  0  0  0  0  0
    7.1697   -0.4326    0.0000 C   0  0  0  0  0  0  0  0  0
    7.9947   -0.4326    0.0000 O   0  0  0  0  0  0  0  0  0
    8.4072    0.2819    0.0000 C   0  0  0  0  0  0  0  0  0
    7.9947    0.9963    0.0000 F   0  0  0  0  0  0  0  0  0
    9.2322    0.2819    0.0000 F   0  0  0  0  0  0  0  0  0
    6.7572   -1.1471    0.0000 C   0  0  0  0  0  0  0  0  0
    7.1697   -1.8616    0.0000 O   0  0  0  0  0  0  0  0  0
    6.7572   -2.5760    0.0000 C   0  0  0  0  0  0  0  0  0
    7.1697   -3.2905    0.0000 F   0  0  0  0  0  0  0  0  0
    5.9322   -2.5760    0.0000 F   0  0  0  0  0  0  0  0  0
    5.9322   -1.1471    0.0000 C   0  0  0  0  0  0  0  0  0
    5.5197   -0.4326    0.0000 C   0  0  0  0  0  0  0  0  0
   -0.2553    4.6792    0.0000 C   0  0  0  0  0  0  0  0  0
  1  2  2  0  0  0  0
  1  3  2  0  0  0  0
  1  4  1  0  0  0  0
  1 40  1  0  0  0  0
  4  5  1  0  0  0  0
  5  6  4  0  0  0  0
  5 10  4  0  0  0  0
  6  7  4  0  0  0  0
  7  8  4  0  0  0  0
  7 12  1  0  0  0  0
  8  9  4  0  0  0  0
  9 10  4  0  0  0  0
 10 11  1  0  0  0  0
 12 13  1  0  0  0  0
 13 14  1  0  0  0  0
 13 15  1  0  0  0  0
 15 16  1  0  0  0  0
 16 17  1  0  0  0  0
 17 18  1  0  0  0  0
 17 26  1  0  0  0  0
 18 19  1  0  0  0  0
 19 20  1  0  0  0  0
 20 21  4  0  0  0  0
 20 25  4  0  0  0  0
 21 22  4  0  0  0  0
 22 23  4  0  0  0  0
 23 24  4  0  0  0  0
 24 25  4  0  0  0  0
 26 27  4  0  0  0  0
 26 39  4  0  0  0  0
 27 28  4  0  0  0  0
 28 29  1  0  0  0  0
 28 33  4  0  0  0  0
 29 30  1  0  0  0  0
 30 31  1  0  0  0  0
 30 32  1  0  0  0  0
 33 34  1  0  0  0  0
 33 38  4  0  0  0  0
 34 35  1  0  0  0  0
 35 36  1  0  0  0  0
 35 37  1  0  0  0  0
 38 39  4  0  0  0  0
M  END
>  <Name_Molregno>
417116

>  <Beta-1>
6.31

>  <Beta-2>
7.15

$$$$
417118
  Marvin  02231216192D 0   1.00000     0.00000     0

 37 39  0  0  1  0  0  0  0  0999 V2000
    1.1057   -1.9781    0.0000 Cl  0  0  0  0  0  0  0  0  0
    0.3912   -1.5656    0.0000 C   0  0  0  0  0  0  0  0  0
   -0.3232   -1.9781    0.0000 C   0  0  0  0  0  0  0  0  0
   -1.0377   -1.5656    0.0000 C   0  0  0  0  0  0  0  0  0
   -1.0377   -0.7406    0.0000 C   0  0  0  0  0  0  0  0  0
   -0.3232   -0.3281    0.0000 C   0  0  0  0  0  0  0  0  0
    0.3912   -0.7406    0.0000 C   0  0  0  0  0  0  0  0  0
    1.1057   -0.3281    0.0000 C   0  0  0  0  0  0  0  0  0
    1.8202   -0.7406    0.0000 C   0  0  0  0  0  0  0  0  0
    2.5346   -0.3281    0.0000 C   0  0  0  0  0  0  0  0  0
    3.2491   -0.7406    0.0000 N   0  0  0  0  0  0  0  0  0
    3.9636   -0.3281    0.0000 C   0  0  0  0  0  0  0  0  0
    4.6780   -0.7406    0.0000 C   0  0  0  0  0  0  0  0  0
    4.6780   -1.5656    0.0000 O   0  0  0  0  0  0  0  0  0
    5.3925   -0.3281    0.0000 C   0  0  0  0  0  0  0  0  0
    6.1070   -0.7406    0.0000 C   0  0  0  0  0  0  0  0  0
    6.8215   -0.3281    0.0000 C   0  0  0  0  0  0  0  0  0
    7.5359   -0.7406    0.0000 C   0  0  0  0  0  0  0  0  0
    8.2504   -0.3281    0.0000 N   0  0  0  0  0  0  0  0  0
    8.2504    0.4969    0.0000 S   0  0  0  0  0  0  0  0  0
    8.2504    1.3219    0.0000 O   0  0  0  0  0  0  0  0  0
    9.0754    0.4969    0.0000 O   0  0  0  0  0  0  0  0  0
    7.4254    0.4969    0.0000 C   0  0  0  0  0  0  0  0  0
    7.5359   -1.5656    0.0000 C   0  0  0  0  0  0  0  0  0
    8.2504   -1.9781    0.0000 O   0  0  0  0  0  0  0  0  0
    6.8215   -1.9781    0.0000 C   0  0  0  0  0  0  0  0  0
    6.1070   -1.5656    0.0000 C   0  0  0  0  0  0  0  0  0
    2.5346    0.4969    0.0000 C   0  0  0  0  0  0  0  0  0
    1.8202    0.9094    0.0000 C   0  0  0  0  0  0  0  0  0
    1.8202    1.7344    0.0000 C   0  0  0  0  0  0  0  0  0
    1.1057    2.1469    0.0000 O   0  0  0  0  0  0  0  0  0
    1.1057    2.9719    0.0000 C   0  0  0  0  0  0  0  0  0
    2.5346    2.1469    0.0000 C   0  0  0  0  0  0  0  0  0
    2.5346    2.9719    0.0000 O   0  0  0  0  0  0  0  0  0
    3.2491    3.3844    0.0000 C   0  0  0  0  0  0  0  0  0
    3.2491    1.7344    0.0000 C   0  0  0  0  0  0  0  0  0
    3.2491    0.9094    0.0000 C   0  0  0  0  0  0  0  0  0
  1  2  1  0  0  0  0
  2  3  4  0  0  0  0
  2  7  4  0  0  0  0
  3  4  4  0  0  0  0
  4  5  4  0  0  0  0
  5  6  4  0  0  0  0
  6  7  4  0  0  0  0
  7  8  1  0  0  0  0
  8  9  1  0  0  0  0
  9 10  1  0  0  0  0
 10 11  1  0  0  0  0
 10 28  1  0  0  0  0
 11 12  1  0  0  0  0
 12 13  1  0  0  0  0
 13 14  1  0  0  0  0
 13 15  1  0  0  0  0
 15 16  1  0  0  0  0
 16 17  4  0  0  0  0
 16 27  4  0  0  0  0
 17 18  4  0  0  0  0
 18 19  1  0  0  0  0
 18 24  4  0  0  0  0
 19 20  1  0  0  0  0
 20 21  2  0  0  0  0
 20 22  2  0  0  0  0
 20 23  1  0  0  0  0
 24 25  1  0  0  0  0
 24 26  4  0  0  0  0
 26 27  4  0  0  0  0
 28 29  4  0  0  0  0
 28 37  4  0  0  0  0
 29 30  4  0  0  0  0
 30 31  1  0  0  0  0
 30 33  4  0  0  0  0
 31 32  1  0  0  0  0
 33 34  1  0  0  0  0
 33 36  4  0  0  0  0
 34 35  1  0  0  0  0
 36 37  4  0  0  0  0
M  END
>  <Name_Molregno>
417118

>  <Beta-1>
6.57

>  <Beta-2>
7.24

$$$$
417120
  Marvin  02231216192D 0   1.00000     0.00000     0

 37 39  0  0  1  0  0  0  0  0999 V2000
   -0.8825   -1.6829    0.0000 Cl  0  0  0  0  0  0  0  0  0
   -0.1680   -2.0954    0.0000 C   0  0  0  0  0  0  0  0  0
    0.5465   -1.6829    0.0000 C   0  0  0  0  0  0  0  0  0
    1.2609   -2.0954    0.0000 C   0  0  0  0  0  0  0  0  0
    1.2609   -2.9204    0.0000 C   0  0  0  0  0  0  0  0  0
    0.5465   -3.3329    0.0000 C   0  0  0  0  0  0  0  0  0
   -0.1680   -2.9204    0.0000 C   0  0  0  0  0  0  0  0  0
    1.9754   -1.6829    0.0000 C   0  0  0  0  0  0  0  0  0
    2.6899   -2.0954    0.0000 C   0  0  0  0  0  0  0  0  0
    3.4044   -1.6829    0.0000 C   0  0  0  0  0  0  0  0  0
    4.1188   -2.0954    0.0000 N   0  0  0  0  0  0  0  0  0
    4.8333   -1.6829    0.0000 C   0  0  0  0  0  0  0  0  0
    5.5478   -2.0954    0.0000 C   0  0  0  0  0  0  0  0  0
    5.5478   -2.9204    0.0000 O   0  0  0  0  0  0  0  0  0
    6.2622   -1.6829    0.0000 C   0  0  0  0  0  0  0  0  0
    6.9767   -2.0954    0.0000 C   0  0  0  0  0  0  0  0  0
    7.6912   -1.6829    0.0000 C   0  0  0  0  0  0  0  0  0
    8.4057   -2.0954    0.0000 C   0  0  0  0  0  0  0  0  0
    9.1201   -1.6829    0.0000 N   0  0  0  0  0  0  0  0  0
    9.1201   -0.8579    0.0000 S   0  0  0  0  0  0  0  0  0
    9.1201   -0.0329    0.0000 O   0  0  0  0  0  0  0  0  0
    9.9451   -0.8579    0.0000 O   0  0  0  0  0  0  0  0  0
    8.2951   -0.8579    0.0000 C   0  0  0  0  0  0  0  0  0
    8.4057   -2.9204    0.0000 C   0  0  0  0  0  0  0  0  0
    9.1201   -3.3329    0.0000 O   0  0  0  0  0  0  0  0  0
    7.6912   -3.3329    0.0000 C   0  0  0  0  0  0  0  0  0
    6.9767   -2.9204    0.0000 C   0  0  0  0  0  0  0  0  0
    3.4044   -0.8579    0.0000 C   0  0  0  0  0  0  0  0  0
    2.6899   -0.4454    0.0000 C   0  0  0  0  0  0  0  0  0
    2.6899    0.3796    0.0000 C   0  0  0  0  0  0  0  0  0
    1.9754    0.7921    0.0000 O   0  0  0  0  0  0  0  0  0
    1.9754    1.6171    0.0000 C   0  0  0  0  0  0  0  0  0
    3.4044    0.7921    0.0000 C   0  0  0  0  0  0  0  0  0
    3.4044    1.6171    0.0000 O   0  0  0  0  0  0  0  0  0
    4.1188    2.0296    0.0000 C   0  0  0  0  0  0  0  0  0
    4.1188    0.3796    0.0000 C   0  0  0  0  0  0  0  0  0
    4.1188   -0.4454    0.0000 C   0  0  0  0  0  0  0  0  0
  1  2  1  0  0  0  0
  2  3  4  0  0  0  0
  2  7  4  0  0  0  0
  3  4  4  0  0  0  0
  4  5  4  0  0  0  0
  4  8  1  0  0  0  0
  5  6  4  0  0  0  0
  6  7  4  0  0  0  0
  8  9  1  0  0  0  0
  9 10  1  0  0  0  0
 10 11  1  0  0  0  0
 10 28  1  0  0  0  0
 11 12  1  0  0  0  0
 12 13  1  0  0  0  0
 13 14  1  0  0  0  0
 13 15  1  0  0  0  0
 15 16  1  0  0  0  0
 16 17  4  0  0  0  0
 16 27  4  0  0  0  0
 17 18  4  0  0  0  0
 18 19  1  0  0  0  0
 18 24  4  0  0  0  0
 19 20  1  0  0  0  0
 20 21  2  0  0  0  0
 20 22  2  0  0  0  0
 20 23  1  0  0  0  0
 24 25  1  0  0  0  0
 24 26  4  0  0  0  0
 26 27  4  0  0  0  0
 28 29  4  0  0  0  0
 28 37  4  0  0  0  0
 29 30  4  0  0  0  0
 30 31  1  0  0  0  0
 30 33  4  0  0  0  0
 31 32  1  0  0  0  0
 33 34  1  0  0  0  0
 33 36  4  0  0  0  0
 34 35  1  0  0  0  0
 36 37  4  0  0  0  0
M  END
>  <Name_Molregno>
417120

>  <Beta-1>
6.38

>  <Beta-2>
7.59

$$$$
417122
  Marvin  02231216192D 0   1.00000     0.00000     0

 37 39  0  0  1  0  0  0  0  0999 V2000
   -9.2444   -4.6923    0.0000 Cl  0  0  0  0  0  0  0  0  0
   -8.5299   -4.2798    0.0000 C   0  0  0  0  0  0  0  0  0
   -8.5299   -3.4548    0.0000 C   0  0  0  0  0  0  0  0  0
   -7.8154   -3.0423    0.0000 C   0  0  0  0  0  0  0  0  0
   -7.1010   -3.4548    0.0000 C   0  0  0  0  0  0  0  0  0
   -7.1010   -4.2798    0.0000 C   0  0  0  0  0  0  0  0  0
   -7.8154   -4.6923    0.0000 C   0  0  0  0  0  0  0  0  0
   -6.3865   -3.0423    0.0000 C   0  0  0  0  0  0  0  0  0
   -5.6720   -3.4548    0.0000 C   0  0  0  0  0  0  0  0  0
   -4.9575   -3.0423    0.0000 C   0  0  0  0  0  0  0  0  0
   -4.2431   -3.4548    0.0000 N   0  0  0  0  0  0  0  0  0
   -3.5286   -3.0423    0.0000 C   0  0  0  0  0  0  0  0  0
   -2.8141   -3.4548    0.0000 C   0  0  0  0  0  0  0  0  0
   -2.8141   -4.2798    0.0000 O   0  0  0  0  0  0  0  0  0
   -2.0997   -3.0423    0.0000 C   0  0  0  0  0  0  0  0  0
   -1.3852   -3.4548    0.0000 C   0  0  0  0  0  0  0  0  0
   -0.6707   -3.0423    0.0000 C   0  0  0  0  0  0  0  0  0
    0.0437   -3.4548    0.0000 C   0  0  0  0  0  0  0  0  0
    0.7582   -3.0423    0.0000 N   0  0  0  0  0  0  0  0  0
    0.7582   -2.2173    0.0000 S   0  0  0  0  0  0  0  0  0
    0.7582   -1.3923    0.0000 O   0  0  0  0  0  0  0  0  0
    1.5832   -2.2173    0.0000 O   0  0  0  0  0  0  0  0  0
   -0.0668   -2.2173    0.0000 C   0  0  0  0  0  0  0  0  0
    0.0437   -4.2798    0.0000 C   0  0  0  0  0  0  0  0  0
    0.7582   -4.6923    0.0000 O   0  0  0  0  0  0  0  0  0
   -0.6707   -4.6923    0.0000 C   0  0  0  0  0  0  0  0  0
   -1.3852   -4.2798    0.0000 C   0  0  0  0  0  0  0  0  0
   -4.9575   -2.2173    0.0000 C   0  0  0  0  0  0  0  0  0
   -5.6720   -1.8048    0.0000 C   0  0  0  0  0  0  0  0  0
   -5.6720   -0.9798    0.0000 C   0  0  0  0  0  0  0  0  0
   -6.3865   -0.5673    0.0000 O   0  0  0  0  0  0  0  0  0
   -6.3865    0.2577    0.0000 C   0  0  0  0  0  0  0  0  0
   -4.9575   -0.5673    0.0000 C   0  0  0  0  0  0  0  0  0
   -4.9575    0.2577    0.0000 O   0  0  0  0  0  0  0  0  0
   -4.2431    0.6702    0.0000 C   0  0  0  0  0  0  0  0  0
   -4.2431   -0.9798    0.0000 C   0  0  0  0  0  0  0  0  0
   -4.2431   -1.8048    0.0000 C   0  0  0  0  0  0  0  0  0
  1  2  1  0  0  0  0
  2  3  4  0  0  0  0
  2  7  4  0  0  0  0
  3  4  4  0  0  0  0
  4  5  4  0  0  0  0
  5  6  4  0  0  0  0
  5  8  1  0  0  0  0
  6  7  4  0  0  0  0
  8  9  1  0  0  0  0
  9 10  1  0  0  0  0
 10 11  1  0  0  0  0
 10 28  1  0  0  0  0
 11 12  1  0  0  0  0
 12 13  1  0  0  0  0
 13 14  1  0  0  0  0
 13 15  1  0  0  0  0
 15 16  1  0  0  0  0
 16 17  4  0  0  0  0
 16 27  4  0  0  0  0
 17 18  4  0  0  0  0
 18 19  1  0  0  0  0
 18 24  4  0  0  0  0
 19 20  1  0  0  0  0
 20 21  2  0  0  0  0
 20 22  2  0  0  0  0
 20 23  1  0  0  0  0
 24 25  1  0  0  0  0
 24 26  4  0  0  0  0
 26 27  4  0  0  0  0
 28 29  4  0  0  0  0
 28 37  4  0  0  0  0
 29 30  4  0  0  0  0
 30 31  1  0  0  0  0
 30 33  4  0  0  0  0
 31 32  1  0  0  0  0
 33 34  1  0  0  0  0
 33 36  4  0  0  0  0
 34 35  1  0  0  0  0
 36 37  4  0  0  0  0
M  END
>  <Name_Molregno>
417122

>  <Beta-1>
5.98

>  <Beta-2>
6.92

$$$$
417415
  Marvin  02231216192D 0   1.00000     0.00000     0

 24 26  0  0  1  0  0  0  0  0999 V2000
    0.4410    2.3135    0.0000 S   0  0  0  0  0  0  0  0  0
    1.2479    2.1420    0.0000 C   0  0  0  0  0  0  0  0  0
    1.3342    1.3215    0.0000 C   0  0  0  0  0  0  0  0  0
    0.5805    0.9860    0.0000 N   0  0  0  0  0  0  0  0  0
    0.0285    1.5991    0.0000 C   0  0  0  0  0  0  0  0  0
    2.0486    0.9090    0.0000 C   0  0  0  0  0  0  0  0  0
    2.7631    1.3215    0.0000 C   0  0  0  0  0  0  0  0  0
    3.4776    0.9090    0.0000 C   0  0  0  0  0  0  0  0  0
    3.4776    0.0840    0.0000 C   0  0  0  0  0  0  0  0  0
    4.1921   -0.3285    0.0000 O   0  0  0  0  0  0  0  0  0
    4.9065    0.0840    0.0000 C   0  0  0  0  0  0  0  0  0
    5.6210   -0.3285    0.0000 C   0  0  0  0  0  0  0  0  0
    6.3355    0.0840    0.0000 N   0  0  0  0  0  0  0  0  0
    7.0499   -0.3285    0.0000 C   0  0  0  0  0  0  0  0  0
    7.7644    0.0840    0.0000 C   0  0  0  0  0  0  0  0  0
    7.7644    0.9090    0.0000 O   0  0  0  0  0  0  0  0  0
    8.4789   -0.3285    0.0000 C   0  0  0  0  0  0  0  0  0
    9.1934    0.0840    0.0000 C   0  0  0  0  0  0  0  0  0
    9.9078   -0.3285    0.0000 C   0  0  0  0  0  0  0  0  0
    9.9078   -1.1535    0.0000 C   0  0  0  0  0  0  0  0  0
    9.1934   -1.5660    0.0000 N   0  0  0  0  0  0  0  0  0
    8.4789   -1.1535    0.0000 C   0  0  0  0  0  0  0  0  0
    2.7631   -0.3285    0.0000 C   0  0  0  0  0  0  0  0  0
    2.0486    0.0840    0.0000 C   0  0  0  0  0  0  0  0  0
  1  2  4  0  0  0  0
  1  5  4  0  0  0  0
  2  3  4  0  0  0  0
  3  4  4  0  0  0  0
  3  6  1  0  0  0  0
  4  5  4  0  0  0  0
  6  7  4  0  0  0  0
  6 24  4  0  0  0  0
  7  8  4  0  0  0  0
  8  9  4  0  0  0  0
  9 10  1  0  0  0  0
  9 23  4  0  0  0  0
 10 11  1  0  0  0  0
 11 12  1  0  0  0  0
 12 13  1  0  0  0  0
 13 14  1  0  0  0  0
 14 15  1  0  0  0  0
 15 16  1  0  0  0  0
 15 17  1  0  0  0  0
 17 18  4  0  0  0  0
 17 22  4  0  0  0  0
 18 19  4  0  0  0  0
 19 20  4  0  0  0  0
 20 21  4  0  0  0  0
 21 22  4  0  0  0  0
 23 24  4  0  0  0  0
M  END
>  <Name_Molregno>
417415

>  <Beta-1>
6.85

>  <Beta-2>
8

$$$$
417417
  Marvin  02231216192D 0   1.00000     0.00000     0

 25 27  0  0  1  0  0  0  0  0999 V2000
   -8.8698    2.3248    0.0000 S   0  0  0  0  0  0  0  0  0
   -8.0628    2.1532    0.0000 C   0  0  0  0  0  0  0  0  0
   -7.9766    1.3328    0.0000 C   0  0  0  0  0  0  0  0  0
   -8.7303    0.9972    0.0000 N   0  0  0  0  0  0  0  0  0
   -9.2823    1.6103    0.0000 C   0  0  0  0  0  0  0  0  0
  -10.1028    1.5241    0.0000 C   0  0  0  0  0  0  0  0  0
   -7.2621    0.9203    0.0000 C   0  0  0  0  0  0  0  0  0
   -6.5476    1.3328    0.0000 C   0  0  0  0  0  0  0  0  0
   -5.8332    0.9203    0.0000 C   0  0  0  0  0  0  0  0  0
   -5.8332    0.0953    0.0000 C   0  0  0  0  0  0  0  0  0
   -5.1187   -0.3172    0.0000 O   0  0  0  0  0  0  0  0  0
   -4.4042    0.0953    0.0000 C   0  0  0  0  0  0  0  0  0
   -3.6898   -0.3172    0.0000 C   0  0  0  0  0  0  0  0  0
   -2.9753    0.0953    0.0000 N   0  0  0  0  0  0  0  0  0
   -2.2608   -0.3172    0.0000 C   0  0  0  0  0  0  0  0  0
   -1.5463    0.0953    0.0000 C   0  0  0  0  0  0  0  0  0
   -1.5463    0.9203    0.0000 O   0  0  0  0  0  0  0  0  0
   -0.8319   -0.3172    0.0000 C   0  0  0  0  0  0  0  0  0
   -0.1174    0.0953    0.0000 C   0  0  0  0  0  0  0  0  0
    0.5971   -0.3172    0.0000 C   0  0  0  0  0  0  0  0  0
    0.5971   -1.1422    0.0000 C   0  0  0  0  0  0  0  0  0
   -0.1174   -1.5547    0.0000 N   0  0  0  0  0  0  0  0  0
   -0.8319   -1.1422    0.0000 C   0  0  0  0  0  0  0  0  0
   -6.5476   -0.3172    0.0000 C   0  0  0  0  0  0  0  0  0
   -7.2621    0.0953    0.0000 C   0  0  0  0  0  0  0  0  0
  1  2  4  0  0  0  0
  1  5  4  0  0  0  0
  2  3  4  0  0  0  0
  3  4  4  0  0  0  0
  3  7  1  0  0  0  0
  4  5  4  0  0  0  0
  5  6  1  0  0  0  0
  7  8  4  0  0  0  0
  7 25  4  0  0  0  0
  8  9  4  0  0  0  0
  9 10  4  0  0  0  0
 10 11  1  0  0  0  0
 10 24  4  0  0  0  0
 11 12  1  0  0  0  0
 12 13  1  0  0  0  0
 13 14  1  0  0  0  0
 14 15  1  0  0  0  0
 15 16  1  0  0  0  0
 16 17  1  0  0  0  0
 16 18  1  0  0  0  0
 18 19  4  0  0  0  0
 18 23  4  0  0  0  0
 19 20  4  0  0  0  0
 20 21  4  0  0  0  0
 21 22  4  0  0  0  0
 22 23  4  0  0  0  0
 24 25  4  0  0  0  0
M  END
>  <Name_Molregno>
417417

>  <Beta-1>
7

>  <Beta-2>
6.92

$$$$
417430
  Marvin  02231216192D 0   1.00000     0.00000     0

 30 33  0  0  1  0  0  0  0  0999 V2000
   -6.7625    1.4525    0.0000 S   0  0  0  0  0  0  0  0  0
   -5.9555    1.2810    0.0000 C   0  0  0  0  0  0  0  0  0
   -5.8693    0.4605    0.0000 C   0  0  0  0  0  0  0  0  0
   -6.6230    0.1249    0.0000 N   0  0  0  0  0  0  0  0  0
   -7.1750    0.7380    0.0000 C   0  0  0  0  0  0  0  0  0
   -7.9955    0.6518    0.0000 C   0  0  0  0  0  0  0  0  0
   -8.3311   -0.1019    0.0000 C   0  0  0  0  0  0  0  0  0
   -9.1515   -0.1881    0.0000 C   0  0  0  0  0  0  0  0  0
   -9.6365    0.4793    0.0000 C   0  0  0  0  0  0  0  0  0
   -9.3009    1.2330    0.0000 C   0  0  0  0  0  0  0  0  0
   -8.4804    1.3192    0.0000 C   0  0  0  0  0  0  0  0  0
   -5.1548    0.0480    0.0000 C   0  0  0  0  0  0  0  0  0
   -4.4404    0.4605    0.0000 C   0  0  0  0  0  0  0  0  0
   -3.7259    0.0480    0.0000 C   0  0  0  0  0  0  0  0  0
   -3.7259   -0.7770    0.0000 C   0  0  0  0  0  0  0  0  0
   -3.0114   -1.1895    0.0000 O   0  0  0  0  0  0  0  0  0
   -2.2970   -0.7770    0.0000 C   0  0  0  0  0  0  0  0  0
   -1.5825   -1.1895    0.0000 C   0  0  0  0  0  0  0  0  0
   -0.8680   -0.7770    0.0000 N   0  0  0  0  0  0  0  0  0
   -0.1535   -1.1895    0.0000 C   0  0  0  0  0  0  0  0  0
    0.5609   -0.7770    0.0000 C   0  0  0  0  0  0  0  0  0
    0.5609    0.0480    0.0000 O   0  0  0  0  0  0  0  0  0
    1.2754   -1.1895    0.0000 C   0  0  0  0  0  0  0  0  0
    1.9899   -0.7770    0.0000 C   0  0  0  0  0  0  0  0  0
    2.7043   -1.1895    0.0000 C   0  0  0  0  0  0  0  0  0
    2.7043   -2.0145    0.0000 C   0  0  0  0  0  0  0  0  0
    1.9899   -2.4270    0.0000 N   0  0  0  0  0  0  0  0  0
    1.2754   -2.0145    0.0000 C   0  0  0  0  0  0  0  0  0
   -4.4404   -1.1895    0.0000 C   0  0  0  0  0  0  0  0  0
   -5.1548   -0.7770    0.0000 C   0  0  0  0  0  0  0  0  0
  1  2  4  0  0  0  0
  1  5  4  0  0  0  0
  2  3  4  0  0  0  0
  3  4  4  0  0  0  0
  3 12  1  0  0  0  0
  4  5  4  0  0  0  0
  5  6  1  0  0  0  0
  6  7  4  0  0  0  0
  6 11  4  0  0  0  0
  7  8  4  0  0  0  0
  8  9  4  0  0  0  0
  9 10  4  0  0  0  0
 10 11  4  0  0  0  0
 12 13  4  0  0  0  0
 12 30  4  0  0  0  0
 13 14  4  0  0  0  0
 14 15  4  0  0  0  0
 15 16  1  0  0  0  0
 15 29  4  0  0  0  0
 16 17  1  0  0  0  0
 17 18  1  0  0  0  0
 18 19  1  0  0  0  0
 19 20  1  0  0  0  0
 20 21  1  0  0  0  0
 21 22  1  0  0  0  0
 21 23  1  0  0  0  0
 23 24  4  0  0  0  0
 23 28  4  0  0  0  0
 24 25  4  0  0  0  0
 25 26  4  0  0  0  0
 26 27  4  0  0  0  0
 27 28  4  0  0  0  0
 29 30  4  0  0  0  0
M  END
>  <Name_Molregno>
417430

>  <Beta-1>
6.82

>  <Beta-2>
6.3

$$$$
417436
  Marvin  02231216192D 0   1.00000     0.00000     0

 24 26  0  0  1  0  0  0  0  0999 V2000
    0.4410    2.3135    0.0000 O   0  0  0  0  0  0  0  0  0
    1.2479    2.1420    0.0000 C   0  0  0  0  0  0  0  0  0
    1.3342    1.3215    0.0000 C   0  0  0  0  0  0  0  0  0
    0.5805    0.9860    0.0000 N   0  0  0  0  0  0  0  0  0
    0.0285    1.5991    0.0000 C   0  0  0  0  0  0  0  0  0
    2.0486    0.9090    0.0000 C   0  0  0  0  0  0  0  0  0
    2.7631    1.3215    0.0000 C   0  0  0  0  0  0  0  0  0
    3.4776    0.9090    0.0000 C   0  0  0  0  0  0  0  0  0
    3.4776    0.0840    0.0000 C   0  0  0  0  0  0  0  0  0
    4.1921   -0.3285    0.0000 O   0  0  0  0  0  0  0  0  0
    4.9065    0.0840    0.0000 C   0  0  0  0  0  0  0  0  0
    5.6210   -0.3285    0.0000 C   0  0  0  0  0  0  0  0  0
    6.3355    0.0840    0.0000 N   0  0  0  0  0  0  0  0  0
    7.0499   -0.3285    0.0000 C   0  0  0  0  0  0  0  0  0
    7.7644    0.0840    0.0000 C   0  0  0  0  0  0  0  0  0
    7.7644    0.9090    0.0000 O   0  0  0  0  0  0  0  0  0
    8.4789   -0.3285    0.0000 C   0  0  0  0  0  0  0  0  0
    9.1934    0.0840    0.0000 C   0  0  0  0  0  0  0  0  0
    9.9078   -0.3285    0.0000 C   0  0  0  0  0  0  0  0  0
    9.9078   -1.1535    0.0000 C   0  0  0  0  0  0  0  0  0
    9.1934   -1.5660    0.0000 N   0  0  0  0  0  0  0  0  0
    8.4789   -1.1535    0.0000 C   0  0  0  0  0  0  0  0  0
    2.7631   -0.3285    0.0000 C   0  0  0  0  0  0  0  0  0
    2.0486    0.0840    0.0000 C   0  0  0  0  0  0  0  0  0
  1  2  4  0  0  0  0
  1  5  4  0  0  0  0
  2  3  4  0  0  0  0
  3  4  4  0  0  0  0
  3  6  1  0  0  0  0
  4  5  4  0  0  0  0
  6  7  4  0  0  0  0
  6 24  4  0  0  0  0
  7  8  4  0  0  0  0
  8  9  4  0  0  0  0
  9 10  1  0  0  0  0
  9 23  4  0  0  0  0
 10 11  1  0  0  0  0
 11 12  1  0  0  0  0
 12 13  1  0  0  0  0
 13 14  1  0  0  0  0
 14 15  1  0  0  0  0
 15 16  1  0  0  0  0
 15 17  1  0  0  0  0
 17 18  4  0  0  0  0
 17 22  4  0  0  0  0
 18 19  4  0  0  0  0
 19 20  4  0  0  0  0
 20 21  4  0  0  0  0
 21 22  4  0  0  0  0
 23 24  4  0  0  0  0
M  END
>  <Name_Molregno>
417436

>  <Beta-1>
6.7

>  <Beta-2>
8

$$$$
417443
  Marvin  02231216192D 0   1.00000     0.00000     0

 25 27  0  0  1  0  0  0  0  0999 V2000
   -8.8698    2.3248    0.0000 O   0  0  0  0  0  0  0  0  0
   -8.0628    2.1532    0.0000 C   0  0  0  0  0  0  0  0  0
   -7.9766    1.3328    0.0000 C   0  0  0  0  0  0  0  0  0
   -8.7303    0.9972    0.0000 N   0  0  0  0  0  0  0  0  0
   -9.2823    1.6103    0.0000 C   0  0  0  0  0  0  0  0  0
  -10.1028    1.5241    0.0000 C   0  0  0  0  0  0  0  0  0
   -7.2621    0.9203    0.0000 C   0  0  0  0  0  0  0  0  0
   -6.5476    1.3328    0.0000 C   0  0  0  0  0  0  0  0  0
   -5.8332    0.9203    0.0000 C   0  0  0  0  0  0  0  0  0
   -5.8332    0.0953    0.0000 C   0  0  0  0  0  0  0  0  0
   -5.1187   -0.3172    0.0000 O   0  0  0  0  0  0  0  0  0
   -4.4042    0.0953    0.0000 C   0  0  0  0  0  0  0  0  0
   -3.6898   -0.3172    0.0000 C   0  0  0  0  0  0  0  0  0
   -2.9753    0.0953    0.0000 N   0  0  0  0  0  0  0  0  0
   -2.2608   -0.3172    0.0000 C   0  0  0  0  0  0  0  0  0
   -1.5463    0.0953    0.0000 C   0  0  0  0  0  0  0  0  0
   -1.5463    0.9203    0.0000 O   0  0  0  0  0  0  0  0  0
   -0.8319   -0.3172    0.0000 C   0  0  0  0  0  0  0  0  0
   -0.1174    0.0953    0.0000 C   0  0  0  0  0  0  0  0  0
    0.5971   -0.3172    0.0000 C   0  0  0  0  0  0  0  0  0
    0.5971   -1.1422    0.0000 C   0  0  0  0  0  0  0  0  0
   -0.1174   -1.5547    0.0000 N   0  0  0  0  0  0  0  0  0
   -0.8319   -1.1422    0.0000 C   0  0  0  0  0  0  0  0  0
   -6.5476   -0.3172    0.0000 C   0  0  0  0  0  0  0  0  0
   -7.2621    0.0953    0.0000 C   0  0  0  0  0  0  0  0  0
  1  2  4  0  0  0  0
  1  5  4  0  0  0  0
  2  3  4  0  0  0  0
  3  4  4  0  0  0  0
  3  7  1  0  0  0  0
  4  5  4  0  0  0  0
  5  6  1  0  0  0  0
  7  8  4  0  0  0  0
  7 25  4  0  0  0  0
  8  9  4  0  0  0  0
  9 10  4  0  0  0  0
 10 11  1  0  0  0  0
 10 24  4  0  0  0  0
 11 12  1  0  0  0  0
 12 13  1  0  0  0  0
 13 14  1  0  0  0  0
 14 15  1  0  0  0  0
 15 16  1  0  0  0  0
 16 17  1  0  0  0  0
 16 18  1  0  0  0  0
 18 19  4  0  0  0  0
 18 23  4  0  0  0  0
 19 20  4  0  0  0  0
 20 21  4  0  0  0  0
 21 22  4  0  0  0  0
 22 23  4  0  0  0  0
 24 25  4  0  0  0  0
M  END
>  <Name_Molregno>
417443

>  <Beta-1>
6.4

>  <Beta-2>
7.68

$$$$
417446
  Marvin  02231216192D 0   1.00000     0.00000     0

 26 28  0  0  1  0  0  0  0  0999 V2000
   -8.4182    1.7924    0.0000 O   0  0  0  0  0  0  0  0  0
   -7.6112    1.6209    0.0000 C   0  0  0  0  0  0  0  0  0
   -7.5250    0.8004    0.0000 C   0  0  0  0  0  0  0  0  0
   -8.2787    0.4648    0.0000 N   0  0  0  0  0  0  0  0  0
   -8.8307    1.0779    0.0000 C   0  0  0  0  0  0  0  0  0
   -9.6512    0.9917    0.0000 C   0  0  0  0  0  0  0  0  0
  -10.1361    1.6591    0.0000 C   0  0  0  0  0  0  0  0  0
   -6.8105    0.3879    0.0000 C   0  0  0  0  0  0  0  0  0
   -6.0961    0.8004    0.0000 C   0  0  0  0  0  0  0  0  0
   -5.3816    0.3879    0.0000 C   0  0  0  0  0  0  0  0  0
   -5.3816   -0.4371    0.0000 C   0  0  0  0  0  0  0  0  0
   -4.6671   -0.8496    0.0000 O   0  0  0  0  0  0  0  0  0
   -3.9526   -0.4371    0.0000 C   0  0  0  0  0  0  0  0  0
   -3.2382   -0.8496    0.0000 C   0  0  0  0  0  0  0  0  0
   -2.5237   -0.4371    0.0000 N   0  0  0  0  0  0  0  0  0
   -1.8092   -0.8496    0.0000 C   0  0  0  0  0  0  0  0  0
   -1.0948   -0.4371    0.0000 C   0  0  0  0  0  0  0  0  0
   -1.0948    0.3879    0.0000 O   0  0  0  0  0  0  0  0  0
   -0.3803   -0.8496    0.0000 C   0  0  0  0  0  0  0  0  0
    0.3342   -0.4371    0.0000 C   0  0  0  0  0  0  0  0  0
    1.0487   -0.8496    0.0000 C   0  0  0  0  0  0  0  0  0
    1.0487   -1.6746    0.0000 C   0  0  0  0  0  0  0  0  0
    0.3342   -2.0871    0.0000 N   0  0  0  0  0  0  0  0  0
   -0.3803   -1.6746    0.0000 C   0  0  0  0  0  0  0  0  0
   -6.0961   -0.8496    0.0000 C   0  0  0  0  0  0  0  0  0
   -6.8105   -0.4371    0.0000 C   0  0  0  0  0  0  0  0  0
  1  2  4  0  0  0  0
  1  5  4  0  0  0  0
  2  3  4  0  0  0  0
  3  4  4  0  0  0  0
  3  8  1  0  0  0  0
  4  5  4  0  0  0  0
  5  6  1  0  0  0  0
  6  7  1  0  0  0  0
  8  9  4  0  0  0  0
  8 26  4  0  0  0  0
  9 10  4  0  0  0  0
 10 11  4  0  0  0  0
 11 12  1  0  0  0  0
 11 25  4  0  0  0  0
 12 13  1  0  0  0  0
 13 14  1  0  0  0  0
 14 15  1  0  0  0  0
 15 16  1  0  0  0  0
 16 17  1  0  0  0  0
 17 18  1  0  0  0  0
 17 19  1  0  0  0  0
 19 20  4  0  0  0  0
 19 24  4  0  0  0  0
 20 21  4  0  0  0  0
 21 22  4  0  0  0  0
 22 23  4  0  0  0  0
 23 24  4  0  0  0  0
 25 26  4  0  0  0  0
M  END
>  <Name_Molregno>
417446

>  <Beta-1>
6.4

>  <Beta-2>
7.43

$$$$
417461
  Marvin  02231216192D 0   1.00000     0.00000     0

 27 29  0  0  1  0  0  0  0  0999 V2000
   -8.0224    1.9390    0.0000 O   0  0  0  0  0  0  0  0  0
   -7.2154    1.7675    0.0000 C   0  0  0  0  0  0  0  0  0
   -7.1292    0.9470    0.0000 C   0  0  0  0  0  0  0  0  0
   -7.8829    0.6114    0.0000 N   0  0  0  0  0  0  0  0  0
   -8.4349    1.2245    0.0000 C   0  0  0  0  0  0  0  0  0
   -9.2554    1.1383    0.0000 C   0  0  0  0  0  0  0  0  0
   -9.7403    1.8057    0.0000 C   0  0  0  0  0  0  0  0  0
   -9.5909    0.3846    0.0000 C   0  0  0  0  0  0  0  0  0
   -6.4147    0.5345    0.0000 C   0  0  0  0  0  0  0  0  0
   -5.7002    0.9470    0.0000 C   0  0  0  0  0  0  0  0  0
   -4.9858    0.5345    0.0000 C   0  0  0  0  0  0  0  0  0
   -4.9858   -0.2905    0.0000 C   0  0  0  0  0  0  0  0  0
   -4.2713   -0.7030    0.0000 O   0  0  0  0  0  0  0  0  0
   -3.5568   -0.2905    0.0000 C   0  0  0  0  0  0  0  0  0
   -2.8424   -0.7030    0.0000 C   0  0  0  0  0  0  0  0  0
   -2.1279   -0.2905    0.0000 N   0  0  0  0  0  0  0  0  0
   -1.4134   -0.7030    0.0000 C   0  0  0  0  0  0  0  0  0
   -0.6989   -0.2905    0.0000 C   0  0  0  0  0  0  0  0  0
   -0.6989    0.5345    0.0000 O   0  0  0  0  0  0  0  0  0
    0.0155   -0.7030    0.0000 C   0  0  0  0  0  0  0  0  0
    0.7300   -0.2905    0.0000 C   0  0  0  0  0  0  0  0  0
    1.4445   -0.7030    0.0000 C   0  0  0  0  0  0  0  0  0
    1.4445   -1.5280    0.0000 C   0  0  0  0  0  0  0  0  0
    0.7300   -1.9405    0.0000 N   0  0  0  0  0  0  0  0  0
    0.0155   -1.5280    0.0000 C   0  0  0  0  0  0  0  0  0
   -5.7002   -0.7030    0.0000 C   0  0  0  0  0  0  0  0  0
   -6.4147   -0.2905    0.0000 C   0  0  0  0  0  0  0  0  0
  1  2  4  0  0  0  0
  1  5  4  0  0  0  0
  2  3  4  0  0  0  0
  3  4  4  0  0  0  0
  3  9  1  0  0  0  0
  4  5  4  0  0  0  0
  5  6  1  0  0  0  0
  6  7  1  0  0  0  0
  6  8  1  0  0  0  0
  9 10  4  0  0  0  0
  9 27  4  0  0  0  0
 10 11  4  0  0  0  0
 11 12  4  0  0  0  0
 12 13  1  0  0  0  0
 12 26  4  0  0  0  0
 13 14  1  0  0  0  0
 14 15  1  0  0  0  0
 15 16  1  0  0  0  0
 16 17  1  0  0  0  0
 17 18  1  0  0  0  0
 18 19  1  0  0  0  0
 18 20  1  0  0  0  0
 20 21  4  0  0  0  0
 20 25  4  0  0  0  0
 21 22  4  0  0  0  0
 22 23  4  0  0  0  0
 23 24  4  0  0  0  0
 24 25  4  0  0  0  0
 26 27  4  0  0  0  0
M  END
>  <Name_Molregno>
417461

>  <Beta-1>
6.44

>  <Beta-2>
7.31

$$$$
417471
  Marvin  02231216192D 0   1.00000     0.00000     0

 26 28  0  0  1  0  0  0  0  0999 V2000
   -8.4182    1.7924    0.0000 O   0  0  0  0  0  0  0  0  0
   -7.6112    1.6209    0.0000 C   0  0  0  0  0  0  0  0  0
   -7.5250    0.8004    0.0000 C   0  0  0  0  0  0  0  0  0
   -8.2787    0.4648    0.0000 N   0  0  0  0  0  0  0  0  0
   -8.8307    1.0779    0.0000 C   0  0  0  0  0  0  0  0  0
   -9.6512    0.9917    0.0000 C   0  0  0  0  0  0  0  0  0
  -10.1361    1.6591    0.0000 O   0  0  0  0  0  0  0  0  0
   -6.8105    0.3879    0.0000 C   0  0  0  0  0  0  0  0  0
   -6.0961    0.8004    0.0000 C   0  0  0  0  0  0  0  0  0
   -5.3816    0.3879    0.0000 C   0  0  0  0  0  0  0  0  0
   -5.3816   -0.4371    0.0000 C   0  0  0  0  0  0  0  0  0
   -4.6671   -0.8496    0.0000 O   0  0  0  0  0  0  0  0  0
   -3.9526   -0.4371    0.0000 C   0  0  0  0  0  0  0  0  0
   -3.2382   -0.8496    0.0000 C   0  0  0  0  0  0  0  0  0
   -2.5237   -0.4371    0.0000 N   0  0  0  0  0  0  0  0  0
   -1.8092   -0.8496    0.0000 C   0  0  0  0  0  0  0  0  0
   -1.0948   -0.4371    0.0000 C   0  0  0  0  0  0  0  0  0
   -1.0948    0.3879    0.0000 O   0  0  0  0  0  0  0  0  0
   -0.3803   -0.8496    0.0000 C   0  0  0  0  0  0  0  0  0
    0.3342   -0.4371    0.0000 C   0  0  0  0  0  0  0  0  0
    1.0487   -0.8496    0.0000 C   0  0  0  0  0  0  0  0  0
    1.0487   -1.6746    0.0000 C   0  0  0  0  0  0  0  0  0
    0.3342   -2.0871    0.0000 N   0  0  0  0  0  0  0  0  0
   -0.3803   -1.6746    0.0000 C   0  0  0  0  0  0  0  0  0
   -6.0961   -0.8496    0.0000 C   0  0  0  0  0  0  0  0  0
   -6.8105   -0.4371    0.0000 C   0  0  0  0  0  0  0  0  0
  1  2  4  0  0  0  0
  1  5  4  0  0  0  0
  2  3  4  0  0  0  0
  3  4  4  0  0  0  0
  3  8  1  0  0  0  0
  4  5  4  0  0  0  0
  5  6  1  0  0  0  0
  6  7  1  0  0  0  0
  8  9  4  0  0  0  0
  8 26  4  0  0  0  0
  9 10  4  0  0  0  0
 10 11  4  0  0  0  0
 11 12  1  0  0  0  0
 11 25  4  0  0  0  0
 12 13  1  0  0  0  0
 13 14  1  0  0  0  0
 14 15  1  0  0  0  0
 15 16  1  0  0  0  0
 16 17  1  0  0  0  0
 17 18  1  0  0  0  0
 17 19  1  0  0  0  0
 19 20  4  0  0  0  0
 19 24  4  0  0  0  0
 20 21  4  0  0  0  0
 21 22  4  0  0  0  0
 22 23  4  0  0  0  0
 23 24  4  0  0  0  0
 25 26  4  0  0  0  0
M  END
>  <Name_Molregno>
417471

>  <Beta-1>
6.57

>  <Beta-2>
7.52

$$$$
485853
  Marvin  02231216192D 0   1.00000     0.00000     0

 34 38  0  0  0  0  0  0  0  0999 V2000
   -8.8078   -3.6971    0.0000 S   0  0  0  0  0  0  0  0  0
   -8.3953   -2.9826    0.0000 O   0  0  0  0  0  0  0  0  0
   -9.4752   -3.2122    0.0000 O   0  0  0  0  0  0  0  0  0
   -8.0541   -4.0326    0.0000 N   0  0  0  0  0  0  0  0  0
   -8.1403   -4.8531    0.0000 C   0  0  0  0  0  0  0  0  0
   -8.9473   -5.0247    0.0000 C   0  0  0  0  0  0  0  0  0
   -9.3598   -4.3102    0.0000 C   0  0  0  0  0  0  0  0  0
   -7.3396   -3.6201    0.0000 C   0  0  0  0  0  0  0  0  0
   -7.3396   -2.7951    0.0000 C   0  0  0  0  0  0  0  0  0
   -6.6252   -2.3826    0.0000 C   0  0  0  0  0  0  0  0  0
   -5.9107   -2.7951    0.0000 C   0  0  0  0  0  0  0  0  0
   -5.9107   -3.6201    0.0000 C   0  0  0  0  0  0  0  0  0
   -6.6252   -4.0326    0.0000 C   0  0  0  0  0  0  0  0  0
   -6.6252   -1.5576    0.0000 C   0  0  0  0  0  0  0  0  0
   -5.9107   -1.1451    0.0000 C   0  0  0  0  0  0  0  0  0
   -5.9107   -0.3201    0.0000 C   0  0  0  0  0  0  0  0  0
   -5.1962    0.0924    0.0000 C   0  0  0  0  0  0  0  0  0
   -4.4818   -0.3201    0.0000 N   0  0  0  0  0  0  0  0  0
   -4.4818   -1.1451    0.0000 C   0  0  0  0  0  0  0  0  0
   -5.1962   -1.5576    0.0000 C   0  0  0  0  0  0  0  0  0
   -3.7673    0.0924    0.0000 C   0  0  0  0  0  0  0  0  0
   -3.7673    0.9174    0.0000 C   0  0  0  0  0  0  0  0  0
   -3.0528    1.3299    0.0000 O   0  0  0  0  0  0  0  0  0
   -3.0528    2.1549    0.0000 C   0  0  0  0  0  0  0  0  0
   -2.3383    2.5674    0.0000 C   0  0  0  0  0  0  0  0  0
   -2.3383    3.3924    0.0000 C   0  0  0  0  0  0  0  0  0
   -1.6239    3.8049    0.0000 N   0  0  0  0  0  0  0  0  0
   -0.9094    3.3924    0.0000 C   0  0  0  0  0  0  0  0  0
   -0.9094    2.5674    0.0000 C   0  0  0  0  0  0  0  0  0
   -1.6239    2.1549    0.0000 C   0  0  0  0  0  0  0  0  0
   -0.1949    3.8049    0.0000 C   0  0  0  0  0  0  0  0  0
   -3.0528    3.8049    0.0000 C   0  0  0  0  0  0  0  0  0
   -3.7673    3.3924    0.0000 C   0  0  0  0  0  0  0  0  0
   -3.7673    2.5674    0.0000 C   0  0  0  0  0  0  0  0  0
  1  2  2  0  0  0  0
  1  3  2  0  0  0  0
  1  4  1  0  0  0  0
  1  7  1  0  0  0  0
  4  5  1  0  0  0  0
  4  8  1  0  0  0  0
  5  6  1  0  0  0  0
  6  7  1  0  0  0  0
  8  9  4  0  0  0  0
  8 13  4  0  0  0  0
  9 10  4  0  0  0  0
 10 11  4  0  0  0  0
 10 14  1  0  0  0  0
 11 12  4  0  0  0  0
 12 13  4  0  0  0  0
 14 15  1  0  0  0  0
 15 16  1  0  0  0  0
 15 20  1  0  0  0  0
 16 17  1  0  0  0  0
 17 18  1  0  0  0  0
 18 19  1  0  0  0  0
 18 21  1  0  0  0  0
 19 20  1  0  0  0  0
 21 22  1  0  0  0  0
 22 23  1  0  0  0  0
 23 24  1  0  0  0  0
 24 25  4  0  0  0  0
 24 34  4  0  0  0  0
 25 26  4  0  0  0  0
 25 30  4  0  0  0  0
 26 27  4  0  0  0  0
 26 32  4  0  0  0  0
 27 28  4  0  0  0  0
 28 29  4  0  0  0  0
 28 31  1  0  0  0  0
 29 30  4  0  0  0  0
 32 33  4  0  0  0  0
 33 34  4  0  0  0  0
M  END
>  <Name_Molregno>
485853

>  <5-HT1A>
8.1

>  <5-HT1B>
7.9

>  <5-HT1D>
8.8

>  <5-HT1E>
5

>  <5-HT2A>
5.2

>  <5-HT2C>
5.4

>  <5-HT5>
5.8

>  <5-HT6>
5.8

>  <5-HT7>
7.8

>  <Alpha-1B>
6.8

>  <Beta-2>
5.8

>  <DOPAMINE D2>
6.3

>  <Serotonin transporter>
6.4

$$$$
486945
  Marvin  02231216192D 0   1.00000     0.00000     0

 32 35  0  0  0  0  0  0  0  0999 V2000
    2.0504   -5.0180    0.0000 S   0  0  0  0  0  0  0  0  0
    2.0504   -5.8430    0.0000 O   0  0  0  0  0  0  0  0  0
    2.8754   -5.0180    0.0000 O   0  0  0  0  0  0  0  0  0
    2.0504   -4.1930    0.0000 N   0  0  0  0  0  0  0  0  0
    2.7649   -3.7805    0.0000 C   0  0  0  0  0  0  0  0  0
    2.7649   -2.9555    0.0000 C   0  0  0  0  0  0  0  0  0
    3.4793   -2.5430    0.0000 C   0  0  0  0  0  0  0  0  0
    4.1938   -2.9555    0.0000 C   0  0  0  0  0  0  0  0  0
    4.1938   -3.7805    0.0000 C   0  0  0  0  0  0  0  0  0
    3.4793   -4.1930    0.0000 C   0  0  0  0  0  0  0  0  0
    3.4793   -1.7180    0.0000 C   0  0  0  0  0  0  0  0  0
    4.1938   -1.3055    0.0000 C   0  0  0  0  0  0  0  0  0
    4.1938   -0.4805    0.0000 C   0  0  0  0  0  0  0  0  0
    4.9083   -0.0680    0.0000 C   0  0  0  0  0  0  0  0  0
    5.6228   -0.4805    0.0000 N   0  0  0  0  0  0  0  0  0
    5.6228   -1.3055    0.0000 C   0  0  0  0  0  0  0  0  0
    4.9083   -1.7180    0.0000 C   0  0  0  0  0  0  0  0  0
    6.3372   -0.0680    0.0000 C   0  0  0  0  0  0  0  0  0
    6.3372    0.7570    0.0000 C   0  0  0  0  0  0  0  0  0
    7.0517    1.1695    0.0000 O   0  0  0  0  0  0  0  0  0
    7.0517    1.9945    0.0000 C   0  0  0  0  0  0  0  0  0
    7.7662    2.4070    0.0000 C   0  0  0  0  0  0  0  0  0
    7.7662    3.2320    0.0000 C   0  0  0  0  0  0  0  0  0
    8.4806    3.6445    0.0000 N   0  0  0  0  0  0  0  0  0
    9.1951    3.2320    0.0000 C   0  0  0  0  0  0  0  0  0
    9.1951    2.4070    0.0000 C   0  0  0  0  0  0  0  0  0
    8.4806    1.9945    0.0000 C   0  0  0  0  0  0  0  0  0
    9.9096    3.6445    0.0000 C   0  0  0  0  0  0  0  0  0
    7.0517    3.6445    0.0000 C   0  0  0  0  0  0  0  0  0
    6.3372    3.2320    0.0000 C   0  0  0  0  0  0  0  0  0
    6.3372    2.4070    0.0000 C   0  0  0  0  0  0  0  0  0
    1.2254   -5.0180    0.0000 C   0  0  0  0  0  0  0  0  0
  1  2  2  0  0  0  0
  1  3  2  0  0  0  0
  1  4  1  0  0  0  0
  1 32  1  0  0  0  0
  4  5  1  0  0  0  0
  5  6  4  0  0  0  0
  5 10  4  0  0  0  0
  6  7  4  0  0  0  0
  7  8  4  0  0  0  0
  7 11  1  0  0  0  0
  8  9  4  0  0  0  0
  9 10  4  0  0  0  0
 11 12  1  0  0  0  0
 12 13  1  0  0  0  0
 12 17  1  0  0  0  0
 13 14  1  0  0  0  0
 14 15  1  0  0  0  0
 15 16  1  0  0  0  0
 15 18  1  0  0  0  0
 16 17  1  0  0  0  0
 18 19  1  0  0  0  0
 19 20  1  0  0  0  0
 20 21  1  0  0  0  0
 21 22  4  0  0  0  0
 21 31  4  0  0  0  0
 22 23  4  0  0  0  0
 22 27  4  0  0  0  0
 23 24  4  0  0  0  0
 23 29  4  0  0  0  0
 24 25  4  0  0  0  0
 25 26  4  0  0  0  0
 25 28  1  0  0  0  0
 26 27  4  0  0  0  0
 29 30  4  0  0  0  0
 30 31  4  0  0  0  0
M  END
>  <Name_Molregno>
486945

>  <5-HT1A>
8.6

>  <5-HT1B>
8.7

>  <5-HT1D>
9.3

>  <5-HT1E>
5.6

>  <5-HT2A>
5.6

>  <5-HT2C>
6

>  <5-HT5>
5.9

>  <5-HT6>
5

>  <5-HT7>
7.7

>  <Alpha-1B>
6.7

>  <Beta-2>
6.3

>  <DOPAMINE D2>
7.2

>  <Serotonin transporter>
5.8

$$$$
513010
  Marvin  02231216192D 0   1.00000     0.00000     0

 22 24  0  0  1  0  0  0  0  0999 V2000
   -0.2296   -0.4433    0.0000 O   0  0  0  0  0  0  0  0  0
    0.5954   -0.4441    0.0000 C   0  0  0  0  0  0  0  0  0
    1.0086    0.2700    0.0000 O   0  0  0  0  0  0  0  0  0
    1.0072   -1.1590    0.0000 C   0  0  0  0  0  0  0  0  0
    1.8322   -1.1598    0.0000 C   0  0  0  0  0  0  0  0  0
    2.2440   -1.8747    0.0000 C   0  0  0  0  0  0  0  0  0
    1.8308   -2.5887    0.0000 C   0  0  0  0  0  0  0  0  0
    1.0058   -2.5879    0.0000 C   0  0  0  0  0  0  0  0  0
    0.5940   -1.8730    0.0000 C   0  0  0  0  0  0  0  0  0
   -0.6414    0.2716    0.0000 C   0  0  0  0  0  0  0  0  0
   -0.7796    1.0890    0.0000 C   0  0  0  0  0  0  0  0  0
   -1.7084    1.0735    0.0000 C   0  0  0  0  0  0  0  0  0
   -2.2690    1.5134    0.0000 N   0  0  0  0  0  0  0  0  0
   -2.1293    0.7003    0.0000 C   0  0  0  0  0  0  0  0  0
   -2.6492   -0.0120    0.0000 C   0  0  0  0  0  0  0  0  0
   -2.0289    0.3649    0.0000 C   0  0  0  0  0  0  0  0  0
   -1.1576    0.7003    0.0000 C   0  0  0  0  0  0  0  0  0
   -1.4378   -0.0757    0.0000 C   0  0  0  0  0  0  0  0  0
   -2.2499   -0.2210    0.0000 O   0  0  0  0  0  0  0  0  0
   -2.5301   -0.9969    0.0000 C   0  0  0  0  0  0  0  0  0
   -0.9059   -0.7063    0.0000 O   0  0  0  0  0  0  0  0  0
   -2.6916    2.2219    0.0000 C   0  0  0  0  0  0  0  0  0
  1  2  1  0  0  0  0
  1 10  1  0  0  0  0
  2  3  2  0  0  0  0
  2  4  1  0  0  0  0
  4  5  4  0  0  0  0
  4  9  4  0  0  0  0
  5  6  4  0  0  0  0
  6  7  4  0  0  0  0
  7  8  4  0  0  0  0
  8  9  4  0  0  0  0
 10 11  1  0  0  0  0
 10 17  1  0  0  0  0
 11 12  1  0  0  0  0
 12 13  1  0  0  0  0
 12 16  1  0  0  0  0
 13 14  1  0  0  0  0
 13 22  1  0  0  0  0
 14 15  1  0  0  0  0
 14 17  1  0  0  0  0
 15 16  1  0  0  0  0
 17 18  1  0  0  0  0
 18 19  1  0  0  0  0
 18 21  2  0  0  0  0
 19 20  1  0  0  0  0
M  END
>  <Name_Molregno>
513010

>  <5-HT1A>
5

>  <5-HT1B>
5.47

>  <5-HT1D>
5

>  <5-HT1E>
5

>  <5-HT3>
5.31

>  <5-HT5>
5

>  <5-HT6>
5

>  <5-HT7>
5

>  <Alpha-1A>
5.68

>  <Alpha-1B>
5

>  <Alpha-2A>
5

>  <Alpha-2C>
5

>  <Beta-1>
5

>  <Beta-2>
5

>  <DOPAMINE D1>
5

>  <DOPAMINE D2>
5

>  <DOPAMINE D4>
5

>  <DOPAMINE D5>
5

>  <Dopamine transporter>
6.67

>  <HISTAMINE H1>
5.67

>  <HISTAMINE H2>
5

>  <HISTAMINE H4>
5

>  <Muscarinic acetylcholine receptor M1>
5

>  <Muscarinic acetylcholine receptor M2>
5

>  <Muscarinic acetylcholine receptor M3>
5

>  <Muscarinic acetylcholine receptor M4>
5

>  <Muscarinic acetylcholine receptor M5>
5

>  <Norepinephrine transporter>
5.76

>  <Serotonin transporter>
6.68

$$$$
513749
  Marvin  02231216192D 0   1.00000     0.00000     0

 23 25  0  0  1  0  0  0  0  0999 V2000
    0.7561    1.4608    0.0000 O   0  0  0  0  0  0  0  0  0
    0.5846    0.6538    0.0000 C   0  0  0  0  0  0  0  0  0
    1.2990    0.2413    0.0000 C   0  0  0  0  0  0  0  0  0
    1.9121    0.7934    0.0000 C   0  0  0  0  0  0  0  0  0
    1.5766    1.5470    0.0000 C   0  0  0  0  0  0  0  0  0
    2.0615    2.2145    0.0000 C   0  0  0  0  0  0  0  0  0
    2.8820    2.1282    0.0000 C   0  0  0  0  0  0  0  0  0
    3.2175    1.3746    0.0000 C   0  0  0  0  0  0  0  0  0
    2.7326    0.7071    0.0000 C   0  0  0  0  0  0  0  0  0
    1.2990   -0.5837    0.0000 C   0  0  0  0  0  0  0  0  0
    2.0135   -0.9962    0.0000 O   0  0  0  0  0  0  0  0  0
    2.7280   -0.5837    0.0000 C   0  0  0  0  0  0  0  0  0
    3.4424   -0.9962    0.0000 C   0  0  0  0  0  0  0  0  0
    3.4424   -1.8212    0.0000 O   0  0  0  0  0  0  0  0  0
    4.1569   -0.5837    0.0000 C   0  0  0  0  0  0  0  0  0
    4.8714   -0.9962    0.0000 N   0  0  0  0  0  0  0  0  0
    5.5859   -0.5837    0.0000 C   0  0  0  0  0  0  0  0  0
    6.3003   -0.1712    0.0000 C   0  0  0  0  0  0  0  0  0
    5.9984   -1.2982    0.0000 C   0  0  0  0  0  0  0  0  0
    5.1734    0.1308    0.0000 C   0  0  0  0  0  0  0  0  0
    0.5846   -0.9962    0.0000 C   0  0  0  0  0  0  0  0  0
   -0.1299   -0.5837    0.0000 C   0  0  0  0  0  0  0  0  0
   -0.1299    0.2413    0.0000 C   0  0  0  0  0  0  0  0  0
  1  2  4  0  0  0  0
  1  5  4  0  0  0  0
  2  3  4  0  0  0  0
  2 23  4  0  0  0  0
  3  4  4  0  0  0  0
  3 10  4  0  0  0  0
  4  5  4  0  0  0  0
  4  9  4  0  0  0  0
  5  6  4  0  0  0  0
  6  7  4  0  0  0  0
  7  8  4  0  0  0  0
  8  9  4  0  0  0  0
 10 11  1  0  0  0  0
 10 21  4  0  0  0  0
 11 12  1  0  0  0  0
 12 13  1  0  0  0  0
 13 14  1  0  0  0  0
 13 15  1  0  0  0  0
 15 16  1  0  0  0  0
 16 17  1  0  0  0  0
 17 18  1  0  0  0  0
 17 19  1  0  0  0  0
 17 20  1  0  0  0  0
 21 22  4  0  0  0  0
 22 23  4  0  0  0  0
M  END
>  <Name_Molregno>
513749

>  <Beta-2>
9.84

$$$$
513750
  Marvin  02231216192D 0   1.00000     0.00000     0

 34 38  0  0  1  0  0  0  0  0999 V2000
    1.7365    1.8631    0.0000 O   0  0  0  0  0  0  0  0  0
    2.4510    1.4506    0.0000 C   0  0  0  0  0  0  0  0  0
    2.4510    0.6256    0.0000 C   0  0  0  0  0  0  0  0  0
    1.7365    0.2131    0.0000 O   0  0  0  0  0  0  0  0  0
    3.1655    0.2131    0.0000 C   0  0  0  0  0  0  0  0  0
    3.1655   -0.6119    0.0000 N   0  0  0  0  0  0  0  0  0
    3.8800   -1.0244    0.0000 C   0  0  0  0  0  0  0  0  0
    3.8800   -1.8494    0.0000 C   0  0  0  0  0  0  0  0  0
    3.1655   -2.2619    0.0000 N   0  0  0  0  0  0  0  0  0
    2.4510   -1.8494    0.0000 C   0  0  0  0  0  0  0  0  0
    2.4510   -1.0244    0.0000 C   0  0  0  0  0  0  0  0  0
    3.1655   -3.0869    0.0000 C   0  0  0  0  0  0  0  0  0
    2.4510   -3.4994    0.0000 C   0  0  0  0  0  0  0  0  0
    2.4510   -4.3244    0.0000 C   0  0  0  0  0  0  0  0  0
    1.7365   -4.7369    0.0000 C   0  0  0  0  0  0  0  0  0
    1.0221   -4.3244    0.0000 C   0  0  0  0  0  0  0  0  0
    1.0221   -3.4994    0.0000 C   0  0  0  0  0  0  0  0  0
    1.7365   -3.0869    0.0000 C   0  0  0  0  0  0  0  0  0
    3.8800   -3.4994    0.0000 C   0  0  0  0  0  0  0  0  0
    4.5944   -3.0869    0.0000 C   0  0  0  0  0  0  0  0  0
    5.3089   -3.4994    0.0000 C   0  0  0  0  0  0  0  0  0
    5.3089   -4.3244    0.0000 C   0  0  0  0  0  0  0  0  0
    4.5944   -4.7369    0.0000 C   0  0  0  0  0  0  0  0  0
    3.8800   -4.3244    0.0000 C   0  0  0  0  0  0  0  0  0
    1.7365    2.6881    0.0000 C   0  0  0  0  0  0  0  0  0
    1.0221    3.1006    0.0000 C   0  0  0  0  0  0  0  0  0
    1.0221    3.9256    0.0000 C   0  0  0  0  0  0  0  0  0
    0.2375    4.1805    0.0000 N   0  0  0  0  0  0  0  0  0
   -0.2475    3.5131    0.0000 C   0  0  0  0  0  0  0  0  0
    0.2375    2.8456    0.0000 C   0  0  0  0  0  0  0  0  0
   -0.0175    2.0610    0.0000 C   0  0  0  0  0  0  0  0  0
    1.7365    4.3381    0.0000 C   0  0  0  0  0  0  0  0  0
    2.4510    3.9256    0.0000 C   0  0  0  0  0  0  0  0  0
    2.4510    3.1006    0.0000 C   0  0  0  0  0  0  0  0  0
  1  2  1  0  0  0  0
  1 25  1  0  0  0  0
  2  3  1  0  0  0  0
  3  4  1  0  0  0  0
  3  5  1  0  0  0  0
  5  6  1  0  0  0  0
  6  7  1  0  0  0  0
  6 11  1  0  0  0  0
  7  8  1  0  0  0  0
  8  9  1  0  0  0  0
  9 10  1  0  0  0  0
  9 12  1  0  0  0  0
 10 11  1  0  0  0  0
 12 13  1  0  0  0  0
 12 19  1  0  0  0  0
 13 14  4  0  0  0  0
 13 18  4  0  0  0  0
 14 15  4  0  0  0  0
 15 16  4  0  0  0  0
 16 17  4  0  0  0  0
 17 18  4  0  0  0  0
 19 20  4  0  0  0  0
 19 24  4  0  0  0  0
 20 21  4  0  0  0  0
 21 22  4  0  0  0  0
 22 23  4  0  0  0  0
 23 24  4  0  0  0  0
 25 26  4  0  0  0  0
 25 34  4  0  0  0  0
 26 27  4  0  0  0  0
 26 30  4  0  0  0  0
 27 28  4  0  0  0  0
 27 32  4  0  0  0  0
 28 29  4  0  0  0  0
 29 30  4  0  0  0  0
 30 31  1  0  0  0  0
 32 33  4  0  0  0  0
 33 34  4  0  0  0  0
M  STY  1   1 DAT
M  SAL   1  1  28
M  SDT   1 MRV_IMPLICIT_H                                        
M  SDD   1     0.0000    0.0000    DR    ALL  0       0  
M  SED   1 IMPL_H1
M  END
>  <Name_Molregno>
513750

>  <Beta-2>
9.51

$$$$
513751
  Marvin  02231216192D 0   1.00000     0.00000     0

 23 24  0  0  1  0  0  0  0  0999 V2000
   -0.0029    0.0045    0.0000 O   0  0  0  0  0  0  0  0  0
    0.7115    0.4170    0.0000 C   0  0  0  0  0  0  0  0  0
    1.4260    0.0045    0.0000 C   0  0  0  0  0  0  0  0  0
    1.4260   -0.8205    0.0000 O   0  0  0  0  0  0  0  0  0
    2.1405    0.4170    0.0000 C   0  0  0  0  0  0  0  0  0
    2.8549    0.0045    0.0000 N   0  0  0  0  0  0  0  0  0
    3.5694    0.4170    0.0000 C   0  0  0  0  0  0  0  0  0
    4.2839    0.8295    0.0000 C   0  0  0  0  0  0  0  0  0
    3.1569    1.1315    0.0000 C   0  0  0  0  0  0  0  0  0
    3.9819   -0.2974    0.0000 C   0  0  0  0  0  0  0  0  0
   -0.7174    0.4170    0.0000 C   0  0  0  0  0  0  0  0  0
   -1.4319    0.0045    0.0000 C   0  0  0  0  0  0  0  0  0
   -2.1464    0.4170    0.0000 C   0  0  0  0  0  0  0  0  0
   -2.7594   -0.1350    0.0000 N   0  0  0  0  0  0  0  0  0
   -2.4239   -0.8887    0.0000 C   0  0  0  0  0  0  0  0  0
   -1.6034   -0.8024    0.0000 C   0  0  0  0  0  0  0  0  0
   -1.0514   -1.4155    0.0000 C   0  0  0  0  0  0  0  0  0
   -1.3063   -2.2002    0.0000 C   0  0  0  0  0  0  0  0  0
   -2.1133   -2.3717    0.0000 O   0  0  0  0  0  0  0  0  0
   -0.7543   -2.8132    0.0000 N   0  0  0  0  0  0  0  0  0
   -2.1464    1.2420    0.0000 C   0  0  0  0  0  0  0  0  0
   -1.4319    1.6545    0.0000 C   0  0  0  0  0  0  0  0  0
   -0.7174    1.2420    0.0000 C   0  0  0  0  0  0  0  0  0
  1  2  1  0  0  0  0
  1 11  1  0  0  0  0
  2  3  1  0  0  0  0
  3  4  1  0  0  0  0
  3  5  1  0  0  0  0
  5  6  1  0  0  0  0
  6  7  1  0  0  0  0
  7  8  1  0  0  0  0
  7  9  1  0  0  0  0
  7 10  1  0  0  0  0
 11 12  4  0  0  0  0
 11 23  4  0  0  0  0
 12 13  4  0  0  0  0
 12 16  4  0  0  0  0
 13 14  4  0  0  0  0
 13 21  4  0  0  0  0
 14 15  4  0  0  0  0
 15 16  4  0  0  0  0
 16 17  1  0  0  0  0
 17 18  1  0  0  0  0
 18 19  2  0  0  0  0
 18 20  1  0  0  0  0
 21 22  4  0  0  0  0
 22 23  4  0  0  0  0
M  STY  1   1 DAT
M  SAL   1  1  14
M  SDT   1 MRV_IMPLICIT_H                                        
M  SDD   1     0.0000    0.0000    DR    ALL  0       0  
M  SED   1 IMPL_H1
M  END
>  <Name_Molregno>
513751

>  <Beta-2>
7.63

$$$$
515852
  Marvin  02231216192D 0   1.00000     0.00000     0

 24 28  0  0  1  0  0  0  0  0999 V2000
    3.5696   -0.3324    0.0000 O   0  0  0  0  0  0  0  0  0
    3.9434   -1.0678    0.0000 C   0  0  0  0  0  0  0  0  0
    3.3594   -1.6506    0.0000 C   0  0  0  0  0  0  0  0  0
    2.6247   -1.2753    0.0000 C   0  0  0  0  0  0  0  0  0
    2.7546   -0.4606    0.0000 C   0  0  0  0  0  0  0  0  0
    2.1140    0.0593    0.0000 C   0  0  0  0  0  0  0  0  0
    1.3435   -0.2355    0.0000 C   0  0  0  0  0  0  0  0  0
    1.2136   -1.0502    0.0000 C   0  0  0  0  0  0  0  0  0
    1.8542   -1.5701    0.0000 C   0  0  0  0  0  0  0  0  0
    1.7243   -2.3848    0.0000 N   0  0  0  0  0  0  0  0  0
    0.9537   -2.6797    0.0000 C   0  0  0  0  0  0  0  0  0
    0.3131   -2.1598    0.0000 N   0  0  0  0  0  0  0  0  0
    0.4431   -1.3451    0.0000 C   0  0  0  0  0  0  0  0  0
   -0.1975   -0.8252    0.0000 N   0  0  0  0  0  0  0  0  0
   -0.9680   -1.1201    0.0000 C   0  0  0  0  0  0  0  0  0
   -1.6086   -0.6002    0.0000 C   0  0  0  0  0  0  0  0  0
   -1.4787    0.2145    0.0000 N   0  0  0  0  0  0  0  0  0
   -0.7082    0.5094    0.0000 C   0  0  0  0  0  0  0  0  0
   -0.0676   -0.0105    0.0000 C   0  0  0  0  0  0  0  0  0
    0.8238   -3.4944    0.0000 N   0  0  0  0  0  0  0  0  0
    3.5721   -2.4477    0.0000 C   0  0  0  0  0  0  0  0  0
    4.3687   -2.6621    0.0000 C   0  0  0  0  0  0  0  0  0
    4.9527   -2.0793    0.0000 C   0  0  0  0  0  0  0  0  0
    4.7400   -1.2822    0.0000 C   0  0  0  0  0  0  0  0  0
  1  2  1  0  0  0  0
  1  5  1  0  0  0  0
  2  3  1  0  0  0  0
  2 24  1  0  0  0  0
  3  4  1  0  0  0  0
  3 21  1  0  0  0  0
  4  5  2  0  0  0  0
  4  9  1  0  0  0  0
  5  6  1  0  0  0  0
  6  7  1  0  0  0  0
  7  8  1  0  0  0  0
  8  9  4  0  0  0  0
  8 13  4  0  0  0  0
  9 10  4  0  0  0  0
 10 11  4  0  0  0  0
 11 12  4  0  0  0  0
 11 20  1  0  0  0  0
 12 13  4  0  0  0  0
 13 14  1  0  0  0  0
 14 15  1  0  0  0  0
 14 19  1  0  0  0  0
 15 16  1  0  0  0  0
 16 17  1  0  0  0  0
 17 18  1  0  0  0  0
 18 19  1  0  0  0  0
 21 22  1  0  0  0  0
 22 23  1  0  0  0  0
 23 24  1  0  0  0  0
M  END
>  <Name_Molregno>
515852

>  <5-HT1A>
9.18

>  <5-HT1B>
7.74

>  <5-HT2A>
8.89

>  <5-HT2C>
8.41

>  <5-HT3>
8.18

>  <5-HT5>
6.96

>  <5-HT6>
7.03

>  <5-HT7>
9.66

>  <Beta-1>
6.37

>  <Beta-2>
9.3

>  <DOPAMINE D1>
9.42

>  <DOPAMINE D2>
8.54

>  <DOPAMINE D3>
8.85

>  <DOPAMINE D5>
9.32

>  <Dopamine transporter>
8.05

>  <HISTAMINE H1>
7.05

>  <HISTAMINE H2>
5.91

>  <HISTAMINE H3>
6.03

>  <HISTAMINE H4>
8.24

>  <Muscarinic acetylcholine receptor M1>
7.6

>  <Muscarinic acetylcholine receptor M2>
7.44

>  <Muscarinic acetylcholine receptor M3>
9.38

>  <Muscarinic acetylcholine receptor M4>
9.18

>  <Muscarinic acetylcholine receptor M5>
9.38

>  <Norepinephrine transporter>
8.17

>  <Serotonin transporter>
8.49

$$$$
517610
  Marvin  02231216192D 0   1.00000     0.00000     0

 20 21  0  0  1  0  0  0  0  0999 V2000
   -0.2139    0.0361    0.0000 O   0  0  0  0  0  0  0  0  0
    0.5006    0.4486    0.0000 C   0  0  0  0  0  0  0  0  0
    1.2151    0.0361    0.0000 C   0  0  0  0  0  0  0  0  0
    1.2151   -0.7889    0.0000 O   0  0  0  0  0  0  0  0  0
    1.9295    0.4486    0.0000 C   0  0  0  0  0  0  0  0  0
    2.6440    0.0361    0.0000 N   0  0  0  0  0  0  0  0  0
    3.3585    0.4486    0.0000 C   0  0  0  0  0  0  0  0  0
    4.0729    0.0361    0.0000 C   0  0  0  0  0  0  0  0  0
    3.3585    1.2736    0.0000 C   0  0  0  0  0  0  0  0  0
    1.9295    1.2736    0.0000 C   0  0  0  0  0  0  0  0  0
   -0.9284    0.4486    0.0000 C   0  0  0  0  0  0  0  0  0
   -1.6428    0.0361    0.0000 C   0  0  0  0  0  0  0  0  0
   -2.3573    0.4486    0.0000 C   0  0  0  0  0  0  0  0  0
   -2.9704   -0.1034    0.0000 C   0  0  0  0  0  0  0  0  0
   -2.6348   -0.8571    0.0000 C   0  0  0  0  0  0  0  0  0
   -1.8144   -0.7708    0.0000 C   0  0  0  0  0  0  0  0  0
   -2.3573    1.2736    0.0000 C   0  0  0  0  0  0  0  0  0
   -1.6428    1.6861    0.0000 C   0  0  0  0  0  0  0  0  0
   -0.9284    1.2736    0.0000 C   0  0  0  0  0  0  0  0  0
   -3.0718    1.6861    0.0000 C   0  0  0  0  0  0  0  0  0
  1  2  1  0  0  0  0
  1 11  1  0  0  0  0
  2  3  1  0  0  0  0
  3  4  1  0  0  0  0
  3  5  1  0  0  0  0
  5  6  1  0  0  0  0
  5 10  1  0  0  0  0
  6  7  1  0  0  0  0
  7  8  1  0  0  0  0
  7  9  1  0  0  0  0
 11 12  4  0  0  0  0
 11 19  4  0  0  0  0
 12 13  4  0  0  0  0
 12 16  1  0  0  0  0
 13 14  1  0  0  0  0
 13 17  4  0  0  0  0
 14 15  1  0  0  0  0
 15 16  1  0  0  0  0
 17 18  4  0  0  0  0
 17 20  1  0  0  0  0
 18 19  4  0  0  0  0
M  END
>  <Name_Molregno>
517610

>  <Beta-1>
7.09

>  <Beta-2>
9.12

$$$$
518801
  Marvin  02231216192D 0   1.00000     0.00000     0

 19 21  0  0  1  0  0  0  0  0999 V2000
   -0.7075   -0.0034    0.0000 O   0  0  0  0  0  0  0  0  0
   -0.5459   -0.8124    0.0000 C   0  0  0  0  0  0  0  0  0
   -1.2047   -1.3091    0.0000 C   0  0  0  0  0  0  0  0  0
   -1.2272   -2.1338    0.0000 C   0  0  0  0  0  0  0  0  0
   -0.5964   -2.6655    0.0000 N   0  0  0  0  0  0  0  0  0
    0.2126   -2.5039    0.0000 C   0  0  0  0  0  0  0  0  0
    0.5907   -1.7706    0.0000 C   0  0  0  0  0  0  0  0  0
    0.2531   -1.0179    0.0000 C   0  0  0  0  0  0  0  0  0
    0.7849   -0.3871    0.0000 N   0  0  0  0  0  0  0  0  0
    0.5045    0.3888    0.0000 C   0  0  0  0  0  0  0  0  0
    1.0362    1.0196    0.0000 C   0  0  0  0  0  0  0  0  0
   -0.3076    0.5339    0.0000 C   0  0  0  0  0  0  0  0  0
   -0.9072   -3.4297    0.0000 C   0  0  0  0  0  0  0  0  0
   -0.4716   -4.1304    0.0000 O   0  0  0  0  0  0  0  0  0
   -1.7301   -3.3703    0.0000 N   0  0  0  0  0  0  0  0  0
   -1.9278   -2.5693    0.0000 C   0  0  0  0  0  0  0  0  0
   -2.6553   -2.1803    0.0000 C   0  0  0  0  0  0  0  0  0
   -2.6822   -1.3558    0.0000 C   0  0  0  0  0  0  0  0  0
   -1.9816   -0.9202    0.0000 C   0  0  0  0  0  0  0  0  0
  1  2  1  0  0  0  0
  2  3  1  0  0  0  0
  2  8  1  0  0  0  0
  3  4  4  0  0  0  0
  3 19  4  0  0  0  0
  4  5  1  0  0  0  0
  4 16  4  0  0  0  0
  5  6  1  0  0  0  0
  5 13  1  0  0  0  0
  6  7  1  0  0  0  0
  7  8  1  0  0  0  0
  8  9  1  0  0  0  0
  9 10  1  0  0  0  0
 10 11  1  0  0  0  0
 10 12  1  0  0  0  0
 13 14  2  0  0  0  0
 13 15  1  0  0  0  0
 15 16  1  0  0  0  0
 16 17  4  0  0  0  0
 17 18  4  0  0  0  0
 18 19  4  0  0  0  0
M  END
>  <Name_Molregno>
518801

>  <Beta-2>
6.36

$$$$
518803
  Marvin  02231216192D 0   1.00000     0.00000     0

 22 23  0  0  1  0  0  0  0  0999 V2000
    0.0692    0.9298    0.0000 O   0  0  0  0  0  0  0  0  0
    0.7837    0.5173    0.0000 C   0  0  0  0  0  0  0  0  0
    1.4982    0.9298    0.0000 C   0  0  0  0  0  0  0  0  0
    2.2126    0.5173    0.0000 C   0  0  0  0  0  0  0  0  0
    2.2126   -0.3077    0.0000 C   0  0  0  0  0  0  0  0  0
    1.4982   -0.7202    0.0000 C   0  0  0  0  0  0  0  0  0
    0.7837   -0.3077    0.0000 C   0  0  0  0  0  0  0  0  0
    2.9271   -0.7202    0.0000 C   0  0  0  0  0  0  0  0  0
    2.9271   -1.5452    0.0000 O   0  0  0  0  0  0  0  0  0
    3.6416   -0.3077    0.0000 C   0  0  0  0  0  0  0  0  0
    4.3560   -0.7202    0.0000 N   0  0  0  0  0  0  0  0  0
    5.0705   -0.3077    0.0000 C   0  0  0  0  0  0  0  0  0
    5.7850   -0.7202    0.0000 C   0  0  0  0  0  0  0  0  0
    6.4994   -0.3077    0.0000 C   0  0  0  0  0  0  0  0  0
    7.2139   -0.7202    0.0000 C   0  0  0  0  0  0  0  0  0
    7.9284   -0.3077    0.0000 C   0  0  0  0  0  0  0  0  0
    8.6429   -0.7202    0.0000 C   0  0  0  0  0  0  0  0  0
    8.6429   -1.5452    0.0000 C   0  0  0  0  0  0  0  0  0
    9.3573   -1.9577    0.0000 O   0  0  0  0  0  0  0  0  0
    7.9284   -1.9577    0.0000 C   0  0  0  0  0  0  0  0  0
    7.2139   -1.5452    0.0000 C   0  0  0  0  0  0  0  0  0
    5.0705    0.5173    0.0000 C   0  0  0  0  0  0  0  0  0
  1  2  1  0  0  0  0
  2  3  4  0  0  0  0
  2  7  4  0  0  0  0
  3  4  4  0  0  0  0
  4  5  4  0  0  0  0
  5  6  4  0  0  0  0
  5  8  1  0  0  0  0
  6  7  4  0  0  0  0
  8  9  1  0  0  0  0
  8 10  1  0  0  0  0
 10 11  1  0  0  0  0
 11 12  1  0  0  0  0
 12 13  1  0  0  0  0
 12 22  1  0  0  0  0
 13 14  1  0  0  0  0
 14 15  1  0  0  0  0
 15 16  4  0  0  0  0
 15 21  4  0  0  0  0
 16 17  4  0  0  0  0
 17 18  4  0  0  0  0
 18 19  1  0  0  0  0
 18 20  4  0  0  0  0
 20 21  4  0  0  0  0
M  END
>  <Name_Molregno>
518803

>  <Beta-2>
6.74

$$$$
591110
  Marvin  02231216192D 0   1.00000     0.00000     0

 27 31  0  0  1  0  0  0  0  0999 V2000
    0.4188    1.2437    0.0000 O   0  0  0  0  0  0  0  0  0
   -0.3658    0.9887    0.0000 C   0  0  0  0  0  0  0  0  0
   -0.3658    0.1637    0.0000 C   0  0  0  0  0  0  0  0  0
    0.4188   -0.0912    0.0000 O   0  0  0  0  0  0  0  0  0
    0.9037    0.5762    0.0000 C   0  0  0  0  0  0  0  0  0
   -1.0803   -0.2488    0.0000 C   0  0  0  0  0  0  0  0  0
   -1.7947    0.1637    0.0000 C   0  0  0  0  0  0  0  0  0
   -2.5092   -0.2488    0.0000 C   0  0  0  0  0  0  0  0  0
   -3.2237    0.1637    0.0000 C   0  0  0  0  0  0  0  0  0
   -3.9382   -0.2488    0.0000 N   0  0  0  0  0  0  0  0  0
   -4.6526    0.1637    0.0000 C   0  0  0  0  0  0  0  0  0
   -4.6526    0.9887    0.0000 C   0  0  0  0  0  0  0  0  0
   -3.9382    1.4012    0.0000 C   0  0  0  0  0  0  0  0  0
   -3.9382    2.2262    0.0000 C   0  0  0  0  0  0  0  0  0
   -3.2237    2.6387    0.0000 C   0  0  0  0  0  0  0  0  0
   -3.2237    3.4637    0.0000 C   0  0  0  0  0  0  0  0  0
   -3.9382    3.8762    0.0000 O   0  0  0  0  0  0  0  0  0
   -2.5092    3.8762    0.0000 C   0  0  0  0  0  0  0  0  0
   -2.5092    2.2262    0.0000 C   0  0  0  0  0  0  0  0  0
   -2.5092    1.4012    0.0000 C   0  0  0  0  0  0  0  0  0
   -3.2237    0.9887    0.0000 C   0  0  0  0  0  0  0  0  0
   -1.7947    0.9887    0.0000 C   0  0  0  0  0  0  0  0  0
   -1.0803    1.4012    0.0000 C   0  0  0  0  0  0  0  0  0
   -1.7947    2.6387    0.0000 C   0  0  0  0  0  0  0  0  0
   -1.0803    2.2262    0.0000 O   0  0  0  0  0  0  0  0  0
   -1.7947    3.4637    0.0000 C   0  0  0  0  0  0  0  0  0
   -3.9382   -1.0738    0.0000 C   0  0  0  0  0  0  0  0  0
  1  2  1  0  0  0  0
  1  5  1  0  0  0  0
  2  3  4  0  0  0  0
  2 23  4  0  0  0  0
  3  4  1  0  0  0  0
  3  6  4  0  0  0  0
  4  5  1  0  0  0  0
  6  7  4  0  0  0  0
  7  8  1  0  0  0  0
  7 22  4  0  0  0  0
  8  9  1  0  0  0  0
  9 10  1  0  0  0  0
  9 21  1  0  0  0  0
 10 11  1  0  0  0  0
 10 27  1  0  0  0  0
 11 12  1  0  0  0  0
 12 13  1  0  0  0  0
 13 14  4  0  0  0  0
 13 21  4  0  0  0  0
 14 15  4  0  0  0  0
 15 16  1  0  0  0  0
 15 19  4  0  0  0  0
 16 17  2  0  0  0  0
 16 18  1  0  0  0  0
 19 20  4  0  0  0  0
 19 24  1  0  0  0  0
 20 21  4  0  0  0  0
 20 22  1  0  0  0  0
 22 23  4  0  0  0  0
 24 25  2  0  0  0  0
 24 26  1  0  0  0  0
M  END
>  <Name_Molregno>
591110

>  <5-HT1B>
7

>  <5-HT1D>
7.31

>  <5-HT1E>
5

>  <5-HT2A>
6.08

>  <5-HT2C>
5.97

>  <5-HT3>
5

>  <5-HT5>
5.65

>  <5-HT6>
6.59

>  <5-HT7>
7.17

>  <Alpha-1A>
8.7

>  <Alpha-1B>
5.92

>  <Alpha-2A>
5.89

>  <Alpha-2B>
6.6

>  <Alpha-2C>
6.74

>  <Beta-1>
5.07

>  <Beta-2>
5

>  <DOPAMINE D1>
6.05

>  <DOPAMINE D2>
6.07

>  <DOPAMINE D3>
6.51

>  <DOPAMINE D4>
6.58

>  <DOPAMINE D5>
5.62

>  <Dopamine transporter>
5

>  <HISTAMINE H1>
5

>  <HISTAMINE H2>
6.17

>  <HISTAMINE H3>
5

>  <HISTAMINE H4>
5

>  <Muscarinic acetylcholine receptor M1>
5

>  <Muscarinic acetylcholine receptor M2>
5

>  <Muscarinic acetylcholine receptor M3>
5

>  <Muscarinic acetylcholine receptor M4>
5

>  <Norepinephrine transporter>
5

>  <Serotonin transporter>
6.61

$$$$
594448
  Marvin  02231216192D 0   1.00000     0.00000     0

 24 27  0  0  1  0  0  0  0  0999 V2000
   -0.1249   -0.5370    0.0000 O   0  0  0  0  0  0  0  0  0
    0.6852   -0.6929    0.0000 C   0  0  0  0  0  0  0  0  0
   -0.3950    0.2426    0.0000 C   0  0  0  0  0  0  0  0  0
   -1.2051    0.3985    0.0000 C   0  0  0  0  0  0  0  0  0
   -1.4751    1.1780    0.0000 C   0  0  0  0  0  0  0  0  0
   -2.2853    1.3340    0.0000 C   0  0  0  0  0  0  0  0  0
   -2.8254    0.7103    0.0000 C   0  0  0  0  0  0  0  0  0
   -2.5553   -0.0692    0.0000 N   0  0  0  0  0  0  0  0  0
   -1.7452   -0.2251    0.0000 C   0  0  0  0  0  0  0  0  0
   -3.0954   -0.6929    0.0000 C   0  0  0  0  0  0  0  0  0
   -3.9055   -0.5370    0.0000 C   0  0  0  0  0  0  0  0  0
   -4.1756    0.2426    0.0000 C   0  0  0  0  0  0  0  0  0
   -4.9857    0.3985    0.0000 C   0  0  0  0  0  0  0  0  0
   -5.2558    1.1780    0.0000 C   0  0  0  0  0  0  0  0  0
   -6.0659    1.3340    0.0000 O   0  0  0  0  0  0  0  0  0
   -6.6060    0.7103    0.0000 C   0  0  0  0  0  0  0  0  0
   -4.7157    1.8017    0.0000 C   0  0  0  0  0  0  0  0  0
   -4.9857    2.5812    0.0000 O   0  0  0  0  0  0  0  0  0
   -3.9055    1.6458    0.0000 C   0  0  0  0  0  0  0  0  0
   -3.6355    0.8662    0.0000 C   0  0  0  0  0  0  0  0  0
   -0.9351    1.8017    0.0000 C   0  0  0  0  0  0  0  0  0
   -0.1249    1.6458    0.0000 C   0  0  0  0  0  0  0  0  0
    0.1451    0.8662    0.0000 C   0  0  0  0  0  0  0  0  0
    0.9553    0.7103    0.0000 O   0  0  0  0  0  0  0  0  0
  1  2  1  0  0  0  0
  1  3  1  0  0  0  0
  3  4  4  0  0  0  0
  3 23  4  0  0  0  0
  4  5  4  0  0  0  0
  4  9  1  0  0  0  0
  5  6  1  0  0  0  0
  5 21  4  0  0  0  0
  6  7  1  0  0  0  0
  7  8  1  0  0  0  0
  7 20  1  0  0  0  0
  8  9  1  0  0  0  0
  8 10  1  0  0  0  0
 10 11  1  0  0  0  0
 11 12  1  0  0  0  0
 12 13  4  0  0  0  0
 12 20  4  0  0  0  0
 13 14  4  0  0  0  0
 14 15  1  0  0  0  0
 14 17  4  0  0  0  0
 15 16  1  0  0  0  0
 17 18  1  0  0  0  0
 17 19  4  0  0  0  0
 19 20  4  0  0  0  0
 21 22  4  0  0  0  0
 22 23  4  0  0  0  0
 23 24  1  0  0  0  0
M  END
>  <Name_Molregno>
594448

>  <5-HT1A>
6.84

>  <5-HT1B>
5.16

>  <5-HT1D>
5

>  <5-HT1E>
5

>  <5-HT2A>
5

>  <5-HT3>
5

>  <5-HT5>
5

>  <5-HT6>
5

>  <5-HT7>
5

>  <Alpha-1A>
5

>  <Alpha-1B>
5

>  <Alpha-2A>
5

>  <Alpha-2B>
5.16

>  <Alpha-2C>
6.67

>  <Beta-1>
5

>  <Beta-2>
5

>  <DOPAMINE D1>
8.23

>  <DOPAMINE D2>
6.01

>  <DOPAMINE D4>
5.43

>  <DOPAMINE D5>
8.36

>  <Dopamine transporter>
5

>  <HISTAMINE H1>
5

>  <HISTAMINE H2>
5

>  <HISTAMINE H4>
5

>  <Muscarinic acetylcholine receptor M2>
5

>  <Muscarinic acetylcholine receptor M5>
5

>  <Norepinephrine transporter>
5

>  <Serotonin transporter>
5

$$$$
625519
  Marvin  02231216192D 0   1.00000     0.00000     0

 25 28  0  0  1  0  0  0  0  0999 V2000
   -0.0488   -5.1272    0.0000 O   0  0  0  0  0  0  0  0  0
    0.3637   -4.4127    0.0000 C   0  0  0  0  0  0  0  0  0
   -0.0488   -3.6983    0.0000 C   0  0  0  0  0  0  0  0  0
   -0.8738   -3.6983    0.0000 N   0  0  0  0  0  0  0  0  0
   -1.2863   -2.9838    0.0000 C   0  0  0  0  0  0  0  0  0
   -2.1113   -2.9838    0.0000 O   0  0  0  0  0  0  0  0  0
   -0.8738   -2.2693    0.0000 C   0  0  0  0  0  0  0  0  0
   -0.0488   -2.2693    0.0000 C   0  0  0  0  0  0  0  0  0
    0.3637   -2.9838    0.0000 C   0  0  0  0  0  0  0  0  0
    1.1887   -2.9838    0.0000 C   0  0  0  0  0  0  0  0  0
    1.6012   -3.6983    0.0000 C   0  0  0  0  0  0  0  0  0
    1.1887   -4.4127    0.0000 C   0  0  0  0  0  0  0  0  0
    1.6012   -2.2693    0.0000 C   0  0  0  0  0  0  0  0  0
    1.1887   -1.5549    0.0000 O   0  0  0  0  0  0  0  0  0
    2.4262   -2.2693    0.0000 C   0  0  0  0  0  0  0  0  0
    2.8387   -1.5549    0.0000 N   0  0  0  0  0  0  0  0  0
    3.6637   -1.5549    0.0000 C   0  0  0  0  0  0  0  0  0
    4.1486   -2.2223    0.0000 C   0  0  0  0  0  0  0  0  0
    4.9332   -1.9674    0.0000 C   0  0  0  0  0  0  0  0  0
    4.9332   -1.1424    0.0000 C   0  0  0  0  0  0  0  0  0
    4.1486   -0.8874    0.0000 C   0  0  0  0  0  0  0  0  0
    5.6477   -0.7299    0.0000 C   0  0  0  0  0  0  0  0  0
    6.3622   -1.1424    0.0000 C   0  0  0  0  0  0  0  0  0
    6.3622   -1.9674    0.0000 C   0  0  0  0  0  0  0  0  0
    5.6477   -2.3799    0.0000 C   0  0  0  0  0  0  0  0  0
  1  2  1  0  0  0  0
  2  3  4  0  0  0  0
  2 12  4  0  0  0  0
  3  4  1  0  0  0  0
  3  9  4  0  0  0  0
  4  5  1  0  0  0  0
  5  6  2  0  0  0  0
  5  7  1  0  0  0  0
  7  8  2  0  0  0  0
  8  9  1  0  0  0  0
  9 10  4  0  0  0  0
 10 11  4  0  0  0  0
 10 13  1  0  0  0  0
 11 12  4  0  0  0  0
 13 14  1  0  0  0  0
 13 15  1  0  0  0  0
 15 16  1  0  0  0  0
 16 17  1  0  0  0  0
 17 18  1  0  0  0  0
 17 21  1  0  0  0  0
 18 19  1  0  0  0  0
 19 20  4  0  0  0  0
 19 25  4  0  0  0  0
 20 21  1  0  0  0  0
 20 22  4  0  0  0  0
 22 23  4  0  0  0  0
 23 24  4  0  0  0  0
 24 25  4  0  0  0  0
M  END
>  <Name_Molregno>
625519

>  <Beta-2>
6.66

$$$$
625588
  Marvin  02231216192D 0   1.00000     0.00000     0

 27 30  0  0  1  0  0  0  0  0999 V2000
   -0.0815   -5.2904    0.0000 O   0  0  0  0  0  0  0  0  0
    0.3310   -4.5759    0.0000 C   0  0  0  0  0  0  0  0  0
   -0.0815   -3.8614    0.0000 C   0  0  0  0  0  0  0  0  0
   -0.9065   -3.8614    0.0000 N   0  0  0  0  0  0  0  0  0
   -1.3190   -3.1470    0.0000 C   0  0  0  0  0  0  0  0  0
   -2.1440   -3.1470    0.0000 O   0  0  0  0  0  0  0  0  0
   -0.9065   -2.4325    0.0000 C   0  0  0  0  0  0  0  0  0
   -0.0815   -2.4325    0.0000 C   0  0  0  0  0  0  0  0  0
    0.3310   -3.1470    0.0000 C   0  0  0  0  0  0  0  0  0
    1.1560   -3.1470    0.0000 C   0  0  0  0  0  0  0  0  0
    1.5685   -3.8614    0.0000 C   0  0  0  0  0  0  0  0  0
    1.1560   -4.5759    0.0000 C   0  0  0  0  0  0  0  0  0
    1.5685   -2.4325    0.0000 C   0  0  0  0  0  0  0  0  0
    1.1560   -1.7180    0.0000 O   0  0  0  0  0  0  0  0  0
    2.3935   -2.4325    0.0000 C   0  0  0  0  0  0  0  0  0
    2.8060   -1.7180    0.0000 N   0  0  0  0  0  0  0  0  0
    3.6310   -1.7180    0.0000 C   0  0  0  0  0  0  0  0  0
    4.1159   -1.0506    0.0000 C   0  0  0  0  0  0  0  0  0
    4.9005   -1.3055    0.0000 C   0  0  0  0  0  0  0  0  0
    5.6150   -0.8930    0.0000 C   0  0  0  0  0  0  0  0  0
    6.3294   -1.3055    0.0000 C   0  0  0  0  0  0  0  0  0
    7.0439   -0.8930    0.0000 C   0  0  0  0  0  0  0  0  0
    6.3294   -2.1305    0.0000 C   0  0  0  0  0  0  0  0  0
    5.6150   -2.5430    0.0000 C   0  0  0  0  0  0  0  0  0
    4.9005   -2.1305    0.0000 C   0  0  0  0  0  0  0  0  0
    4.1159   -2.3855    0.0000 C   0  0  0  0  0  0  0  0  0
    7.0439   -2.5430    0.0000 C   0  0  0  0  0  0  0  0  0
  1  2  1  0  0  0  0
  2  3  4  0  0  0  0
  2 12  4  0  0  0  0
  3  4  1  0  0  0  0
  3  9  4  0  0  0  0
  4  5  1  0  0  0  0
  5  6  2  0  0  0  0
  5  7  1  0  0  0  0
  7  8  2  0  0  0  0
  8  9  1  0  0  0  0
  9 10  4  0  0  0  0
 10 11  4  0  0  0  0
 10 13  1  0  0  0  0
 11 12  4  0  0  0  0
 13 14  1  0  0  0  0
 13 15  1  0  0  0  0
 15 16  1  0  0  0  0
 16 17  1  0  0  0  0
 17 18  1  0  0  0  0
 17 26  1  0  0  0  0
 18 19  1  0  0  0  0
 19 20  4  0  0  0  0
 19 25  4  0  0  0  0
 20 21  4  0  0  0  0
 21 22  1  0  0  0  0
 21 23  4  0  0  0  0
 23 24  4  0  0  0  0
 23 27  1  0  0  0  0
 24 25  4  0  0  0  0
 25 26  1  0  0  0  0
M  END
>  <Name_Molregno>
625588

>  <Beta-2>
6.28

$$$$
625589
  Marvin  02231216192D 0   1.00000     0.00000     0

 29 32  0  0  1  0  0  0  0  0999 V2000
   -0.0705   -5.3944    0.0000 O   0  0  0  0  0  0  0  0  0
    0.3420   -4.6799    0.0000 C   0  0  0  0  0  0  0  0  0
   -0.0705   -3.9654    0.0000 C   0  0  0  0  0  0  0  0  0
   -0.8955   -3.9654    0.0000 N   0  0  0  0  0  0  0  0  0
   -1.3080   -3.2510    0.0000 C   0  0  0  0  0  0  0  0  0
   -2.1330   -3.2510    0.0000 O   0  0  0  0  0  0  0  0  0
   -0.8955   -2.5365    0.0000 C   0  0  0  0  0  0  0  0  0
   -0.0705   -2.5365    0.0000 C   0  0  0  0  0  0  0  0  0
    0.3420   -3.2510    0.0000 C   0  0  0  0  0  0  0  0  0
    1.1670   -3.2510    0.0000 C   0  0  0  0  0  0  0  0  0
    1.5795   -3.9654    0.0000 C   0  0  0  0  0  0  0  0  0
    1.1670   -4.6799    0.0000 C   0  0  0  0  0  0  0  0  0
    1.5795   -2.5365    0.0000 C   0  0  0  0  0  0  0  0  0
    1.1670   -1.8220    0.0000 O   0  0  0  0  0  0  0  0  0
    2.4045   -2.5365    0.0000 C   0  0  0  0  0  0  0  0  0
    2.8170   -1.8220    0.0000 N   0  0  0  0  0  0  0  0  0
    3.6420   -1.8220    0.0000 C   0  0  0  0  0  0  0  0  0
    4.1269   -1.1546    0.0000 C   0  0  0  0  0  0  0  0  0
    4.9115   -1.4095    0.0000 C   0  0  0  0  0  0  0  0  0
    5.6260   -0.9970    0.0000 C   0  0  0  0  0  0  0  0  0
    6.3405   -1.4095    0.0000 C   0  0  0  0  0  0  0  0  0
    7.0549   -0.9970    0.0000 C   0  0  0  0  0  0  0  0  0
    7.0549   -0.1720    0.0000 C   0  0  0  0  0  0  0  0  0
    6.3405   -2.2345    0.0000 C   0  0  0  0  0  0  0  0  0
    5.6260   -2.6470    0.0000 C   0  0  0  0  0  0  0  0  0
    4.9115   -2.2345    0.0000 C   0  0  0  0  0  0  0  0  0
    4.1269   -2.4895    0.0000 C   0  0  0  0  0  0  0  0  0
    7.0549   -2.6470    0.0000 C   0  0  0  0  0  0  0  0  0
    7.0549   -3.4720    0.0000 C   0  0  0  0  0  0  0  0  0
  1  2  1  0  0  0  0
  2  3  4  0  0  0  0
  2 12  4  0  0  0  0
  3  4  1  0  0  0  0
  3  9  4  0  0  0  0
  4  5  1  0  0  0  0
  5  6  2  0  0  0  0
  5  7  1  0  0  0  0
  7  8  2  0  0  0  0
  8  9  1  0  0  0  0
  9 10  4  0  0  0  0
 10 11  4  0  0  0  0
 10 13  1  0  0  0  0
 11 12  4  0  0  0  0
 13 14  1  0  0  0  0
 13 15  1  0  0  0  0
 15 16  1  0  0  0  0
 16 17  1  0  0  0  0
 17 18  1  0  0  0  0
 17 27  1  0  0  0  0
 18 19  1  0  0  0  0
 19 20  4  0  0  0  0
 19 26  4  0  0  0  0
 20 21  4  0  0  0  0
 21 22  1  0  0  0  0
 21 24  4  0  0  0  0
 22 23  1  0  0  0  0
 24 25  4  0  0  0  0
 24 28  1  0  0  0  0
 25 26  4  0  0  0  0
 26 27  1  0  0  0  0
 28 29  1  0  0  0  0
M  END
>  <Name_Molregno>
625589

>  <Beta-1>
7.04

>  <Beta-2>
7.31

$$$$
625590
  Marvin  02231216192D 0   1.00000     0.00000     0

 31 34  0  0  1  0  0  0  0  0999 V2000
   -0.1543   -0.0962    0.0000 O   0  0  0  0  0  0  0  0  0
    0.2582    0.6183    0.0000 C   0  0  0  0  0  0  0  0  0
   -0.1543    1.3328    0.0000 C   0  0  0  0  0  0  0  0  0
   -0.9793    1.3328    0.0000 N   0  0  0  0  0  0  0  0  0
   -1.3918    2.0472    0.0000 C   0  0  0  0  0  0  0  0  0
   -2.2168    2.0472    0.0000 O   0  0  0  0  0  0  0  0  0
   -0.9793    2.7617    0.0000 C   0  0  0  0  0  0  0  0  0
   -0.1543    2.7617    0.0000 C   0  0  0  0  0  0  0  0  0
    0.2582    2.0472    0.0000 C   0  0  0  0  0  0  0  0  0
    1.0832    2.0472    0.0000 C   0  0  0  0  0  0  0  0  0
    1.4957    1.3328    0.0000 C   0  0  0  0  0  0  0  0  0
    1.0832    0.6183    0.0000 C   0  0  0  0  0  0  0  0  0
    1.4957    2.7617    0.0000 C   0  0  0  0  0  0  0  0  0
    1.0832    3.4762    0.0000 O   0  0  0  0  0  0  0  0  0
    2.3207    2.7617    0.0000 C   0  0  0  0  0  0  0  0  0
    2.7332    3.4762    0.0000 N   0  0  0  0  0  0  0  0  0
    3.5582    3.4762    0.0000 C   0  0  0  0  0  0  0  0  0
    4.0431    4.1436    0.0000 C   0  0  0  0  0  0  0  0  0
    4.8278    3.8887    0.0000 C   0  0  0  0  0  0  0  0  0
    5.5422    4.3012    0.0000 C   0  0  0  0  0  0  0  0  0
    6.2567    3.8887    0.0000 C   0  0  0  0  0  0  0  0  0
    6.9712    4.3012    0.0000 C   0  0  0  0  0  0  0  0  0
    7.6857    3.8887    0.0000 C   0  0  0  0  0  0  0  0  0
    8.4001    4.3012    0.0000 C   0  0  0  0  0  0  0  0  0
    6.2567    3.0637    0.0000 C   0  0  0  0  0  0  0  0  0
    5.5422    2.6512    0.0000 C   0  0  0  0  0  0  0  0  0
    4.8278    3.0637    0.0000 C   0  0  0  0  0  0  0  0  0
    4.0431    2.8087    0.0000 C   0  0  0  0  0  0  0  0  0
    6.9712    2.6512    0.0000 C   0  0  0  0  0  0  0  0  0
    7.6857    3.0637    0.0000 C   0  0  0  0  0  0  0  0  0
    8.4001    2.6512    0.0000 C   0  0  0  0  0  0  0  0  0
  1  2  1  0  0  0  0
  2  3  4  0  0  0  0
  2 12  4  0  0  0  0
  3  4  1  0  0  0  0
  3  9  4  0  0  0  0
  4  5  1  0  0  0  0
  5  6  2  0  0  0  0
  5  7  1  0  0  0  0
  7  8  2  0  0  0  0
  8  9  1  0  0  0  0
  9 10  4  0  0  0  0
 10 11  4  0  0  0  0
 10 13  1  0  0  0  0
 11 12  4  0  0  0  0
 13 14  1  0  0  0  0
 13 15  1  0  0  0  0
 15 16  1  0  0  0  0
 16 17  1  0  0  0  0
 17 18  1  0  0  0  0
 17 28  1  0  0  0  0
 18 19  1  0  0  0  0
 19 20  4  0  0  0  0
 19 27  4  0  0  0  0
 20 21  4  0  0  0  0
 21 22  1  0  0  0  0
 21 25  4  0  0  0  0
 22 23  1  0  0  0  0
 23 24  1  0  0  0  0
 25 26  4  0  0  0  0
 25 29  1  0  0  0  0
 26 27  4  0  0  0  0
 27 28  1  0  0  0  0
 29 30  1  0  0  0  0
 30 31  1  0  0  0  0
M  END
>  <Name_Molregno>
625590

>  <Beta-2>
6.92

$$$$
625591
  Marvin  02231216192D 0   1.00000     0.00000     0

 33 36  0  0  1  0  0  0  0  0999 V2000
   -0.0690   -5.5729    0.0000 O   0  0  0  0  0  0  0  0  0
    0.3435   -4.8584    0.0000 C   0  0  0  0  0  0  0  0  0
   -0.0690   -4.1440    0.0000 C   0  0  0  0  0  0  0  0  0
   -0.8940   -4.1440    0.0000 N   0  0  0  0  0  0  0  0  0
   -1.3065   -3.4295    0.0000 C   0  0  0  0  0  0  0  0  0
   -2.1315   -3.4295    0.0000 O   0  0  0  0  0  0  0  0  0
   -0.8940   -2.7150    0.0000 C   0  0  0  0  0  0  0  0  0
   -0.0690   -2.7150    0.0000 C   0  0  0  0  0  0  0  0  0
    0.3435   -3.4295    0.0000 C   0  0  0  0  0  0  0  0  0
    1.1685   -3.4295    0.0000 C   0  0  0  0  0  0  0  0  0
    1.5810   -4.1440    0.0000 C   0  0  0  0  0  0  0  0  0
    1.1685   -4.8584    0.0000 C   0  0  0  0  0  0  0  0  0
    1.5810   -2.7150    0.0000 C   0  0  0  0  0  0  0  0  0
    1.1685   -2.0006    0.0000 O   0  0  0  0  0  0  0  0  0
    2.4060   -2.7150    0.0000 C   0  0  0  0  0  0  0  0  0
    2.8185   -2.0006    0.0000 N   0  0  0  0  0  0  0  0  0
    3.6435   -2.0006    0.0000 C   0  0  0  0  0  0  0  0  0
    4.1284   -1.3331    0.0000 C   0  0  0  0  0  0  0  0  0
    4.9131   -1.5881    0.0000 C   0  0  0  0  0  0  0  0  0
    5.6275   -1.1756    0.0000 C   0  0  0  0  0  0  0  0  0
    6.3420   -1.5881    0.0000 C   0  0  0  0  0  0  0  0  0
    7.0565   -1.1756    0.0000 C   0  0  0  0  0  0  0  0  0
    7.0565   -0.3506    0.0000 C   0  0  0  0  0  0  0  0  0
    7.7709    0.0619    0.0000 C   0  0  0  0  0  0  0  0  0
    7.7709    0.8869    0.0000 C   0  0  0  0  0  0  0  0  0
    6.3420   -2.4131    0.0000 C   0  0  0  0  0  0  0  0  0
    5.6275   -2.8256    0.0000 C   0  0  0  0  0  0  0  0  0
    4.9131   -2.4131    0.0000 C   0  0  0  0  0  0  0  0  0
    4.1284   -2.6680    0.0000 C   0  0  0  0  0  0  0  0  0
    7.0565   -2.8256    0.0000 C   0  0  0  0  0  0  0  0  0
    7.0565   -3.6506    0.0000 C   0  0  0  0  0  0  0  0  0
    7.7709   -4.0631    0.0000 C   0  0  0  0  0  0  0  0  0
    7.7709   -4.8881    0.0000 C   0  0  0  0  0  0  0  0  0
  1  2  1  0  0  0  0
  2  3  4  0  0  0  0
  2 12  4  0  0  0  0
  3  4  1  0  0  0  0
  3  9  4  0  0  0  0
  4  5  1  0  0  0  0
  5  6  2  0  0  0  0
  5  7  1  0  0  0  0
  7  8  2  0  0  0  0
  8  9  1  0  0  0  0
  9 10  4  0  0  0  0
 10 11  4  0  0  0  0
 10 13  1  0  0  0  0
 11 12  4  0  0  0  0
 13 14  1  0  0  0  0
 13 15  1  0  0  0  0
 15 16  1  0  0  0  0
 16 17  1  0  0  0  0
 17 18  1  0  0  0  0
 17 29  1  0  0  0  0
 18 19  1  0  0  0  0
 19 20  4  0  0  0  0
 19 28  4  0  0  0  0
 20 21  4  0  0  0  0
 21 22  1  0  0  0  0
 21 26  4  0  0  0  0
 22 23  1  0  0  0  0
 23 24  1  0  0  0  0
 24 25  1  0  0  0  0
 26 27  4  0  0  0  0
 26 30  1  0  0  0  0
 27 28  4  0  0  0  0
 28 29  1  0  0  0  0
 30 31  1  0  0  0  0
 31 32  1  0  0  0  0
 32 33  1  0  0  0  0
M  END
>  <Name_Molregno>
625591

>  <Beta-2>
6.95

$$$$
625658
  Marvin  02231216192D 0   1.00000     0.00000     0

 29 32  0  0  1  0  0  0  0  0999 V2000
    0.6390    2.0401    0.0000 O   0  0  0  0  0  0  0  0  0
    1.3535    2.4526    0.0000 C   0  0  0  0  0  0  0  0  0
   -0.0754    2.4526    0.0000 C   0  0  0  0  0  0  0  0  0
   -0.7899    2.0401    0.0000 C   0  0  0  0  0  0  0  0  0
   -1.5044    2.4526    0.0000 C   0  0  0  0  0  0  0  0  0
   -2.2890    2.1977    0.0000 C   0  0  0  0  0  0  0  0  0
   -2.7739    2.8651    0.0000 C   0  0  0  0  0  0  0  0  0
   -3.5989    2.8651    0.0000 N   0  0  0  0  0  0  0  0  0
   -4.0114    2.1507    0.0000 C   0  0  0  0  0  0  0  0  0
   -4.8364    2.1507    0.0000 C   0  0  0  0  0  0  0  0  0
   -5.2489    2.8651    0.0000 O   0  0  0  0  0  0  0  0  0
   -5.2489    1.4362    0.0000 C   0  0  0  0  0  0  0  0  0
   -6.0739    1.4362    0.0000 C   0  0  0  0  0  0  0  0  0
   -6.4864    0.7217    0.0000 C   0  0  0  0  0  0  0  0  0
   -7.3114    0.7217    0.0000 N   0  0  0  0  0  0  0  0  0
   -7.7239    1.4362    0.0000 C   0  0  0  0  0  0  0  0  0
   -8.5489    1.4362    0.0000 O   0  0  0  0  0  0  0  0  0
   -7.3114    2.1507    0.0000 C   0  0  0  0  0  0  0  0  0
   -6.4864    2.1507    0.0000 C   0  0  0  0  0  0  0  0  0
   -6.0739    0.0073    0.0000 C   0  0  0  0  0  0  0  0  0
   -6.4864   -0.7072    0.0000 O   0  0  0  0  0  0  0  0  0
   -5.2489    0.0073    0.0000 C   0  0  0  0  0  0  0  0  0
   -4.8364    0.7217    0.0000 C   0  0  0  0  0  0  0  0  0
   -2.2890    3.5326    0.0000 C   0  0  0  0  0  0  0  0  0
   -1.5044    3.2776    0.0000 C   0  0  0  0  0  0  0  0  0
   -0.7899    3.6901    0.0000 C   0  0  0  0  0  0  0  0  0
   -0.0754    3.2776    0.0000 C   0  0  0  0  0  0  0  0  0
    0.6390    3.6901    0.0000 O   0  0  0  0  0  0  0  0  0
    0.6390    4.5151    0.0000 C   0  0  0  0  0  0  0  0  0
  1  2  1  0  0  0  0
  1  3  1  0  0  0  0
  3  4  4  0  0  0  0
  3 27  4  0  0  0  0
  4  5  4  0  0  0  0
  5  6  1  0  0  0  0
  5 25  4  0  0  0  0
  6  7  1  0  0  0  0
  7  8  1  0  0  0  0
  7 24  1  0  0  0  0
  8  9  1  0  0  0  0
  9 10  1  0  0  0  0
 10 11  1  0  0  0  0
 10 12  1  0  0  0  0
 12 13  4  0  0  0  0
 12 23  4  0  0  0  0
 13 14  4  0  0  0  0
 13 19  1  0  0  0  0
 14 15  1  0  0  0  0
 14 20  4  0  0  0  0
 15 16  1  0  0  0  0
 16 17  2  0  0  0  0
 16 18  1  0  0  0  0
 18 19  2  0  0  0  0
 20 21  1  0  0  0  0
 20 22  4  0  0  0  0
 22 23  4  0  0  0  0
 24 25  1  0  0  0  0
 25 26  4  0  0  0  0
 26 27  4  0  0  0  0
 27 28  1  0  0  0  0
 28 29  1  0  0  0  0
M  END
>  <Name_Molregno>
625658

>  <Beta-2>
6.47

$$$$
625659
  Marvin  02231216192D 0   1.00000     0.00000     0

 29 32  0  0  1  0  0  0  0  0999 V2000
   -0.6587   -0.2647    0.0000 O   0  0  0  0  0  0  0  0  0
   -0.2462   -0.9791    0.0000 C   0  0  0  0  0  0  0  0  0
    0.5788   -0.9791    0.0000 C   0  0  0  0  0  0  0  0  0
    0.9913   -0.2647    0.0000 N   0  0  0  0  0  0  0  0  0
    1.8163   -0.2647    0.0000 C   0  0  0  0  0  0  0  0  0
    2.2288    0.4498    0.0000 O   0  0  0  0  0  0  0  0  0
    2.2288   -0.9791    0.0000 C   0  0  0  0  0  0  0  0  0
    1.8163   -1.6936    0.0000 C   0  0  0  0  0  0  0  0  0
    0.9913   -1.6936    0.0000 C   0  0  0  0  0  0  0  0  0
    0.5788   -2.4081    0.0000 C   0  0  0  0  0  0  0  0  0
   -0.2462   -2.4081    0.0000 C   0  0  0  0  0  0  0  0  0
   -0.6587   -1.6936    0.0000 C   0  0  0  0  0  0  0  0  0
    0.9913   -3.1225    0.0000 C   0  0  0  0  0  0  0  0  0
    0.5788   -3.8370    0.0000 O   0  0  0  0  0  0  0  0  0
    1.8163   -3.1225    0.0000 C   0  0  0  0  0  0  0  0  0
    2.2288   -3.8370    0.0000 N   0  0  0  0  0  0  0  0  0
    3.0538   -3.8370    0.0000 C   0  0  0  0  0  0  0  0  0
    3.5387   -4.5045    0.0000 C   0  0  0  0  0  0  0  0  0
    4.3234   -4.2495    0.0000 C   0  0  0  0  0  0  0  0  0
    4.3234   -3.4245    0.0000 C   0  0  0  0  0  0  0  0  0
    3.5387   -3.1696    0.0000 C   0  0  0  0  0  0  0  0  0
    5.0378   -3.0120    0.0000 C   0  0  0  0  0  0  0  0  0
    5.7523   -3.4245    0.0000 C   0  0  0  0  0  0  0  0  0
    5.7523   -4.2495    0.0000 C   0  0  0  0  0  0  0  0  0
    5.0378   -4.6620    0.0000 C   0  0  0  0  0  0  0  0  0
    5.0378   -5.4870    0.0000 C   0  0  0  0  0  0  0  0  0
    5.7523   -5.8995    0.0000 C   0  0  0  0  0  0  0  0  0
    5.0378   -2.1870    0.0000 C   0  0  0  0  0  0  0  0  0
    5.7523   -1.7745    0.0000 C   0  0  0  0  0  0  0  0  0
  1  2  1  0  0  0  0
  2  3  4  0  0  0  0
  2 12  4  0  0  0  0
  3  4  1  0  0  0  0
  3  9  4  0  0  0  0
  4  5  1  0  0  0  0
  5  6  2  0  0  0  0
  5  7  1  0  0  0  0
  7  8  2  0  0  0  0
  8  9  1  0  0  0  0
  9 10  4  0  0  0  0
 10 11  4  0  0  0  0
 10 13  1  0  0  0  0
 11 12  4  0  0  0  0
 13 14  1  0  0  0  0
 13 15  1  0  0  0  0
 15 16  1  0  0  0  0
 16 17  1  0  0  0  0
 17 18  1  0  0  0  0
 17 21  1  0  0  0  0
 18 19  1  0  0  0  0
 19 20  4  0  0  0  0
 19 25  4  0  0  0  0
 20 21  1  0  0  0  0
 20 22  4  0  0  0  0
 22 23  4  0  0  0  0
 22 28  1  0  0  0  0
 23 24  4  0  0  0  0
 24 25  4  0  0  0  0
 25 26  1  0  0  0  0
 26 27  1  0  0  0  0
 28 29  1  0  0  0  0
M  END
>  <Name_Molregno>
625659

>  <Beta-2>
6.16

$$$$
625730
  Marvin  02231216192D 0   1.00000     0.00000     0

 27 29  0  0  1  0  0  0  0  0999 V2000
   -9.6085    2.4246    0.0000 O   0  0  0  0  0  0  0  0  0
  -10.3230    2.0121    0.0000 C   0  0  0  0  0  0  0  0  0
   -8.8940    2.0121    0.0000 C   0  0  0  0  0  0  0  0  0
   -8.1795    2.4246    0.0000 C   0  0  0  0  0  0  0  0  0
   -7.4651    2.0121    0.0000 C   0  0  0  0  0  0  0  0  0
   -7.4651    1.1871    0.0000 C   0  0  0  0  0  0  0  0  0
   -8.1795    0.7746    0.0000 C   0  0  0  0  0  0  0  0  0
   -8.8940    1.1871    0.0000 C   0  0  0  0  0  0  0  0  0
   -6.7506    0.7746    0.0000 C   0  0  0  0  0  0  0  0  0
   -6.0361    1.1871    0.0000 C   0  0  0  0  0  0  0  0  0
   -5.3217    0.7746    0.0000 N   0  0  0  0  0  0  0  0  0
   -4.6072    1.1871    0.0000 C   0  0  0  0  0  0  0  0  0
   -3.8927    0.7746    0.0000 C   0  0  0  0  0  0  0  0  0
   -3.8927   -0.0504    0.0000 O   0  0  0  0  0  0  0  0  0
   -3.1783    1.1871    0.0000 C   0  0  0  0  0  0  0  0  0
   -2.4638    0.7746    0.0000 C   0  0  0  0  0  0  0  0  0
   -1.7493    1.1871    0.0000 C   0  0  0  0  0  0  0  0  0
   -1.0348    0.7746    0.0000 N   0  0  0  0  0  0  0  0  0
   -1.0348   -0.0504    0.0000 C   0  0  0  0  0  0  0  0  0
   -0.3204   -0.4629    0.0000 O   0  0  0  0  0  0  0  0  0
   -1.7493   -0.4629    0.0000 C   0  0  0  0  0  0  0  0  0
   -2.4638   -0.0504    0.0000 C   0  0  0  0  0  0  0  0  0
   -1.7493    2.0121    0.0000 C   0  0  0  0  0  0  0  0  0
   -1.0348    2.4246    0.0000 O   0  0  0  0  0  0  0  0  0
   -2.4638    2.4246    0.0000 C   0  0  0  0  0  0  0  0  0
   -3.1783    2.0121    0.0000 C   0  0  0  0  0  0  0  0  0
   -6.0361    2.0121    0.0000 C   0  0  0  0  0  0  0  0  0
  1  2  1  0  0  0  0
  1  3  1  0  0  0  0
  3  4  4  0  0  0  0
  3  8  4  0  0  0  0
  4  5  4  0  0  0  0
  5  6  4  0  0  0  0
  6  7  4  0  0  0  0
  6  9  1  0  0  0  0
  7  8  4  0  0  0  0
  9 10  1  0  0  0  0
 10 11  1  0  0  0  0
 10 27  1  0  0  0  0
 11 12  1  0  0  0  0
 12 13  1  0  0  0  0
 13 14  1  0  0  0  0
 13 15  1  0  0  0  0
 15 16  4  0  0  0  0
 15 26  4  0  0  0  0
 16 17  4  0  0  0  0
 16 22  1  0  0  0  0
 17 18  1  0  0  0  0
 17 23  4  0  0  0  0
 18 19  1  0  0  0  0
 19 20  2  0  0  0  0
 19 21  1  0  0  0  0
 21 22  2  0  0  0  0
 23 24  1  0  0  0  0
 23 25  4  0  0  0  0
 25 26  4  0  0  0  0
M  END
>  <Name_Molregno>
625730

>  <Beta-2>
8.5

$$$$
625731
  Marvin  02231216192D 0   1.00000     0.00000     0

 41 45  0  0  1  0  0  0  0  0999 V2000
    0.0967   -2.4212    0.0000 O   0  0  0  0  0  0  0  0  0
    0.5092   -3.1356    0.0000 C   0  0  0  0  0  0  0  0  0
    0.0967   -3.8501    0.0000 C   0  0  0  0  0  0  0  0  0
   -0.7283   -3.8501    0.0000 O   0  0  0  0  0  0  0  0  0
    0.5092   -4.5646    0.0000 O   0  0  0  0  0  0  0  0  0
    1.3342   -3.1356    0.0000 C   0  0  0  0  0  0  0  0  0
    1.7467   -3.8501    0.0000 O   0  0  0  0  0  0  0  0  0
    1.7467   -2.4212    0.0000 C   0  0  0  0  0  0  0  0  0
    2.5717   -2.4212    0.0000 O   0  0  0  0  0  0  0  0  0
    1.3342   -1.7067    0.0000 C   0  0  0  0  0  0  0  0  0
    1.7467   -0.9922    0.0000 O   0  0  0  0  0  0  0  0  0
    0.5092   -1.7067    0.0000 C   0  0  0  0  0  0  0  0  0
    0.0967   -0.9922    0.0000 O   0  0  0  0  0  0  0  0  0
    0.5092   -0.2778    0.0000 C   0  0  0  0  0  0  0  0  0
    0.0967    0.4367    0.0000 C   0  0  0  0  0  0  0  0  0
   -0.7283    0.4367    0.0000 N   0  0  0  0  0  0  0  0  0
   -1.1408    1.1512    0.0000 C   0  0  0  0  0  0  0  0  0
   -1.9658    1.1512    0.0000 O   0  0  0  0  0  0  0  0  0
   -0.7283    1.8657    0.0000 C   0  0  0  0  0  0  0  0  0
    0.0967    1.8657    0.0000 C   0  0  0  0  0  0  0  0  0
    0.5092    1.1512    0.0000 C   0  0  0  0  0  0  0  0  0
    1.3342    1.1512    0.0000 C   0  0  0  0  0  0  0  0  0
    1.7467    0.4367    0.0000 C   0  0  0  0  0  0  0  0  0
    1.3342   -0.2778    0.0000 C   0  0  0  0  0  0  0  0  0
    1.7467    1.8657    0.0000 C   0  0  0  0  0  0  0  0  0
    1.3342    2.5801    0.0000 O   0  0  0  0  0  0  0  0  0
    2.5717    1.8657    0.0000 C   0  0  0  0  0  0  0  0  0
    2.9842    1.1512    0.0000 N   0  0  0  0  0  0  0  0  0
    3.8092    1.1512    0.0000 C   0  0  0  0  0  0  0  0  0
    4.2941    1.8186    0.0000 C   0  0  0  0  0  0  0  0  0
    5.0787    1.5637    0.0000 C   0  0  0  0  0  0  0  0  0
    5.7932    1.9762    0.0000 C   0  0  0  0  0  0  0  0  0
    6.5076    1.5637    0.0000 C   0  0  0  0  0  0  0  0  0
    7.2221    1.9762    0.0000 C   0  0  0  0  0  0  0  0  0
    7.2221    2.8012    0.0000 C   0  0  0  0  0  0  0  0  0
    6.5076    0.7387    0.0000 C   0  0  0  0  0  0  0  0  0
    5.7932    0.3262    0.0000 C   0  0  0  0  0  0  0  0  0
    5.0787    0.7387    0.0000 C   0  0  0  0  0  0  0  0  0
    4.2941    0.4837    0.0000 C   0  0  0  0  0  0  0  0  0
    7.2221    0.3262    0.0000 C   0  0  0  0  0  0  0  0  0
    7.2221   -0.4988    0.0000 C   0  0  0  0  0  0  0  0  0
  1  2  1  0  0  0  0
  1 12  1  0  0  0  0
  2  3  1  0  0  0  0
  2  6  1  0  0  0  0
  3  4  1  0  0  0  0
  3  5  2  0  0  0  0
  6  7  1  0  0  0  0
  6  8  1  0  0  0  0
  8  9  1  0  0  0  0
  8 10  1  0  0  0  0
 10 11  1  0  0  0  0
 10 12  1  0  0  0  0
 12 13  1  0  0  0  0
 13 14  1  0  0  0  0
 14 15  4  0  0  0  0
 14 24  4  0  0  0  0
 15 16  1  0  0  0  0
 15 21  4  0  0  0  0
 16 17  1  0  0  0  0
 17 18  2  0  0  0  0
 17 19  1  0  0  0  0
 19 20  2  0  0  0  0
 20 21  1  0  0  0  0
 21 22  4  0  0  0  0
 22 23  4  0  0  0  0
 22 25  1  0  0  0  0
 23 24  4  0  0  0  0
 25 26  1  0  0  0  0
 25 27  1  0  0  0  0
 27 28  1  0  0  0  0
 28 29  1  0  0  0  0
 29 30  1  0  0  0  0
 29 39  1  0  0  0  0
 30 31  1  0  0  0  0
 31 32  4  0  0  0  0
 31 38  4  0  0  0  0
 32 33  4  0  0  0  0
 33 34  1  0  0  0  0
 33 36  4  0  0  0  0
 34 35  1  0  0  0  0
 36 37  4  0  0  0  0
 36 40  1  0  0  0  0
 37 38  4  0  0  0  0
 38 39  1  0  0  0  0
 40 41  1  0  0  0  0
M  END
>  <Name_Molregno>
625731

>  <Beta-2>
5

$$$$
630490
  Marvin  02231216192D 0   1.00000     0.00000     0

 37 41  0  0  1  0  0  0  0  0999 V2000
   -0.1822   -0.0819    0.0000 O   0  0  0  0  0  0  0  0  0
    0.5323    0.3306    0.0000 C   0  0  0  0  0  0  0  0  0
    1.2467   -0.0819    0.0000 C   0  0  0  0  0  0  0  0  0
    1.2467   -0.9069    0.0000 O   0  0  0  0  0  0  0  0  0
    1.9612    0.3306    0.0000 C   0  0  0  0  0  0  0  0  0
    2.6757   -0.0819    0.0000 N   0  0  0  0  0  0  0  0  0
    3.3902    0.3306    0.0000 C   0  0  0  0  0  0  0  0  0
    4.1046   -0.0819    0.0000 C   0  0  0  0  0  0  0  0  0
    4.1046   -0.9069    0.0000 C   0  0  0  0  0  0  0  0  0
    3.3902   -1.3194    0.0000 C   0  0  0  0  0  0  0  0  0
    2.6757   -0.9069    0.0000 C   0  0  0  0  0  0  0  0  0
    4.8191   -1.3194    0.0000 C   0  0  0  0  0  0  0  0  0
    5.5336   -0.9069    0.0000 N   0  0  0  0  0  0  0  0  0
    6.2480   -1.3194    0.0000 C   0  0  0  0  0  0  0  0  0
    6.2480   -2.1444    0.0000 O   0  0  0  0  0  0  0  0  0
    6.9625   -0.9069    0.0000 C   0  0  0  0  0  0  0  0  0
    6.9625   -0.0819    0.0000 C   0  0  0  0  0  0  0  0  0
    6.2480    0.3306    0.0000 C   0  0  0  0  0  0  0  0  0
    6.2480    1.1556    0.0000 C   0  0  0  0  0  0  0  0  0
    6.9625    1.5681    0.0000 C   0  0  0  0  0  0  0  0  0
    7.6770    1.1556    0.0000 C   0  0  0  0  0  0  0  0  0
    7.6770    0.3306    0.0000 C   0  0  0  0  0  0  0  0  0
    8.3915   -0.0819    0.0000 C   0  0  0  0  0  0  0  0  0
    8.3915   -0.9069    0.0000 C   0  0  0  0  0  0  0  0  0
    7.6770   -1.3194    0.0000 C   0  0  0  0  0  0  0  0  0
    5.5336   -0.0819    0.0000 C   0  0  0  0  0  0  0  0  0
    4.8191    0.3306    0.0000 O   0  0  0  0  0  0  0  0  0
   -0.8967    0.3306    0.0000 C   0  0  0  0  0  0  0  0  0
   -1.6111   -0.0819    0.0000 C   0  0  0  0  0  0  0  0  0
   -2.3256    0.3306    0.0000 C   0  0  0  0  0  0  0  0  0
   -2.3256    1.1556    0.0000 C   0  0  0  0  0  0  0  0  0
   -1.6111    1.5681    0.0000 C   0  0  0  0  0  0  0  0  0
   -0.8967    1.1556    0.0000 C   0  0  0  0  0  0  0  0  0
   -0.1822    1.5681    0.0000 C   0  0  0  0  0  0  0  0  0
   -0.1822    2.3931    0.0000 C   0  0  0  0  0  0  0  0  0
    0.5323    1.1556    0.0000 C   0  0  0  0  0  0  0  0  0
   -3.0401   -0.0819    0.0000 C   0  0  0  0  0  0  0  0  0
  1  2  1  0  0  0  0
  1 28  1  0  0  0  0
  2  3  1  0  0  0  0
  3  4  1  0  0  0  0
  3  5  1  0  0  0  0
  5  6  1  0  0  0  0
  6  7  1  0  0  0  0
  6 11  1  0  0  0  0
  7  8  1  0  0  0  0
  8  9  1  0  0  0  0
  9 10  1  0  0  0  0
  9 12  1  0  0  0  0
 10 11  1  0  0  0  0
 12 13  1  0  0  0  0
 13 14  1  0  0  0  0
 13 26  1  0  0  0  0
 14 15  2  0  0  0  0
 14 16  1  0  0  0  0
 16 17  4  0  0  0  0
 16 25  4  0  0  0  0
 17 18  4  0  0  0  0
 17 22  4  0  0  0  0
 18 19  4  0  0  0  0
 18 26  1  0  0  0  0
 19 20  4  0  0  0  0
 20 21  4  0  0  0  0
 21 22  4  0  0  0  0
 22 23  4  0  0  0  0
 23 24  4  0  0  0  0
 24 25  4  0  0  0  0
 26 27  2  0  0  0  0
 28 29  4  0  0  0  0
 28 33  4  0  0  0  0
 29 30  4  0  0  0  0
 30 31  4  0  0  0  0
 30 37  1  0  0  0  0
 31 32  4  0  0  0  0
 32 33  4  0  0  0  0
 33 34  1  0  0  0  0
 34 35  1  0  0  0  0
 34 36  1  0  0  0  0
M  END
>  <Name_Molregno>
630490

>  <Beta-1>
6

>  <Beta-2>
7.1

$$$$
630542
  Marvin  02231216192D 0   1.00000     0.00000     0

 36 40  0  0  1  0  0  0  0  0999 V2000
    1.6989   -2.8611    0.0000 O   0  0  0  0  0  0  0  0  0
    2.4134   -2.4486    0.0000 C   0  0  0  0  0  0  0  0  0
    2.4134   -1.6236    0.0000 C   0  0  0  0  0  0  0  0  0
    1.6989   -1.2111    0.0000 O   0  0  0  0  0  0  0  0  0
    3.1278   -1.2111    0.0000 C   0  0  0  0  0  0  0  0  0
    3.1278   -0.3861    0.0000 N   0  0  0  0  0  0  0  0  0
    2.4134    0.0264    0.0000 C   0  0  0  0  0  0  0  0  0
    2.4134    0.8514    0.0000 C   0  0  0  0  0  0  0  0  0
    3.1278    1.2639    0.0000 C   0  0  0  0  0  0  0  0  0
    3.8423    0.8514    0.0000 C   0  0  0  0  0  0  0  0  0
    3.8423    0.0264    0.0000 C   0  0  0  0  0  0  0  0  0
    3.1278    2.0889    0.0000 C   0  0  0  0  0  0  0  0  0
    3.8423    2.5014    0.0000 N   0  0  0  0  0  0  0  0  0
    4.5568    2.0889    0.0000 C   0  0  0  0  0  0  0  0  0
    4.5568    1.2639    0.0000 O   0  0  0  0  0  0  0  0  0
    5.2712    2.5014    0.0000 C   0  0  0  0  0  0  0  0  0
    5.2712    3.3264    0.0000 C   0  0  0  0  0  0  0  0  0
    4.5568    3.7389    0.0000 C   0  0  0  0  0  0  0  0  0
    4.5568    4.5639    0.0000 C   0  0  0  0  0  0  0  0  0
    5.2712    4.9764    0.0000 C   0  0  0  0  0  0  0  0  0
    5.9857    4.5639    0.0000 C   0  0  0  0  0  0  0  0  0
    5.9857    3.7389    0.0000 C   0  0  0  0  0  0  0  0  0
    6.7002    3.3264    0.0000 C   0  0  0  0  0  0  0  0  0
    6.7002    2.5014    0.0000 C   0  0  0  0  0  0  0  0  0
    5.9857    2.0889    0.0000 C   0  0  0  0  0  0  0  0  0
    3.8423    3.3264    0.0000 C   0  0  0  0  0  0  0  0  0
    3.1278    3.7389    0.0000 O   0  0  0  0  0  0  0  0  0
    1.6989   -3.6861    0.0000 C   0  0  0  0  0  0  0  0  0
    2.4134   -4.0986    0.0000 C   0  0  0  0  0  0  0  0  0
    2.4134   -4.9236    0.0000 C   0  0  0  0  0  0  0  0  0
    1.6989   -5.3361    0.0000 C   0  0  0  0  0  0  0  0  0
    0.9844   -4.9236    0.0000 C   0  0  0  0  0  0  0  0  0
    0.9844   -4.0986    0.0000 C   0  0  0  0  0  0  0  0  0
    0.2699   -3.6861    0.0000 C   0  0  0  0  0  0  0  0  0
   -0.4445   -4.0986    0.0000 C   0  0  0  0  0  0  0  0  0
   -0.4445   -4.9236    0.0000 C   0  0  0  0  0  0  0  0  0
  1  2  1  0  0  0  0
  1 28  1  0  0  0  0
  2  3  1  0  0  0  0
  3  4  1  0  0  0  0
  3  5  1  0  0  0  0
  5  6  1  0  0  0  0
  6  7  1  0  0  0  0
  6 11  1  0  0  0  0
  7  8  1  0  0  0  0
  8  9  1  0  0  0  0
  9 10  1  0  0  0  0
  9 12  1  0  0  0  0
 10 11  1  0  0  0  0
 12 13  1  0  0  0  0
 13 14  1  0  0  0  0
 13 26  1  0  0  0  0
 14 15  2  0  0  0  0
 14 16  1  0  0  0  0
 16 17  4  0  0  0  0
 16 25  4  0  0  0  0
 17 18  4  0  0  0  0
 17 22  4  0  0  0  0
 18 19  4  0  0  0  0
 18 26  1  0  0  0  0
 19 20  4  0  0  0  0
 20 21  4  0  0  0  0
 21 22  4  0  0  0  0
 22 23  4  0  0  0  0
 23 24  4  0  0  0  0
 24 25  4  0  0  0  0
 26 27  2  0  0  0  0
 28 29  4  0  0  0  0
 28 33  4  0  0  0  0
 29 30  4  0  0  0  0
 30 31  4  0  0  0  0
 31 32  4  0  0  0  0
 32 33  4  0  0  0  0
 33 34  1  0  0  0  0
 34 35  1  0  0  0  0
 35 36  2  0  0  0  0
M  END
>  <Name_Molregno>
630542

>  <Beta-1>
7.1

>  <Beta-2>
7.1

$$$$
630543
  Marvin  02231216192D 0   1.00000     0.00000     0

 35 39  0  0  1  0  0  0  0  0999 V2000
    2.0952    2.8650    0.0000 S   0  0  0  0  0  0  0  0  0
    1.6103    2.1975    0.0000 C   0  0  0  0  0  0  0  0  0
    2.0952    1.5301    0.0000 C   0  0  0  0  0  0  0  0  0
    2.8798    1.7850    0.0000 C   0  0  0  0  0  0  0  0  0
    2.8798    2.6100    0.0000 C   0  0  0  0  0  0  0  0  0
    3.5943    3.0225    0.0000 N   0  0  0  0  0  0  0  0  0
    4.3088    2.6100    0.0000 C   0  0  0  0  0  0  0  0  0
    4.3088    1.7850    0.0000 N   0  0  0  0  0  0  0  0  0
    3.5943    1.3725    0.0000 C   0  0  0  0  0  0  0  0  0
    3.5943    0.5475    0.0000 N   0  0  0  0  0  0  0  0  0
    4.3088    0.1350    0.0000 C   0  0  0  0  0  0  0  0  0
    4.3088   -0.6900    0.0000 C   0  0  0  0  0  0  0  0  0
    3.5943   -1.1025    0.0000 C   0  0  0  0  0  0  0  0  0
    3.5943   -1.9275    0.0000 N   0  0  0  0  0  0  0  0  0
    4.3088   -2.3400    0.0000 C   0  0  0  0  0  0  0  0  0
    5.0232   -1.9275    0.0000 C   0  0  0  0  0  0  0  0  0
    5.0232   -1.1025    0.0000 O   0  0  0  0  0  0  0  0  0
    5.7377   -2.3400    0.0000 C   0  0  0  0  0  0  0  0  0
    6.4522   -1.9275    0.0000 O   0  0  0  0  0  0  0  0  0
    7.1667   -2.3400    0.0000 C   0  0  0  0  0  0  0  0  0
    7.8811   -1.9275    0.0000 C   0  0  0  0  0  0  0  0  0
    8.5956   -2.3400    0.0000 C   0  0  0  0  0  0  0  0  0
    8.5956   -3.1650    0.0000 C   0  0  0  0  0  0  0  0  0
    9.3101   -3.5775    0.0000 O   0  0  0  0  0  0  0  0  0
    9.3101   -4.4025    0.0000 C   0  0  0  0  0  0  0  0  0
    7.8811   -3.5775    0.0000 C   0  0  0  0  0  0  0  0  0
    7.1667   -3.1650    0.0000 C   0  0  0  0  0  0  0  0  0
    2.8798   -0.6900    0.0000 C   0  0  0  0  0  0  0  0  0
    2.8798    0.1350    0.0000 C   0  0  0  0  0  0  0  0  0
    1.8403    0.7455    0.0000 C   0  0  0  0  0  0  0  0  0
    2.3923    0.1324    0.0000 C   0  0  0  0  0  0  0  0  0
    2.1374   -0.6522    0.0000 C   0  0  0  0  0  0  0  0  0
    1.3304   -0.8238    0.0000 C   0  0  0  0  0  0  0  0  0
    0.7784   -0.2107    0.0000 C   0  0  0  0  0  0  0  0  0
    1.0333    0.5740    0.0000 C   0  0  0  0  0  0  0  0  0
  1  2  4  0  0  0  0
  1  5  4  0  0  0  0
  2  3  4  0  0  0  0
  3  4  4  0  0  0  0
  3 30  1  0  0  0  0
  4  5  4  0  0  0  0
  4  9  4  0  0  0  0
  5  6  4  0  0  0  0
  6  7  4  0  0  0  0
  7  8  4  0  0  0  0
  8  9  4  0  0  0  0
  9 10  1  0  0  0  0
 10 11  1  0  0  0  0
 10 29  1  0  0  0  0
 11 12  1  0  0  0  0
 12 13  1  0  0  0  0
 13 14  1  0  0  0  0
 13 28  1  0  0  0  0
 14 15  1  0  0  0  0
 15 16  1  0  0  0  0
 16 17  1  0  0  0  0
 16 18  1  0  0  0  0
 18 19  1  0  0  0  0
 19 20  1  0  0  0  0
 20 21  4  0  0  0  0
 20 27  4  0  0  0  0
 21 22  4  0  0  0  0
 22 23  4  0  0  0  0
 23 24  1  0  0  0  0
 23 26  4  0  0  0  0
 24 25  1  0  0  0  0
 26 27  4  0  0  0  0
 28 29  1  0  0  0  0
 30 31  4  0  0  0  0
 30 35  4  0  0  0  0
 31 32  4  0  0  0  0
 32 33  4  0  0  0  0
 33 34  4  0  0  0  0
 34 35  4  0  0  0  0
M  END
>  <Name_Molregno>
630543

>  <Beta-1>
5

>  <Beta-2>
6.15

$$$$
630544
  Marvin  02231216192D 0   1.00000     0.00000     0

 36 40  0  0  1  0  0  0  0  0999 V2000
   -0.2275   -0.0461    0.0000 O   0  0  0  0  0  0  0  0  0
    0.4870    0.3664    0.0000 C   0  0  0  0  0  0  0  0  0
    1.2014   -0.0461    0.0000 C   0  0  0  0  0  0  0  0  0
    1.2014   -0.8711    0.0000 O   0  0  0  0  0  0  0  0  0
    1.9159    0.3664    0.0000 C   0  0  0  0  0  0  0  0  0
    2.6304   -0.0461    0.0000 N   0  0  0  0  0  0  0  0  0
    3.3449    0.3664    0.0000 C   0  0  0  0  0  0  0  0  0
    4.0593   -0.0461    0.0000 C   0  0  0  0  0  0  0  0  0
    4.0593   -0.8711    0.0000 C   0  0  0  0  0  0  0  0  0
    3.3449   -1.2836    0.0000 C   0  0  0  0  0  0  0  0  0
    2.6304   -0.8711    0.0000 C   0  0  0  0  0  0  0  0  0
    4.7738   -1.2836    0.0000 C   0  0  0  0  0  0  0  0  0
    5.4883   -0.8711    0.0000 N   0  0  0  0  0  0  0  0  0
    6.2027   -1.2836    0.0000 C   0  0  0  0  0  0  0  0  0
    6.2027   -2.1086    0.0000 O   0  0  0  0  0  0  0  0  0
    6.9172   -0.8711    0.0000 C   0  0  0  0  0  0  0  0  0
    6.9172   -0.0461    0.0000 C   0  0  0  0  0  0  0  0  0
    6.2027    0.3664    0.0000 C   0  0  0  0  0  0  0  0  0
    6.2027    1.1914    0.0000 C   0  0  0  0  0  0  0  0  0
    6.9172    1.6039    0.0000 C   0  0  0  0  0  0  0  0  0
    7.6317    1.1914    0.0000 C   0  0  0  0  0  0  0  0  0
    7.6317    0.3664    0.0000 C   0  0  0  0  0  0  0  0  0
    8.3461   -0.0461    0.0000 C   0  0  0  0  0  0  0  0  0
    8.3461   -0.8711    0.0000 C   0  0  0  0  0  0  0  0  0
    7.6317   -1.2836    0.0000 C   0  0  0  0  0  0  0  0  0
    5.4883   -0.0461    0.0000 C   0  0  0  0  0  0  0  0  0
    4.7738    0.3664    0.0000 O   0  0  0  0  0  0  0  0  0
   -0.9420    0.3664    0.0000 C   0  0  0  0  0  0  0  0  0
   -1.6564   -0.0461    0.0000 C   0  0  0  0  0  0  0  0  0
   -2.3709    0.3664    0.0000 C   0  0  0  0  0  0  0  0  0
   -2.3709    1.1914    0.0000 C   0  0  0  0  0  0  0  0  0
   -1.6564    1.6039    0.0000 C   0  0  0  0  0  0  0  0  0
   -0.9420    1.1914    0.0000 C   0  0  0  0  0  0  0  0  0
   -0.2275    1.6039    0.0000 C   0  0  0  0  0  0  0  0  0
   -0.2275    2.4289    0.0000 C   0  0  0  0  0  0  0  0  0
    0.4870    1.1914    0.0000 C   0  0  0  0  0  0  0  0  0
  1  2  1  0  0  0  0
  1 28  1  0  0  0  0
  2  3  1  0  0  0  0
  3  4  1  0  0  0  0
  3  5  1  0  0  0  0
  5  6  1  0  0  0  0
  6  7  1  0  0  0  0
  6 11  1  0  0  0  0
  7  8  1  0  0  0  0
  8  9  1  0  0  0  0
  9 10  1  0  0  0  0
  9 12  1  0  0  0  0
 10 11  1  0  0  0  0
 12 13  1  0  0  0  0
 13 14  1  0  0  0  0
 13 26  1  0  0  0  0
 14 15  2  0  0  0  0
 14 16  1  0  0  0  0
 16 17  4  0  0  0  0
 16 25  4  0  0  0  0
 17 18  4  0  0  0  0
 17 22  4  0  0  0  0
 18 19  4  0  0  0  0
 18 26  1  0  0  0  0
 19 20  4  0  0  0  0
 20 21  4  0  0  0  0
 21 22  4  0  0  0  0
 22 23  4  0  0  0  0
 23 24  4  0  0  0  0
 24 25  4  0  0  0  0
 26 27  2  0  0  0  0
 28 29  4  0  0  0  0
 28 33  4  0  0  0  0
 29 30  4  0  0  0  0
 30 31  4  0  0  0  0
 31 32  4  0  0  0  0
 32 33  4  0  0  0  0
 33 34  1  0  0  0  0
 34 35  1  0  0  0  0
 34 36  1  0  0  0  0
M  END
>  <Name_Molregno>
630544

>  <Beta-1>
6.6

>  <Beta-2>
6.64

$$$$
630545
  Marvin  02231216192D 0   1.00000     0.00000     0

 38 42  0  0  1  0  0  0  0  0999 V2000
    2.4784   -1.8085    0.0000 O   0  0  0  0  0  0  0  0  0
    2.4784   -2.6335    0.0000 C   0  0  0  0  0  0  0  0  0
    1.7639   -3.0460    0.0000 C   0  0  0  0  0  0  0  0  0
    1.7639   -3.8710    0.0000 O   0  0  0  0  0  0  0  0  0
    1.0495   -2.6335    0.0000 C   0  0  0  0  0  0  0  0  0
    1.0495   -1.8085    0.0000 N   0  0  0  0  0  0  0  0  0
    0.3350   -1.3960    0.0000 C   0  0  0  0  0  0  0  0  0
    0.3350   -0.5710    0.0000 C   0  0  0  0  0  0  0  0  0
    1.0495   -0.1585    0.0000 C   0  0  0  0  0  0  0  0  0
    1.7639   -0.5710    0.0000 C   0  0  0  0  0  0  0  0  0
    1.7639   -1.3960    0.0000 C   0  0  0  0  0  0  0  0  0
    1.0495    0.6665    0.0000 C   0  0  0  0  0  0  0  0  0
    1.7639    1.0790    0.0000 N   0  0  0  0  0  0  0  0  0
    2.4784    0.6665    0.0000 C   0  0  0  0  0  0  0  0  0
    2.4784   -0.1585    0.0000 O   0  0  0  0  0  0  0  0  0
    3.1929    1.0790    0.0000 C   0  0  0  0  0  0  0  0  0
    3.1929    1.9040    0.0000 C   0  0  0  0  0  0  0  0  0
    2.4784    2.3165    0.0000 C   0  0  0  0  0  0  0  0  0
    2.4784    3.1415    0.0000 C   0  0  0  0  0  0  0  0  0
    3.1929    3.5540    0.0000 C   0  0  0  0  0  0  0  0  0
    3.9073    3.1415    0.0000 C   0  0  0  0  0  0  0  0  0
    3.9073    2.3165    0.0000 C   0  0  0  0  0  0  0  0  0
    4.6218    1.9040    0.0000 C   0  0  0  0  0  0  0  0  0
    4.6218    1.0790    0.0000 C   0  0  0  0  0  0  0  0  0
    3.9073    0.6665    0.0000 C   0  0  0  0  0  0  0  0  0
    1.7639    1.9040    0.0000 C   0  0  0  0  0  0  0  0  0
    1.0495    2.3165    0.0000 O   0  0  0  0  0  0  0  0  0
    3.1929   -1.3960    0.0000 C   0  0  0  0  0  0  0  0  0
    3.1929   -0.5710    0.0000 C   0  0  0  0  0  0  0  0  0
    3.9073   -0.1585    0.0000 C   0  0  0  0  0  0  0  0  0
    4.6218   -0.5710    0.0000 C   0  0  0  0  0  0  0  0  0
    4.6218   -1.3960    0.0000 C   0  0  0  0  0  0  0  0  0
    3.9073   -1.8085    0.0000 C   0  0  0  0  0  0  0  0  0
    3.9073   -2.6335    0.0000 O   0  0  0  0  0  0  0  0  0
    4.6218   -3.0460    0.0000 C   0  0  0  0  0  0  0  0  0
    5.3363   -0.1585    0.0000 C   0  0  0  0  0  0  0  0  0
    6.0508   -0.5710    0.0000 C   0  0  0  0  0  0  0  0  0
    6.7652   -0.1585    0.0000 C   0  0  0  0  0  0  0  0  0
  1  2  1  0  0  0  0
  1 28  1  0  0  0  0
  2  3  1  0  0  0  0
  3  4  1  0  0  0  0
  3  5  1  0  0  0  0
  5  6  1  0  0  0  0
  6  7  1  0  0  0  0
  6 11  1  0  0  0  0
  7  8  1  0  0  0  0
  8  9  1  0  0  0  0
  9 10  1  0  0  0  0
  9 12  1  0  0  0  0
 10 11  1  0  0  0  0
 12 13  1  0  0  0  0
 13 14  1  0  0  0  0
 13 26  1  0  0  0  0
 14 15  2  0  0  0  0
 14 16  1  0  0  0  0
 16 17  4  0  0  0  0
 16 25  4  0  0  0  0
 17 18  4  0  0  0  0
 17 22  4  0  0  0  0
 18 19  4  0  0  0  0
 18 26  1  0  0  0  0
 19 20  4  0  0  0  0
 20 21  4  0  0  0  0
 21 22  4  0  0  0  0
 22 23  4  0  0  0  0
 23 24  4  0  0  0  0
 24 25  4  0  0  0  0
 26 27  2  0  0  0  0
 28 29  4  0  0  0  0
 28 33  4  0  0  0  0
 29 30  4  0  0  0  0
 30 31  4  0  0  0  0
 31 32  4  0  0  0  0
 31 36  1  0  0  0  0
 32 33  4  0  0  0  0
 33 34  1  0  0  0  0
 34 35  1  0  0  0  0
 36 37  1  0  0  0  0
 37 38  2  0  0  0  0
M  END
>  <Name_Molregno>
630545

>  <Beta-1>
5.87

>  <Beta-2>
5.48

$$$$
630770
  Marvin  02231216192D 0   1.00000     0.00000     0

 39 43  0  0  1  0  0  0  0  0999 V2000
    3.1836   -2.6282    0.0000 O   0  0  0  0  0  0  0  0  0
    2.4692   -2.2157    0.0000 C   0  0  0  0  0  0  0  0  0
    2.4692   -1.3907    0.0000 C   0  0  0  0  0  0  0  0  0
    3.1836   -0.9782    0.0000 O   0  0  0  0  0  0  0  0  0
    1.7547   -0.9782    0.0000 C   0  0  0  0  0  0  0  0  0
    1.7547   -0.1532    0.0000 N   0  0  0  0  0  0  0  0  0
    1.0402    0.2593    0.0000 C   0  0  0  0  0  0  0  0  0
    1.0402    1.0843    0.0000 C   0  0  0  0  0  0  0  0  0
    1.7547    1.4968    0.0000 C   0  0  0  0  0  0  0  0  0
    2.4692    1.0843    0.0000 C   0  0  0  0  0  0  0  0  0
    2.4692    0.2593    0.0000 C   0  0  0  0  0  0  0  0  0
    1.7547    2.3218    0.0000 C   0  0  0  0  0  0  0  0  0
    2.4692    2.7343    0.0000 N   0  0  0  0  0  0  0  0  0
    3.1836    2.3218    0.0000 C   0  0  0  0  0  0  0  0  0
    3.1836    1.4968    0.0000 O   0  0  0  0  0  0  0  0  0
    3.8981    2.7343    0.0000 C   0  0  0  0  0  0  0  0  0
    3.8981    3.5593    0.0000 C   0  0  0  0  0  0  0  0  0
    3.1836    3.9718    0.0000 C   0  0  0  0  0  0  0  0  0
    3.1836    4.7968    0.0000 C   0  0  0  0  0  0  0  0  0
    3.8981    5.2093    0.0000 C   0  0  0  0  0  0  0  0  0
    4.6126    4.7968    0.0000 C   0  0  0  0  0  0  0  0  0
    4.6126    3.9718    0.0000 C   0  0  0  0  0  0  0  0  0
    5.3271    3.5593    0.0000 C   0  0  0  0  0  0  0  0  0
    5.3271    2.7343    0.0000 C   0  0  0  0  0  0  0  0  0
    4.6126    2.3218    0.0000 C   0  0  0  0  0  0  0  0  0
    2.4692    3.5593    0.0000 C   0  0  0  0  0  0  0  0  0
    1.7547    3.9718    0.0000 O   0  0  0  0  0  0  0  0  0
    3.1836   -3.4532    0.0000 C   0  0  0  0  0  0  0  0  0
    3.8981   -3.8657    0.0000 C   0  0  0  0  0  0  0  0  0
    3.8981   -4.6907    0.0000 C   0  0  0  0  0  0  0  0  0
    3.1836   -5.1032    0.0000 C   0  0  0  0  0  0  0  0  0
    3.1836   -5.9282    0.0000 O   0  0  0  0  0  0  0  0  0
    3.8981   -6.3407    0.0000 C   0  0  0  0  0  0  0  0  0
    2.4692   -4.6907    0.0000 C   0  0  0  0  0  0  0  0  0
    2.4692   -3.8657    0.0000 C   0  0  0  0  0  0  0  0  0
    1.7547   -3.4532    0.0000 C   0  0  0  0  0  0  0  0  0
    1.0402   -3.0407    0.0000 C   0  0  0  0  0  0  0  0  0
    1.3422   -4.1677    0.0000 C   0  0  0  0  0  0  0  0  0
    2.1672   -2.7388    0.0000 C   0  0  0  0  0  0  0  0  0
  1  2  1  0  0  0  0
  1 28  1  0  0  0  0
  2  3  1  0  0  0  0
  3  4  1  0  0  0  0
  3  5  1  0  0  0  0
  5  6  1  0  0  0  0
  6  7  1  0  0  0  0
  6 11  1  0  0  0  0
  7  8  1  0  0  0  0
  8  9  1  0  0  0  0
  9 10  1  0  0  0  0
  9 12  1  0  0  0  0
 10 11  1  0  0  0  0
 12 13  1  0  0  0  0
 13 14  1  0  0  0  0
 13 26  1  0  0  0  0
 14 15  2  0  0  0  0
 14 16  1  0  0  0  0
 16 17  4  0  0  0  0
 16 25  4  0  0  0  0
 17 18  4  0  0  0  0
 17 22  4  0  0  0  0
 18 19  4  0  0  0  0
 18 26  1  0  0  0  0
 19 20  4  0  0  0  0
 20 21  4  0  0  0  0
 21 22  4  0  0  0  0
 22 23  4  0  0  0  0
 23 24  4  0  0  0  0
 24 25  4  0  0  0  0
 26 27  2  0  0  0  0
 28 29  4  0  0  0  0
 28 35  4  0  0  0  0
 29 30  4  0  0  0  0
 30 31  4  0  0  0  0
 31 32  1  0  0  0  0
 31 34  4  0  0  0  0
 32 33  1  0  0  0  0
 34 35  4  0  0  0  0
 35 36  1  0  0  0  0
 36 37  1  0  0  0  0
 36 38  1  0  0  0  0
 36 39  1  0  0  0  0
M  END
>  <Name_Molregno>
630770

>  <Beta-1>
6.28

>  <Beta-2>
6.52

$$$$
630771
  Marvin  02231216192D 0   1.00000     0.00000     0

 36 41  0  0  1  0  0  0  0  0999 V2000
   -0.0850   -0.0946    0.0000 O   0  0  0  0  0  0  0  0  0
    0.6295    0.3179    0.0000 C   0  0  0  0  0  0  0  0  0
    1.3439   -0.0946    0.0000 C   0  0  0  0  0  0  0  0  0
    1.3439   -0.9196    0.0000 O   0  0  0  0  0  0  0  0  0
    2.0584    0.3179    0.0000 C   0  0  0  0  0  0  0  0  0
    2.7729   -0.0946    0.0000 N   0  0  0  0  0  0  0  0  0
    3.4873    0.3179    0.0000 C   0  0  0  0  0  0  0  0  0
    4.2018   -0.0946    0.0000 C   0  0  0  0  0  0  0  0  0
    4.2018   -0.9196    0.0000 C   0  0  0  0  0  0  0  0  0
    3.4873   -1.3321    0.0000 C   0  0  0  0  0  0  0  0  0
    2.7729   -0.9196    0.0000 C   0  0  0  0  0  0  0  0  0
    4.9163   -1.3321    0.0000 C   0  0  0  0  0  0  0  0  0
    5.6308   -0.9196    0.0000 N   0  0  0  0  0  0  0  0  0
    6.3452   -1.3321    0.0000 C   0  0  0  0  0  0  0  0  0
    6.3452   -2.1571    0.0000 O   0  0  0  0  0  0  0  0  0
    7.0597   -0.9196    0.0000 C   0  0  0  0  0  0  0  0  0
    7.0597   -0.0946    0.0000 C   0  0  0  0  0  0  0  0  0
    6.3452    0.3179    0.0000 C   0  0  0  0  0  0  0  0  0
    6.3452    1.1429    0.0000 C   0  0  0  0  0  0  0  0  0
    7.0597    1.5554    0.0000 C   0  0  0  0  0  0  0  0  0
    7.7742    1.1429    0.0000 C   0  0  0  0  0  0  0  0  0
    7.7742    0.3179    0.0000 C   0  0  0  0  0  0  0  0  0
    8.4886   -0.0946    0.0000 C   0  0  0  0  0  0  0  0  0
    8.4886   -0.9196    0.0000 C   0  0  0  0  0  0  0  0  0
    7.7742   -1.3321    0.0000 C   0  0  0  0  0  0  0  0  0
    5.6308   -0.0946    0.0000 C   0  0  0  0  0  0  0  0  0
    4.9163    0.3179    0.0000 O   0  0  0  0  0  0  0  0  0
   -0.7995    0.3179    0.0000 C   0  0  0  0  0  0  0  0  0
   -1.5139   -0.0946    0.0000 C   0  0  0  0  0  0  0  0  0
   -2.2284    0.3179    0.0000 C   0  0  0  0  0  0  0  0  0
   -2.2284    1.1429    0.0000 C   0  0  0  0  0  0  0  0  0
   -3.0130    1.3978    0.0000 N   0  0  0  0  0  0  0  0  0
   -3.4980    0.7304    0.0000 C   0  0  0  0  0  0  0  0  0
   -3.0130    0.0629    0.0000 C   0  0  0  0  0  0  0  0  0
   -1.5139    1.5554    0.0000 C   0  0  0  0  0  0  0  0  0
   -0.7995    1.1429    0.0000 C   0  0  0  0  0  0  0  0  0
  1  2  1  0  0  0  0
  1 28  1  0  0  0  0
  2  3  1  0  0  0  0
  3  4  1  0  0  0  0
  3  5  1  0  0  0  0
  5  6  1  0  0  0  0
  6  7  1  0  0  0  0
  6 11  1  0  0  0  0
  7  8  1  0  0  0  0
  8  9  1  0  0  0  0
  9 10  1  0  0  0  0
  9 12  1  0  0  0  0
 10 11  1  0  0  0  0
 12 13  1  0  0  0  0
 13 14  1  0  0  0  0
 13 26  1  0  0  0  0
 14 15  2  0  0  0  0
 14 16  1  0  0  0  0
 16 17  4  0  0  0  0
 16 25  4  0  0  0  0
 17 18  4  0  0  0  0
 17 22  4  0  0  0  0
 18 19  4  0  0  0  0
 18 26  1  0  0  0  0
 19 20  4  0  0  0  0
 20 21  4  0  0  0  0
 21 22  4  0  0  0  0
 22 23  4  0  0  0  0
 23 24  4  0  0  0  0
 24 25  4  0  0  0  0
 26 27  2  0  0  0  0
 28 29  4  0  0  0  0
 28 36  4  0  0  0  0
 29 30  4  0  0  0  0
 30 31  4  0  0  0  0
 30 34  4  0  0  0  0
 31 32  4  0  0  0  0
 31 35  4  0  0  0  0
 32 33  4  0  0  0  0
 33 34  4  0  0  0  0
 35 36  4  0  0  0  0
M  STY  1   1 DAT
M  SAL   1  1  32
M  SDT   1 MRV_IMPLICIT_H                                        
M  SDD   1     0.0000    0.0000    DR    ALL  0       0  
M  SED   1 IMPL_H1
M  END
>  <Name_Molregno>
630771

>  <Beta-1>
5.34

>  <Beta-2>
5.9

$$$$
630772
  Marvin  02231216192D 0   1.00000     0.00000     0

 36 41  0  0  1  0  0  0  0  0999 V2000
   -0.0873    0.1356    0.0000 O   0  0  0  0  0  0  0  0  0
    0.6272    0.5481    0.0000 C   0  0  0  0  0  0  0  0  0
    1.3417    0.1356    0.0000 C   0  0  0  0  0  0  0  0  0
    1.3417   -0.6894    0.0000 O   0  0  0  0  0  0  0  0  0
    2.0562    0.5481    0.0000 C   0  0  0  0  0  0  0  0  0
    2.7706    0.1356    0.0000 N   0  0  0  0  0  0  0  0  0
    3.4851    0.5481    0.0000 C   0  0  0  0  0  0  0  0  0
    4.1996    0.1356    0.0000 C   0  0  0  0  0  0  0  0  0
    4.1996   -0.6894    0.0000 C   0  0  0  0  0  0  0  0  0
    3.4851   -1.1019    0.0000 C   0  0  0  0  0  0  0  0  0
    2.7706   -0.6894    0.0000 C   0  0  0  0  0  0  0  0  0
    4.9140   -1.1019    0.0000 C   0  0  0  0  0  0  0  0  0
    5.6285   -0.6894    0.0000 N   0  0  0  0  0  0  0  0  0
    6.3430   -1.1019    0.0000 C   0  0  0  0  0  0  0  0  0
    6.3430   -1.9269    0.0000 O   0  0  0  0  0  0  0  0  0
    7.0575   -0.6894    0.0000 C   0  0  0  0  0  0  0  0  0
    7.0575    0.1356    0.0000 C   0  0  0  0  0  0  0  0  0
    6.3430    0.5481    0.0000 C   0  0  0  0  0  0  0  0  0
    6.3430    1.3731    0.0000 C   0  0  0  0  0  0  0  0  0
    7.0575    1.7856    0.0000 C   0  0  0  0  0  0  0  0  0
    7.7719    1.3731    0.0000 C   0  0  0  0  0  0  0  0  0
    7.7719    0.5481    0.0000 C   0  0  0  0  0  0  0  0  0
    8.4864    0.1356    0.0000 C   0  0  0  0  0  0  0  0  0
    8.4864   -0.6894    0.0000 C   0  0  0  0  0  0  0  0  0
    7.7719   -1.1019    0.0000 C   0  0  0  0  0  0  0  0  0
    5.6285    0.1356    0.0000 C   0  0  0  0  0  0  0  0  0
    4.9140    0.5481    0.0000 O   0  0  0  0  0  0  0  0  0
   -0.8017    0.5481    0.0000 C   0  0  0  0  0  0  0  0  0
   -1.5162    0.1356    0.0000 C   0  0  0  0  0  0  0  0  0
   -2.2307    0.5481    0.0000 C   0  0  0  0  0  0  0  0  0
   -2.8438   -0.0040    0.0000 N   0  0  0  0  0  0  0  0  0
   -2.5082   -0.7576    0.0000 C   0  0  0  0  0  0  0  0  0
   -1.6877   -0.6714    0.0000 C   0  0  0  0  0  0  0  0  0
   -2.2307    1.3731    0.0000 C   0  0  0  0  0  0  0  0  0
   -1.5162    1.7856    0.0000 C   0  0  0  0  0  0  0  0  0
   -0.8017    1.3731    0.0000 C   0  0  0  0  0  0  0  0  0
  1  2  1  0  0  0  0
  1 28  1  0  0  0  0
  2  3  1  0  0  0  0
  3  4  1  0  0  0  0
  3  5  1  0  0  0  0
  5  6  1  0  0  0  0
  6  7  1  0  0  0  0
  6 11  1  0  0  0  0
  7  8  1  0  0  0  0
  8  9  1  0  0  0  0
  9 10  1  0  0  0  0
  9 12  1  0  0  0  0
 10 11  1  0  0  0  0
 12 13  1  0  0  0  0
 13 14  1  0  0  0  0
 13 26  1  0  0  0  0
 14 15  2  0  0  0  0
 14 16  1  0  0  0  0
 16 17  4  0  0  0  0
 16 25  4  0  0  0  0
 17 18  4  0  0  0  0
 17 22  4  0  0  0  0
 18 19  4  0  0  0  0
 18 26  1  0  0  0  0
 19 20  4  0  0  0  0
 20 21  4  0  0  0  0
 21 22  4  0  0  0  0
 22 23  4  0  0  0  0
 23 24  4  0  0  0  0
 24 25  4  0  0  0  0
 26 27  2  0  0  0  0
 28 29  4  0  0  0  0
 28 36  4  0  0  0  0
 29 30  4  0  0  0  0
 29 33  4  0  0  0  0
 30 31  4  0  0  0  0
 30 34  4  0  0  0  0
 31 32  4  0  0  0  0
 32 33  4  0  0  0  0
 34 35  4  0  0  0  0
 35 36  4  0  0  0  0
M  STY  1   1 DAT
M  SAL   1  1  31
M  SDT   1 MRV_IMPLICIT_H                                        
M  SDD   1     0.0000    0.0000    DR    ALL  0       0  
M  SED   1 IMPL_H1
M  END
>  <Name_Molregno>
630772

>  <Beta-1>
7.57

>  <Beta-2>
6.92

$$$$
630818
  Marvin  02231216192D 0   1.00000     0.00000     0

 40 46  0  0  1  0  0  0  0  0999 V2000
   -0.0752    0.0140    0.0000 O   0  0  0  0  0  0  0  0  0
    0.6393   -0.3985    0.0000 C   0  0  0  0  0  0  0  0  0
    1.3537    0.0140    0.0000 C   0  0  0  0  0  0  0  0  0
    1.3537    0.8390    0.0000 O   0  0  0  0  0  0  0  0  0
    2.0682   -0.3985    0.0000 C   0  0  0  0  0  0  0  0  0
    2.7827    0.0140    0.0000 N   0  0  0  0  0  0  0  0  0
    2.7827    0.8390    0.0000 C   0  0  0  0  0  0  0  0  0
    3.4971    1.2515    0.0000 C   0  0  0  0  0  0  0  0  0
    4.2116    0.8390    0.0000 C   0  0  0  0  0  0  0  0  0
    4.2116    0.0140    0.0000 C   0  0  0  0  0  0  0  0  0
    3.4971   -0.3985    0.0000 C   0  0  0  0  0  0  0  0  0
    4.9261    1.2515    0.0000 C   0  0  0  0  0  0  0  0  0
    5.6406    0.8390    0.0000 N   0  0  0  0  0  0  0  0  0
    5.6406    0.0140    0.0000 C   0  0  0  0  0  0  0  0  0
    4.9261   -0.3985    0.0000 O   0  0  0  0  0  0  0  0  0
    6.3550   -0.3985    0.0000 C   0  0  0  0  0  0  0  0  0
    7.0695    0.0140    0.0000 C   0  0  0  0  0  0  0  0  0
    7.0695    0.8390    0.0000 C   0  0  0  0  0  0  0  0  0
    7.7840    1.2515    0.0000 C   0  0  0  0  0  0  0  0  0
    8.4984    0.8390    0.0000 C   0  0  0  0  0  0  0  0  0
    8.4984    0.0140    0.0000 C   0  0  0  0  0  0  0  0  0
    7.7840   -0.3985    0.0000 C   0  0  0  0  0  0  0  0  0
    7.7840   -1.2235    0.0000 C   0  0  0  0  0  0  0  0  0
    7.0695   -1.6360    0.0000 C   0  0  0  0  0  0  0  0  0
    6.3550   -1.2235    0.0000 C   0  0  0  0  0  0  0  0  0
    6.3550    1.2515    0.0000 C   0  0  0  0  0  0  0  0  0
    6.3550    2.0765    0.0000 O   0  0  0  0  0  0  0  0  0
   -0.7897   -0.3985    0.0000 C   0  0  0  0  0  0  0  0  0
   -1.5042    0.0140    0.0000 C   0  0  0  0  0  0  0  0  0
   -1.6757    0.8209    0.0000 C   0  0  0  0  0  0  0  0  0
   -2.4962    0.9072    0.0000 C   0  0  0  0  0  0  0  0  0
   -2.8317    0.1535    0.0000 N   0  0  0  0  0  0  0  0  0
   -2.2186   -0.3985    0.0000 C   0  0  0  0  0  0  0  0  0
   -2.2186   -1.2235    0.0000 C   0  0  0  0  0  0  0  0  0
   -1.5042   -1.6360    0.0000 C   0  0  0  0  0  0  0  0  0
   -0.7897   -1.2235    0.0000 C   0  0  0  0  0  0  0  0  0
   -2.8317    1.6609    0.0000 C   0  0  0  0  0  0  0  0  0
   -2.3468    2.3283    0.0000 C   0  0  0  0  0  0  0  0  0
   -1.5263    2.2421    0.0000 C   0  0  0  0  0  0  0  0  0
   -1.1908    1.4884    0.0000 C   0  0  0  0  0  0  0  0  0
  1  2  1  0  0  0  0
  1 28  1  0  0  0  0
  2  3  1  0  0  0  0
  3  4  1  0  0  0  0
  3  5  1  0  0  0  0
  5  6  1  0  0  0  0
  6  7  1  0  0  0  0
  6 11  1  0  0  0  0
  7  8  1  0  0  0  0
  8  9  1  0  0  0  0
  9 10  1  0  0  0  0
  9 12  1  0  0  0  0
 10 11  1  0  0  0  0
 12 13  1  0  0  0  0
 13 14  1  0  0  0  0
 13 26  1  0  0  0  0
 14 15  2  0  0  0  0
 14 16  1  0  0  0  0
 16 17  4  0  0  0  0
 16 25  4  0  0  0  0
 17 18  4  0  0  0  0
 17 22  4  0  0  0  0
 18 19  4  0  0  0  0
 18 26  1  0  0  0  0
 19 20  4  0  0  0  0
 20 21  4  0  0  0  0
 21 22  4  0  0  0  0
 22 23  4  0  0  0  0
 23 24  4  0  0  0  0
 24 25  4  0  0  0  0
 26 27  2  0  0  0  0
 28 29  4  0  0  0  0
 28 36  4  0  0  0  0
 29 30  4  0  0  0  0
 29 33  4  0  0  0  0
 30 31  4  0  0  0  0
 30 40  4  0  0  0  0
 31 32  4  0  0  0  0
 31 37  4  0  0  0  0
 32 33  4  0  0  0  0
 33 34  4  0  0  0  0
 34 35  4  0  0  0  0
 35 36  4  0  0  0  0
 37 38  4  0  0  0  0
 38 39  4  0  0  0  0
 39 40  4  0  0  0  0
M  STY  1   1 DAT
M  SAL   1  1  32
M  SDT   1 MRV_IMPLICIT_H                                        
M  SDD   1     0.0000    0.0000    DR    ALL  0       0  
M  SED   1 IMPL_H1
M  END
>  <Name_Molregno>
630818

>  <Beta-1>
8.15

>  <Beta-2>
8.52

$$$$
630819
  Marvin  02231216192D 0   1.00000     0.00000     0

 38 42  0  0  1  0  0  0  0  0999 V2000
    0.8467   -1.6531    0.0000 O   0  0  0  0  0  0  0  0  0
    0.8467   -0.8281    0.0000 C   0  0  0  0  0  0  0  0  0
    1.5611   -0.4156    0.0000 C   0  0  0  0  0  0  0  0  0
    2.2756   -0.8281    0.0000 O   0  0  0  0  0  0  0  0  0
    1.5611    0.4094    0.0000 C   0  0  0  0  0  0  0  0  0
    2.2756    0.8219    0.0000 N   0  0  0  0  0  0  0  0  0
    2.2756    1.6469    0.0000 C   0  0  0  0  0  0  0  0  0
    2.9901    2.0594    0.0000 C   0  0  0  0  0  0  0  0  0
    3.7046    1.6469    0.0000 N   0  0  0  0  0  0  0  0  0
    3.7046    0.8219    0.0000 C   0  0  0  0  0  0  0  0  0
    2.9901    0.4094    0.0000 C   0  0  0  0  0  0  0  0  0
    4.4190    2.0594    0.0000 C   0  0  0  0  0  0  0  0  0
    5.1335    1.6469    0.0000 C   0  0  0  0  0  0  0  0  0
    5.8480    2.0594    0.0000 N   0  0  0  0  0  0  0  0  0
    6.5624    1.6469    0.0000 C   0  0  0  0  0  0  0  0  0
    6.5624    0.8219    0.0000 O   0  0  0  0  0  0  0  0  0
    7.2769    2.0594    0.0000 C   0  0  0  0  0  0  0  0  0
    7.2769    2.8844    0.0000 C   0  0  0  0  0  0  0  0  0
    6.5624    3.2969    0.0000 C   0  0  0  0  0  0  0  0  0
    6.5624    4.1219    0.0000 C   0  0  0  0  0  0  0  0  0
    7.2769    4.5344    0.0000 C   0  0  0  0  0  0  0  0  0
    7.9914    4.1219    0.0000 C   0  0  0  0  0  0  0  0  0
    7.9914    3.2969    0.0000 C   0  0  0  0  0  0  0  0  0
    8.7059    2.8844    0.0000 C   0  0  0  0  0  0  0  0  0
    8.7059    2.0594    0.0000 C   0  0  0  0  0  0  0  0  0
    7.9914    1.6469    0.0000 C   0  0  0  0  0  0  0  0  0
    5.8480    2.8844    0.0000 C   0  0  0  0  0  0  0  0  0
    5.1335    3.2969    0.0000 O   0  0  0  0  0  0  0  0  0
    0.1322   -2.0656    0.0000 C   0  0  0  0  0  0  0  0  0
    0.1322   -2.8906    0.0000 C   0  0  0  0  0  0  0  0  0
   -0.5823   -3.3031    0.0000 C   0  0  0  0  0  0  0  0  0
   -1.2967   -2.8906    0.0000 C   0  0  0  0  0  0  0  0  0
   -1.2967   -2.0656    0.0000 C   0  0  0  0  0  0  0  0  0
   -0.5823   -1.6531    0.0000 C   0  0  0  0  0  0  0  0  0
   -0.5823   -0.8281    0.0000 C   0  0  0  0  0  0  0  0  0
   -1.2967   -0.4156    0.0000 C   0  0  0  0  0  0  0  0  0
    0.1322   -0.4156    0.0000 C   0  0  0  0  0  0  0  0  0
   -0.5823   -4.1281    0.0000 C   0  0  0  0  0  0  0  0  0
  1  2  1  0  0  0  0
  1 29  1  0  0  0  0
  2  3  1  0  0  0  0
  3  4  1  0  0  0  0
  3  5  1  0  0  0  0
  5  6  1  0  0  0  0
  6  7  1  0  0  0  0
  6 11  1  0  0  0  0
  7  8  1  0  0  0  0
  8  9  1  0  0  0  0
  9 10  1  0  0  0  0
  9 12  1  0  0  0  0
 10 11  1  0  0  0  0
 12 13  1  0  0  0  0
 13 14  1  0  0  0  0
 14 15  1  0  0  0  0
 14 27  1  0  0  0  0
 15 16  2  0  0  0  0
 15 17  1  0  0  0  0
 17 18  4  0  0  0  0
 17 26  4  0  0  0  0
 18 19  4  0  0  0  0
 18 23  4  0  0  0  0
 19 20  4  0  0  0  0
 19 27  1  0  0  0  0
 20 21  4  0  0  0  0
 21 22  4  0  0  0  0
 22 23  4  0  0  0  0
 23 24  4  0  0  0  0
 24 25  4  0  0  0  0
 25 26  4  0  0  0  0
 27 28  2  0  0  0  0
 29 30  4  0  0  0  0
 29 34  4  0  0  0  0
 30 31  4  0  0  0  0
 31 32  4  0  0  0  0
 31 38  1  0  0  0  0
 32 33  4  0  0  0  0
 33 34  4  0  0  0  0
 34 35  1  0  0  0  0
 35 36  1  0  0  0  0
 35 37  1  0  0  0  0
M  END
>  <Name_Molregno>
630819

>  <Beta-2>
6.96

$$$$
630820
  Marvin  02231216192D 0   1.00000     0.00000     0

 37 41  0  0  1  0  0  0  0  0999 V2000
   -0.0763    0.0048    0.0000 O   0  0  0  0  0  0  0  0  0
    0.6381   -0.4077    0.0000 C   0  0  0  0  0  0  0  0  0
    1.3526    0.0048    0.0000 C   0  0  0  0  0  0  0  0  0
    1.3526    0.8298    0.0000 O   0  0  0  0  0  0  0  0  0
    2.0671   -0.4077    0.0000 C   0  0  0  0  0  0  0  0  0
    2.7816    0.0048    0.0000 N   0  0  0  0  0  0  0  0  0
    2.7816    0.8298    0.0000 C   0  0  0  0  0  0  0  0  0
    3.4960    1.2423    0.0000 C   0  0  0  0  0  0  0  0  0
    4.2105    0.8298    0.0000 N   0  0  0  0  0  0  0  0  0
    4.2105    0.0048    0.0000 C   0  0  0  0  0  0  0  0  0
    3.4960   -0.4077    0.0000 C   0  0  0  0  0  0  0  0  0
    4.9250    1.2423    0.0000 C   0  0  0  0  0  0  0  0  0
    5.6394    0.8298    0.0000 C   0  0  0  0  0  0  0  0  0
    6.3539    1.2423    0.0000 N   0  0  0  0  0  0  0  0  0
    7.0684    0.8298    0.0000 C   0  0  0  0  0  0  0  0  0
    7.0684    0.0048    0.0000 O   0  0  0  0  0  0  0  0  0
    7.7828    1.2423    0.0000 C   0  0  0  0  0  0  0  0  0
    7.7828    2.0673    0.0000 C   0  0  0  0  0  0  0  0  0
    7.0684    2.4798    0.0000 C   0  0  0  0  0  0  0  0  0
    7.0684    3.3048    0.0000 C   0  0  0  0  0  0  0  0  0
    7.7828    3.7173    0.0000 C   0  0  0  0  0  0  0  0  0
    8.4973    3.3048    0.0000 C   0  0  0  0  0  0  0  0  0
    8.4973    2.4798    0.0000 C   0  0  0  0  0  0  0  0  0
    9.2118    2.0673    0.0000 C   0  0  0  0  0  0  0  0  0
    9.2118    1.2423    0.0000 C   0  0  0  0  0  0  0  0  0
    8.4973    0.8298    0.0000 C   0  0  0  0  0  0  0  0  0
    6.3539    2.0673    0.0000 C   0  0  0  0  0  0  0  0  0
    5.6394    2.4798    0.0000 O   0  0  0  0  0  0  0  0  0
   -0.7908   -0.4077    0.0000 C   0  0  0  0  0  0  0  0  0
   -0.7908   -1.2327    0.0000 C   0  0  0  0  0  0  0  0  0
   -1.5053   -1.6452    0.0000 C   0  0  0  0  0  0  0  0  0
   -2.2197   -1.2327    0.0000 C   0  0  0  0  0  0  0  0  0
   -2.2197   -0.4077    0.0000 C   0  0  0  0  0  0  0  0  0
   -1.5053    0.0048    0.0000 C   0  0  0  0  0  0  0  0  0
   -1.5053    0.8298    0.0000 C   0  0  0  0  0  0  0  0  0
   -2.2197    1.2423    0.0000 C   0  0  0  0  0  0  0  0  0
   -2.9342    0.8298    0.0000 C   0  0  0  0  0  0  0  0  0
  1  2  1  0  0  0  0
  1 29  1  0  0  0  0
  2  3  1  0  0  0  0
  3  4  1  0  0  0  0
  3  5  1  0  0  0  0
  5  6  1  0  0  0  0
  6  7  1  0  0  0  0
  6 11  1  0  0  0  0
  7  8  1  0  0  0  0
  8  9  1  0  0  0  0
  9 10  1  0  0  0  0
  9 12  1  0  0  0  0
 10 11  1  0  0  0  0
 12 13  1  0  0  0  0
 13 14  1  0  0  0  0
 14 15  1  0  0  0  0
 14 27  1  0  0  0  0
 15 16  2  0  0  0  0
 15 17  1  0  0  0  0
 17 18  4  0  0  0  0
 17 26  4  0  0  0  0
 18 19  4  0  0  0  0
 18 23  4  0  0  0  0
 19 20  4  0  0  0  0
 19 27  1  0  0  0  0
 20 21  4  0  0  0  0
 21 22  4  0  0  0  0
 22 23  4  0  0  0  0
 23 24  4  0  0  0  0
 24 25  4  0  0  0  0
 25 26  4  0  0  0  0
 27 28  2  0  0  0  0
 29 30  4  0  0  0  0
 29 34  4  0  0  0  0
 30 31  4  0  0  0  0
 31 32  4  0  0  0  0
 32 33  4  0  0  0  0
 33 34  4  0  0  0  0
 34 35  1  0  0  0  0
 35 36  1  0  0  0  0
 36 37  2  0  0  0  0
M  END
>  <Name_Molregno>
630820

>  <Beta-1>
6.53

>  <Beta-2>
6.82

$$$$
630860
  Marvin  02231216192D 0   1.00000     0.00000     0

 37 41  0  0  1  0  0  0  0  0999 V2000
    0.8664   -3.3939    0.0000 O   0  0  0  0  0  0  0  0  0
    0.8664   -2.5689    0.0000 C   0  0  0  0  0  0  0  0  0
    1.5808   -2.1564    0.0000 C   0  0  0  0  0  0  0  0  0
    2.2953   -2.5689    0.0000 O   0  0  0  0  0  0  0  0  0
    1.5808   -1.3314    0.0000 C   0  0  0  0  0  0  0  0  0
    2.2953   -0.9189    0.0000 N   0  0  0  0  0  0  0  0  0
    2.2953   -0.0939    0.0000 C   0  0  0  0  0  0  0  0  0
    3.0098    0.3186    0.0000 C   0  0  0  0  0  0  0  0  0
    3.7243   -0.0939    0.0000 N   0  0  0  0  0  0  0  0  0
    3.7243   -0.9189    0.0000 C   0  0  0  0  0  0  0  0  0
    3.0098   -1.3314    0.0000 C   0  0  0  0  0  0  0  0  0
    4.4387    0.3186    0.0000 C   0  0  0  0  0  0  0  0  0
    5.1532   -0.0939    0.0000 C   0  0  0  0  0  0  0  0  0
    5.8677    0.3186    0.0000 N   0  0  0  0  0  0  0  0  0
    6.5821   -0.0939    0.0000 C   0  0  0  0  0  0  0  0  0
    6.5821   -0.9189    0.0000 O   0  0  0  0  0  0  0  0  0
    7.2966    0.3186    0.0000 C   0  0  0  0  0  0  0  0  0
    7.2966    1.1436    0.0000 C   0  0  0  0  0  0  0  0  0
    6.5821    1.5561    0.0000 C   0  0  0  0  0  0  0  0  0
    6.5821    2.3811    0.0000 C   0  0  0  0  0  0  0  0  0
    7.2966    2.7936    0.0000 C   0  0  0  0  0  0  0  0  0
    8.0111    2.3811    0.0000 C   0  0  0  0  0  0  0  0  0
    8.0111    1.5561    0.0000 C   0  0  0  0  0  0  0  0  0
    8.7256    1.1436    0.0000 C   0  0  0  0  0  0  0  0  0
    8.7256    0.3186    0.0000 C   0  0  0  0  0  0  0  0  0
    8.0111   -0.0939    0.0000 C   0  0  0  0  0  0  0  0  0
    5.8677    1.1436    0.0000 C   0  0  0  0  0  0  0  0  0
    5.1532    1.5561    0.0000 O   0  0  0  0  0  0  0  0  0
    0.1519   -3.8064    0.0000 C   0  0  0  0  0  0  0  0  0
    0.1519   -4.6314    0.0000 C   0  0  0  0  0  0  0  0  0
   -0.5626   -5.0439    0.0000 C   0  0  0  0  0  0  0  0  0
   -1.2770   -4.6314    0.0000 C   0  0  0  0  0  0  0  0  0
   -1.2770   -3.8064    0.0000 C   0  0  0  0  0  0  0  0  0
   -0.5626   -3.3939    0.0000 C   0  0  0  0  0  0  0  0  0
   -0.5626   -2.5689    0.0000 C   0  0  0  0  0  0  0  0  0
   -1.2770   -2.1564    0.0000 C   0  0  0  0  0  0  0  0  0
    0.1519   -2.1564    0.0000 C   0  0  0  0  0  0  0  0  0
  1  2  1  0  0  0  0
  1 29  1  0  0  0  0
  2  3  1  0  0  0  0
  3  4  1  0  0  0  0
  3  5  1  0  0  0  0
  5  6  1  0  0  0  0
  6  7  1  0  0  0  0
  6 11  1  0  0  0  0
  7  8  1  0  0  0  0
  8  9  1  0  0  0  0
  9 10  1  0  0  0  0
  9 12  1  0  0  0  0
 10 11  1  0  0  0  0
 12 13  1  0  0  0  0
 13 14  1  0  0  0  0
 14 15  1  0  0  0  0
 14 27  1  0  0  0  0
 15 16  2  0  0  0  0
 15 17  1  0  0  0  0
 17 18  4  0  0  0  0
 17 26  4  0  0  0  0
 18 19  4  0  0  0  0
 18 23  4  0  0  0  0
 19 20  4  0  0  0  0
 19 27  1  0  0  0  0
 20 21  4  0  0  0  0
 21 22  4  0  0  0  0
 22 23  4  0  0  0  0
 23 24  4  0  0  0  0
 24 25  4  0  0  0  0
 25 26  4  0  0  0  0
 27 28  2  0  0  0  0
 29 30  4  0  0  0  0
 29 34  4  0  0  0  0
 30 31  4  0  0  0  0
 31 32  4  0  0  0  0
 32 33  4  0  0  0  0
 33 34  4  0  0  0  0
 34 35  1  0  0  0  0
 35 36  1  0  0  0  0
 35 37  1  0  0  0  0
M  END
>  <Name_Molregno>
630860

>  <Beta-1>
6.13

>  <Beta-2>
7.15

$$$$
630861
  Marvin  02231216192D 0   1.00000     0.00000     0

 35 39  0  0  1  0  0  0  0  0999 V2000
   -0.0282   -1.5986    0.0000 O   0  0  0  0  0  0  0  0  0
    0.6863   -2.0111    0.0000 C   0  0  0  0  0  0  0  0  0
    1.4008   -1.5986    0.0000 C   0  0  0  0  0  0  0  0  0
    1.4008   -0.7736    0.0000 O   0  0  0  0  0  0  0  0  0
    2.1152   -2.0111    0.0000 C   0  0  0  0  0  0  0  0  0
    2.8297   -1.5986    0.0000 N   0  0  0  0  0  0  0  0  0
    2.8297   -0.7736    0.0000 C   0  0  0  0  0  0  0  0  0
    3.5442   -0.3611    0.0000 C   0  0  0  0  0  0  0  0  0
    4.2586   -0.7736    0.0000 C   0  0  0  0  0  0  0  0  0
    4.9731   -0.3611    0.0000 N   0  0  0  0  0  0  0  0  0
    5.6876   -0.7736    0.0000 C   0  0  0  0  0  0  0  0  0
    5.6876   -1.5986    0.0000 O   0  0  0  0  0  0  0  0  0
    6.4021   -0.3611    0.0000 C   0  0  0  0  0  0  0  0  0
    6.4021    0.4639    0.0000 C   0  0  0  0  0  0  0  0  0
    5.6876    0.8764    0.0000 C   0  0  0  0  0  0  0  0  0
    5.6876    1.7014    0.0000 C   0  0  0  0  0  0  0  0  0
    6.4021    2.1139    0.0000 C   0  0  0  0  0  0  0  0  0
    7.1165    1.7014    0.0000 C   0  0  0  0  0  0  0  0  0
    7.1165    0.8764    0.0000 C   0  0  0  0  0  0  0  0  0
    7.8310    0.4639    0.0000 C   0  0  0  0  0  0  0  0  0
    7.8310   -0.3611    0.0000 C   0  0  0  0  0  0  0  0  0
    7.1165   -0.7736    0.0000 C   0  0  0  0  0  0  0  0  0
    4.9731    0.4639    0.0000 C   0  0  0  0  0  0  0  0  0
    4.2586    0.8764    0.0000 O   0  0  0  0  0  0  0  0  0
    4.2586   -1.5986    0.0000 C   0  0  0  0  0  0  0  0  0
    3.5442   -2.0111    0.0000 C   0  0  0  0  0  0  0  0  0
   -0.7427   -2.0111    0.0000 C   0  0  0  0  0  0  0  0  0
   -0.7427   -2.8361    0.0000 C   0  0  0  0  0  0  0  0  0
   -1.4571   -3.2486    0.0000 C   0  0  0  0  0  0  0  0  0
   -2.1716   -2.8361    0.0000 C   0  0  0  0  0  0  0  0  0
   -2.1716   -2.0111    0.0000 C   0  0  0  0  0  0  0  0  0
   -1.4571   -1.5986    0.0000 C   0  0  0  0  0  0  0  0  0
   -1.4571   -0.7736    0.0000 C   0  0  0  0  0  0  0  0  0
   -2.1716   -0.3611    0.0000 C   0  0  0  0  0  0  0  0  0
   -2.8861   -0.7736    0.0000 C   0  0  0  0  0  0  0  0  0
  1  2  1  0  0  0  0
  1 27  1  0  0  0  0
  2  3  1  0  0  0  0
  3  4  1  0  0  0  0
  3  5  1  0  0  0  0
  5  6  1  0  0  0  0
  6  7  1  0  0  0  0
  6 26  1  0  0  0  0
  7  8  1  0  0  0  0
  8  9  1  0  0  0  0
  9 10  1  0  0  0  0
  9 25  1  0  0  0  0
 10 11  1  0  0  0  0
 10 23  1  0  0  0  0
 11 12  2  0  0  0  0
 11 13  1  0  0  0  0
 13 14  4  0  0  0  0
 13 22  4  0  0  0  0
 14 15  4  0  0  0  0
 14 19  4  0  0  0  0
 15 16  4  0  0  0  0
 15 23  1  0  0  0  0
 16 17  4  0  0  0  0
 17 18  4  0  0  0  0
 18 19  4  0  0  0  0
 19 20  4  0  0  0  0
 20 21  4  0  0  0  0
 21 22  4  0  0  0  0
 23 24  2  0  0  0  0
 25 26  1  0  0  0  0
 27 28  4  0  0  0  0
 27 32  4  0  0  0  0
 28 29  4  0  0  0  0
 29 30  4  0  0  0  0
 30 31  4  0  0  0  0
 31 32  4  0  0  0  0
 32 33  1  0  0  0  0
 33 34  1  0  0  0  0
 34 35  2  0  0  0  0
M  END
>  <Name_Molregno>
630861

>  <Beta-1>
5.98

>  <Beta-2>
7.4

$$$$
630862
  Marvin  02231216192D 0   1.00000     0.00000     0

 35 39  0  0  1  0  0  0  0  0999 V2000
    0.8713   -3.2810    0.0000 O   0  0  0  0  0  0  0  0  0
    0.8713   -2.4560    0.0000 C   0  0  0  0  0  0  0  0  0
    1.5857   -2.0435    0.0000 C   0  0  0  0  0  0  0  0  0
    2.3002   -2.4560    0.0000 O   0  0  0  0  0  0  0  0  0
    1.5857   -1.2185    0.0000 C   0  0  0  0  0  0  0  0  0
    2.3002   -0.8060    0.0000 N   0  0  0  0  0  0  0  0  0
    2.3002    0.0190    0.0000 C   0  0  0  0  0  0  0  0  0
    3.0147    0.4315    0.0000 C   0  0  0  0  0  0  0  0  0
    3.7291    0.0190    0.0000 C   0  0  0  0  0  0  0  0  0
    4.4436    0.4315    0.0000 N   0  0  0  0  0  0  0  0  0
    5.1581    0.0190    0.0000 C   0  0  0  0  0  0  0  0  0
    5.1581   -0.8060    0.0000 O   0  0  0  0  0  0  0  0  0
    5.8725    0.4315    0.0000 C   0  0  0  0  0  0  0  0  0
    5.8725    1.2565    0.0000 C   0  0  0  0  0  0  0  0  0
    5.1581    1.6690    0.0000 C   0  0  0  0  0  0  0  0  0
    5.1581    2.4940    0.0000 C   0  0  0  0  0  0  0  0  0
    5.8725    2.9065    0.0000 C   0  0  0  0  0  0  0  0  0
    6.5870    2.4940    0.0000 C   0  0  0  0  0  0  0  0  0
    6.5870    1.6690    0.0000 C   0  0  0  0  0  0  0  0  0
    7.3015    1.2565    0.0000 C   0  0  0  0  0  0  0  0  0
    7.3015    0.4315    0.0000 C   0  0  0  0  0  0  0  0  0
    6.5870    0.0190    0.0000 C   0  0  0  0  0  0  0  0  0
    4.4436    1.2565    0.0000 C   0  0  0  0  0  0  0  0  0
    3.7291    1.6690    0.0000 O   0  0  0  0  0  0  0  0  0
    3.7291   -0.8060    0.0000 C   0  0  0  0  0  0  0  0  0
    3.0147   -1.2185    0.0000 C   0  0  0  0  0  0  0  0  0
    0.1568   -3.6935    0.0000 C   0  0  0  0  0  0  0  0  0
    0.1568   -4.5185    0.0000 C   0  0  0  0  0  0  0  0  0
   -0.5577   -4.9310    0.0000 C   0  0  0  0  0  0  0  0  0
   -1.2722   -4.5185    0.0000 C   0  0  0  0  0  0  0  0  0
   -1.2722   -3.6935    0.0000 C   0  0  0  0  0  0  0  0  0
   -0.5577   -3.2810    0.0000 C   0  0  0  0  0  0  0  0  0
   -0.5577   -2.4560    0.0000 C   0  0  0  0  0  0  0  0  0
   -1.2722   -2.0435    0.0000 C   0  0  0  0  0  0  0  0  0
    0.1568   -2.0435    0.0000 C   0  0  0  0  0  0  0  0  0
  1  2  1  0  0  0  0
  1 27  1  0  0  0  0
  2  3  1  0  0  0  0
  3  4  1  0  0  0  0
  3  5  1  0  0  0  0
  5  6  1  0  0  0  0
  6  7  1  0  0  0  0
  6 26  1  0  0  0  0
  7  8  1  0  0  0  0
  8  9  1  0  0  0  0
  9 10  1  0  0  0  0
  9 25  1  0  0  0  0
 10 11  1  0  0  0  0
 10 23  1  0  0  0  0
 11 12  2  0  0  0  0
 11 13  1  0  0  0  0
 13 14  4  0  0  0  0
 13 22  4  0  0  0  0
 14 15  4  0  0  0  0
 14 19  4  0  0  0  0
 15 16  4  0  0  0  0
 15 23  1  0  0  0  0
 16 17  4  0  0  0  0
 17 18  4  0  0  0  0
 18 19  4  0  0  0  0
 19 20  4  0  0  0  0
 20 21  4  0  0  0  0
 21 22  4  0  0  0  0
 23 24  2  0  0  0  0
 25 26  1  0  0  0  0
 27 28  4  0  0  0  0
 27 32  4  0  0  0  0
 28 29  4  0  0  0  0
 29 30  4  0  0  0  0
 30 31  4  0  0  0  0
 31 32  4  0  0  0  0
 32 33  1  0  0  0  0
 33 34  1  0  0  0  0
 33 35  1  0  0  0  0
M  END
>  <Name_Molregno>
630862

>  <Beta-1>
6.62

>  <Beta-2>
7.89

$$$$
630863
  Marvin  02231216192D 0   1.00000     0.00000     0

 37 41  0  0  1  0  0  0  0  0999 V2000
    1.7422   -2.8678    0.0000 O   0  0  0  0  0  0  0  0  0
    2.4566   -2.4553    0.0000 C   0  0  0  0  0  0  0  0  0
    2.4566   -1.6303    0.0000 C   0  0  0  0  0  0  0  0  0
    1.7422   -1.2178    0.0000 O   0  0  0  0  0  0  0  0  0
    3.1711   -1.2178    0.0000 C   0  0  0  0  0  0  0  0  0
    3.1711   -0.3928    0.0000 N   0  0  0  0  0  0  0  0  0
    2.4566    0.0197    0.0000 C   0  0  0  0  0  0  0  0  0
    2.4566    0.8447    0.0000 C   0  0  0  0  0  0  0  0  0
    3.1711    1.2572    0.0000 C   0  0  0  0  0  0  0  0  0
    3.8856    0.8447    0.0000 C   0  0  0  0  0  0  0  0  0
    3.8856    0.0197    0.0000 C   0  0  0  0  0  0  0  0  0
    3.1711    2.0822    0.0000 C   0  0  0  0  0  0  0  0  0
    3.8856    2.4947    0.0000 N   0  0  0  0  0  0  0  0  0
    4.6000    2.0822    0.0000 C   0  0  0  0  0  0  0  0  0
    4.6000    1.2572    0.0000 O   0  0  0  0  0  0  0  0  0
    5.3145    2.4947    0.0000 C   0  0  0  0  0  0  0  0  0
    6.0290    2.0822    0.0000 C   0  0  0  0  0  0  0  0  0
    6.7435    2.4947    0.0000 C   0  0  0  0  0  0  0  0  0
    7.4579    2.0822    0.0000 O   0  0  0  0  0  0  0  0  0
    6.7435    3.3197    0.0000 C   0  0  0  0  0  0  0  0  0
    6.0290    3.7322    0.0000 C   0  0  0  0  0  0  0  0  0
    5.3145    3.3197    0.0000 C   0  0  0  0  0  0  0  0  0
    4.6000    3.7322    0.0000 C   0  0  0  0  0  0  0  0  0
    4.6000    4.5572    0.0000 C   0  0  0  0  0  0  0  0  0
    5.3145    4.9697    0.0000 C   0  0  0  0  0  0  0  0  0
    6.0290    4.5572    0.0000 C   0  0  0  0  0  0  0  0  0
    3.8856    3.3197    0.0000 C   0  0  0  0  0  0  0  0  0
    3.1711    3.7322    0.0000 O   0  0  0  0  0  0  0  0  0
    1.7422   -3.6928    0.0000 C   0  0  0  0  0  0  0  0  0
    2.4566   -4.1053    0.0000 C   0  0  0  0  0  0  0  0  0
    2.4566   -4.9303    0.0000 C   0  0  0  0  0  0  0  0  0
    1.7422   -5.3428    0.0000 C   0  0  0  0  0  0  0  0  0
    1.0277   -4.9303    0.0000 C   0  0  0  0  0  0  0  0  0
    1.0277   -4.1053    0.0000 C   0  0  0  0  0  0  0  0  0
    0.3132   -3.6928    0.0000 C   0  0  0  0  0  0  0  0  0
   -0.4012   -4.1053    0.0000 C   0  0  0  0  0  0  0  0  0
   -0.4012   -4.9303    0.0000 C   0  0  0  0  0  0  0  0  0
  1  2  1  0  0  0  0
  1 29  1  0  0  0  0
  2  3  1  0  0  0  0
  3  4  1  0  0  0  0
  3  5  1  0  0  0  0
  5  6  1  0  0  0  0
  6  7  1  0  0  0  0
  6 11  1  0  0  0  0
  7  8  1  0  0  0  0
  8  9  1  0  0  0  0
  9 10  1  0  0  0  0
  9 12  1  0  0  0  0
 10 11  1  0  0  0  0
 12 13  1  0  0  0  0
 13 14  1  0  0  0  0
 13 27  1  0  0  0  0
 14 15  2  0  0  0  0
 14 16  1  0  0  0  0
 16 17  4  0  0  0  0
 16 22  4  0  0  0  0
 17 18  4  0  0  0  0
 18 19  1  0  0  0  0
 18 20  4  0  0  0  0
 20 21  4  0  0  0  0
 21 22  4  0  0  0  0
 21 26  4  0  0  0  0
 22 23  4  0  0  0  0
 23 24  4  0  0  0  0
 23 27  1  0  0  0  0
 24 25  4  0  0  0  0
 25 26  4  0  0  0  0
 27 28  2  0  0  0  0
 29 30  4  0  0  0  0
 29 34  4  0  0  0  0
 30 31  4  0  0  0  0
 31 32  4  0  0  0  0
 32 33  4  0  0  0  0
 33 34  4  0  0  0  0
 34 35  1  0  0  0  0
 35 36  1  0  0  0  0
 36 37  2  0  0  0  0
M  END
>  <Name_Molregno>
630863

>  <Beta-1>
6.77

>  <Beta-2>
6.87

$$$$
630899
  Marvin  02231216192D 0   1.00000     0.00000     0

 38 42  0  0  1  0  0  0  0  0999 V2000
    1.7844   -2.9323    0.0000 O   0  0  0  0  0  0  0  0  0
    2.4989   -2.5198    0.0000 C   0  0  0  0  0  0  0  0  0
    2.4989   -1.6948    0.0000 C   0  0  0  0  0  0  0  0  0
    1.7844   -1.2823    0.0000 O   0  0  0  0  0  0  0  0  0
    3.2134   -1.2823    0.0000 C   0  0  0  0  0  0  0  0  0
    3.2134   -0.4573    0.0000 N   0  0  0  0  0  0  0  0  0
    2.4989   -0.0448    0.0000 C   0  0  0  0  0  0  0  0  0
    2.4989    0.7802    0.0000 C   0  0  0  0  0  0  0  0  0
    3.2134    1.1927    0.0000 C   0  0  0  0  0  0  0  0  0
    3.9278    0.7802    0.0000 C   0  0  0  0  0  0  0  0  0
    3.9278   -0.0448    0.0000 C   0  0  0  0  0  0  0  0  0
    3.2134    2.0177    0.0000 C   0  0  0  0  0  0  0  0  0
    3.9278    2.4302    0.0000 N   0  0  0  0  0  0  0  0  0
    4.6423    2.0177    0.0000 C   0  0  0  0  0  0  0  0  0
    4.6423    1.1927    0.0000 O   0  0  0  0  0  0  0  0  0
    5.3568    2.4302    0.0000 C   0  0  0  0  0  0  0  0  0
    6.0713    2.0177    0.0000 C   0  0  0  0  0  0  0  0  0
    6.7857    2.4302    0.0000 C   0  0  0  0  0  0  0  0  0
    7.5002    2.0177    0.0000 O   0  0  0  0  0  0  0  0  0
    8.2147    2.4302    0.0000 C   0  0  0  0  0  0  0  0  0
    6.7857    3.2552    0.0000 C   0  0  0  0  0  0  0  0  0
    6.0713    3.6677    0.0000 C   0  0  0  0  0  0  0  0  0
    5.3568    3.2552    0.0000 C   0  0  0  0  0  0  0  0  0
    4.6423    3.6677    0.0000 C   0  0  0  0  0  0  0  0  0
    4.6423    4.4927    0.0000 C   0  0  0  0  0  0  0  0  0
    5.3568    4.9052    0.0000 C   0  0  0  0  0  0  0  0  0
    6.0713    4.4927    0.0000 C   0  0  0  0  0  0  0  0  0
    3.9278    3.2552    0.0000 C   0  0  0  0  0  0  0  0  0
    3.2134    3.6677    0.0000 O   0  0  0  0  0  0  0  0  0
    1.7844   -3.7573    0.0000 C   0  0  0  0  0  0  0  0  0
    2.4989   -4.1698    0.0000 C   0  0  0  0  0  0  0  0  0
    2.4989   -4.9948    0.0000 C   0  0  0  0  0  0  0  0  0
    1.7844   -5.4073    0.0000 C   0  0  0  0  0  0  0  0  0
    1.0700   -4.9948    0.0000 C   0  0  0  0  0  0  0  0  0
    1.0700   -4.1698    0.0000 C   0  0  0  0  0  0  0  0  0
    0.3555   -3.7573    0.0000 C   0  0  0  0  0  0  0  0  0
   -0.3590   -4.1698    0.0000 C   0  0  0  0  0  0  0  0  0
   -0.3590   -4.9948    0.0000 C   0  0  0  0  0  0  0  0  0
  1  2  1  0  0  0  0
  1 30  1  0  0  0  0
  2  3  1  0  0  0  0
  3  4  1  0  0  0  0
  3  5  1  0  0  0  0
  5  6  1  0  0  0  0
  6  7  1  0  0  0  0
  6 11  1  0  0  0  0
  7  8  1  0  0  0  0
  8  9  1  0  0  0  0
  9 10  1  0  0  0  0
  9 12  1  0  0  0  0
 10 11  1  0  0  0  0
 12 13  1  0  0  0  0
 13 14  1  0  0  0  0
 13 28  1  0  0  0  0
 14 15  2  0  0  0  0
 14 16  1  0  0  0  0
 16 17  4  0  0  0  0
 16 23  4  0  0  0  0
 17 18  4  0  0  0  0
 18 19  1  0  0  0  0
 18 21  4  0  0  0  0
 19 20  1  0  0  0  0
 21 22  4  0  0  0  0
 22 23  4  0  0  0  0
 22 27  4  0  0  0  0
 23 24  4  0  0  0  0
 24 25  4  0  0  0  0
 24 28  1  0  0  0  0
 25 26  4  0  0  0  0
 26 27  4  0  0  0  0
 28 29  2  0  0  0  0
 30 31  4  0  0  0  0
 30 35  4  0  0  0  0
 31 32  4  0  0  0  0
 32 33  4  0  0  0  0
 33 34  4  0  0  0  0
 34 35  4  0  0  0  0
 35 36  1  0  0  0  0
 36 37  1  0  0  0  0
 37 38  2  0  0  0  0
M  END
>  <Name_Molregno>
630899

>  <Beta-1>
6.52

>  <Beta-2>
7.11

$$$$
630900
  Marvin  02231216192D 0   1.00000     0.00000     0

 38 42  0  0  1  0  0  0  0  0999 V2000
   -0.2289    0.0663    0.0000 O   0  0  0  0  0  0  0  0  0
    0.4856    0.4788    0.0000 C   0  0  0  0  0  0  0  0  0
    1.2000    0.0663    0.0000 C   0  0  0  0  0  0  0  0  0
    1.2000   -0.7587    0.0000 O   0  0  0  0  0  0  0  0  0
    1.9145    0.4788    0.0000 C   0  0  0  0  0  0  0  0  0
    2.6290    0.0663    0.0000 N   0  0  0  0  0  0  0  0  0
    3.3435    0.4788    0.0000 C   0  0  0  0  0  0  0  0  0
    4.0579    0.0663    0.0000 C   0  0  0  0  0  0  0  0  0
    4.0579   -0.7587    0.0000 C   0  0  0  0  0  0  0  0  0
    3.3435   -1.1712    0.0000 C   0  0  0  0  0  0  0  0  0
    2.6290   -0.7587    0.0000 C   0  0  0  0  0  0  0  0  0
    4.7724   -1.1712    0.0000 C   0  0  0  0  0  0  0  0  0
    5.4869   -0.7587    0.0000 N   0  0  0  0  0  0  0  0  0
    6.2013   -1.1712    0.0000 C   0  0  0  0  0  0  0  0  0
    6.2013   -1.9962    0.0000 O   0  0  0  0  0  0  0  0  0
    6.9158   -0.7587    0.0000 C   0  0  0  0  0  0  0  0  0
    7.6303   -1.1712    0.0000 C   0  0  0  0  0  0  0  0  0
    8.3448   -0.7587    0.0000 C   0  0  0  0  0  0  0  0  0
    9.0592   -1.1712    0.0000 O   0  0  0  0  0  0  0  0  0
    9.7737   -0.7587    0.0000 C   0  0  0  0  0  0  0  0  0
    8.3448    0.0663    0.0000 C   0  0  0  0  0  0  0  0  0
    7.6303    0.4788    0.0000 C   0  0  0  0  0  0  0  0  0
    6.9158    0.0663    0.0000 C   0  0  0  0  0  0  0  0  0
    6.2013    0.4788    0.0000 C   0  0  0  0  0  0  0  0  0
    6.2013    1.3038    0.0000 C   0  0  0  0  0  0  0  0  0
    6.9158    1.7163    0.0000 C   0  0  0  0  0  0  0  0  0
    7.6303    1.3038    0.0000 C   0  0  0  0  0  0  0  0  0
    5.4869    0.0663    0.0000 C   0  0  0  0  0  0  0  0  0
    4.7724    0.4788    0.0000 O   0  0  0  0  0  0  0  0  0
   -0.9434    0.4788    0.0000 C   0  0  0  0  0  0  0  0  0
   -1.6578    0.0663    0.0000 C   0  0  0  0  0  0  0  0  0
   -2.3723    0.4788    0.0000 C   0  0  0  0  0  0  0  0  0
   -2.3723    1.3038    0.0000 C   0  0  0  0  0  0  0  0  0
   -1.6578    1.7163    0.0000 C   0  0  0  0  0  0  0  0  0
   -0.9434    1.3038    0.0000 C   0  0  0  0  0  0  0  0  0
   -0.2289    1.7163    0.0000 C   0  0  0  0  0  0  0  0  0
   -0.2289    2.5413    0.0000 C   0  0  0  0  0  0  0  0  0
    0.4856    1.3038    0.0000 C   0  0  0  0  0  0  0  0  0
  1  2  1  0  0  0  0
  1 30  1  0  0  0  0
  2  3  1  0  0  0  0
  3  4  1  0  0  0  0
  3  5  1  0  0  0  0
  5  6  1  0  0  0  0
  6  7  1  0  0  0  0
  6 11  1  0  0  0  0
  7  8  1  0  0  0  0
  8  9  1  0  0  0  0
  9 10  1  0  0  0  0
  9 12  1  0  0  0  0
 10 11  1  0  0  0  0
 12 13  1  0  0  0  0
 13 14  1  0  0  0  0
 13 28  1  0  0  0  0
 14 15  2  0  0  0  0
 14 16  1  0  0  0  0
 16 17  4  0  0  0  0
 16 23  4  0  0  0  0
 17 18  4  0  0  0  0
 18 19  1  0  0  0  0
 18 21  4  0  0  0  0
 19 20  1  0  0  0  0
 21 22  4  0  0  0  0
 22 23  4  0  0  0  0
 22 27  4  0  0  0  0
 23 24  4  0  0  0  0
 24 25  4  0  0  0  0
 24 28  1  0  0  0  0
 25 26  4  0  0  0  0
 26 27  4  0  0  0  0
 28 29  2  0  0  0  0
 30 31  4  0  0  0  0
 30 35  4  0  0  0  0
 31 32  4  0  0  0  0
 32 33  4  0  0  0  0
 33 34  4  0  0  0  0
 34 35  4  0  0  0  0
 35 36  1  0  0  0  0
 36 37  1  0  0  0  0
 36 38  1  0  0  0  0
M  END
>  <Name_Molregno>
630900

>  <Beta-1>
6.68

>  <Beta-2>
7.42

$$$$
630901
  Marvin  02231216192D 0   1.00000     0.00000     0

 32 35  0  0  1  0  0  0  0  0999 V2000
    0.3946   -1.3875    0.0000 O   0  0  0  0  0  0  0  0  0
    1.2196   -1.3875    0.0000 C   0  0  0  0  0  0  0  0  0
    1.6321   -0.6731    0.0000 C   0  0  0  0  0  0  0  0  0
    1.2196    0.0414    0.0000 O   0  0  0  0  0  0  0  0  0
    2.4571   -0.6731    0.0000 C   0  0  0  0  0  0  0  0  0
    2.8696    0.0414    0.0000 N   0  0  0  0  0  0  0  0  0
    2.4571    0.7559    0.0000 C   0  0  0  0  0  0  0  0  0
    2.8696    1.4703    0.0000 C   0  0  0  0  0  0  0  0  0
    3.6946    1.4703    0.0000 C   0  0  0  0  0  0  0  0  0
    4.1071    0.7559    0.0000 C   0  0  0  0  0  0  0  0  0
    3.6946    0.0414    0.0000 C   0  0  0  0  0  0  0  0  0
    4.1071    2.1848    0.0000 C   0  0  0  0  0  0  0  0  0
    4.9321    2.1848    0.0000 N   0  0  0  0  0  0  0  0  0
    5.4171    1.5174    0.0000 C   0  0  0  0  0  0  0  0  0
    5.1621    0.7327    0.0000 O   0  0  0  0  0  0  0  0  0
    6.2017    1.7723    0.0000 C   0  0  0  0  0  0  0  0  0
    6.2017    2.5973    0.0000 C   0  0  0  0  0  0  0  0  0
    6.9162    3.0098    0.0000 C   0  0  0  0  0  0  0  0  0
    7.6306    2.5973    0.0000 C   0  0  0  0  0  0  0  0  0
    7.6306    1.7723    0.0000 C   0  0  0  0  0  0  0  0  0
    6.9162    1.3598    0.0000 C   0  0  0  0  0  0  0  0  0
    5.4171    2.8522    0.0000 C   0  0  0  0  0  0  0  0  0
    5.1621    3.6369    0.0000 O   0  0  0  0  0  0  0  0  0
   -0.0179   -2.1020    0.0000 C   0  0  0  0  0  0  0  0  0
    0.3946   -2.8165    0.0000 C   0  0  0  0  0  0  0  0  0
   -0.0179   -3.5310    0.0000 C   0  0  0  0  0  0  0  0  0
   -0.8429   -3.5310    0.0000 C   0  0  0  0  0  0  0  0  0
   -1.2554   -2.8165    0.0000 C   0  0  0  0  0  0  0  0  0
   -0.8429   -2.1020    0.0000 C   0  0  0  0  0  0  0  0  0
   -1.2554   -1.3875    0.0000 C   0  0  0  0  0  0  0  0  0
   -2.0804   -1.3875    0.0000 C   0  0  0  0  0  0  0  0  0
   -2.4929   -2.1020    0.0000 C   0  0  0  0  0  0  0  0  0
  1  2  1  0  0  0  0
  1 24  1  0  0  0  0
  2  3  1  0  0  0  0
  3  4  1  0  0  0  0
  3  5  1  0  0  0  0
  5  6  1  0  0  0  0
  6  7  1  0  0  0  0
  6 11  1  0  0  0  0
  7  8  1  0  0  0  0
  8  9  1  0  0  0  0
  9 10  1  0  0  0  0
  9 12  1  0  0  0  0
 10 11  1  0  0  0  0
 12 13  1  0  0  0  0
 13 14  1  0  0  0  0
 13 22  1  0  0  0  0
 14 15  2  0  0  0  0
 14 16  1  0  0  0  0
 16 17  4  0  0  0  0
 16 21  4  0  0  0  0
 17 18  4  0  0  0  0
 17 22  1  0  0  0  0
 18 19  4  0  0  0  0
 19 20  4  0  0  0  0
 20 21  4  0  0  0  0
 22 23  2  0  0  0  0
 24 25  4  0  0  0  0
 24 29  4  0  0  0  0
 25 26  4  0  0  0  0
 26 27  4  0  0  0  0
 27 28  4  0  0  0  0
 28 29  4  0  0  0  0
 29 30  1  0  0  0  0
 30 31  1  0  0  0  0
 31 32  2  0  0  0  0
M  END
>  <Name_Molregno>
630901

>  <Beta-1>
6.72

>  <Beta-2>
7.3

$$$$
630902
  Marvin  02231216192D 0   1.00000     0.00000     0

 32 35  0  0  1  0  0  0  0  0999 V2000
    1.9333   -2.3499    0.0000 O   0  0  0  0  0  0  0  0  0
    1.5208   -1.6355    0.0000 C   0  0  0  0  0  0  0  0  0
    1.9333   -0.9210    0.0000 C   0  0  0  0  0  0  0  0  0
    2.7583   -0.9210    0.0000 O   0  0  0  0  0  0  0  0  0
    1.5208   -0.2065    0.0000 C   0  0  0  0  0  0  0  0  0
    1.9333    0.5079    0.0000 N   0  0  0  0  0  0  0  0  0
    1.5208    1.2224    0.0000 C   0  0  0  0  0  0  0  0  0
    1.9333    1.9369    0.0000 C   0  0  0  0  0  0  0  0  0
    2.7583    1.9369    0.0000 C   0  0  0  0  0  0  0  0  0
    3.1708    1.2224    0.0000 C   0  0  0  0  0  0  0  0  0
    2.7583    0.5079    0.0000 C   0  0  0  0  0  0  0  0  0
    3.1708    2.6514    0.0000 C   0  0  0  0  0  0  0  0  0
    3.9958    2.6514    0.0000 N   0  0  0  0  0  0  0  0  0
    4.4807    1.9839    0.0000 C   0  0  0  0  0  0  0  0  0
    4.2258    1.1993    0.0000 O   0  0  0  0  0  0  0  0  0
    5.2654    2.2389    0.0000 C   0  0  0  0  0  0  0  0  0
    5.2654    3.0639    0.0000 C   0  0  0  0  0  0  0  0  0
    5.9798    3.4764    0.0000 C   0  0  0  0  0  0  0  0  0
    6.6943    3.0639    0.0000 C   0  0  0  0  0  0  0  0  0
    6.6943    2.2389    0.0000 C   0  0  0  0  0  0  0  0  0
    5.9798    1.8264    0.0000 C   0  0  0  0  0  0  0  0  0
    4.4807    3.3188    0.0000 C   0  0  0  0  0  0  0  0  0
    4.2258    4.1034    0.0000 O   0  0  0  0  0  0  0  0  0
    1.5208   -3.0644    0.0000 C   0  0  0  0  0  0  0  0  0
    1.9333   -3.7789    0.0000 C   0  0  0  0  0  0  0  0  0
    1.5208   -4.4933    0.0000 C   0  0  0  0  0  0  0  0  0
    0.6958   -4.4933    0.0000 C   0  0  0  0  0  0  0  0  0
    0.2833   -3.7789    0.0000 C   0  0  0  0  0  0  0  0  0
    0.6958   -3.0644    0.0000 C   0  0  0  0  0  0  0  0  0
    0.2833   -2.3499    0.0000 C   0  0  0  0  0  0  0  0  0
   -0.5417   -2.3499    0.0000 C   0  0  0  0  0  0  0  0  0
    0.6958   -1.6355    0.0000 C   0  0  0  0  0  0  0  0  0
  1  2  1  0  0  0  0
  1 24  1  0  0  0  0
  2  3  1  0  0  0  0
  3  4  1  0  0  0  0
  3  5  1  0  0  0  0
  5  6  1  0  0  0  0
  6  7  1  0  0  0  0
  6 11  1  0  0  0  0
  7  8  1  0  0  0  0
  8  9  1  0  0  0  0
  9 10  1  0  0  0  0
  9 12  1  0  0  0  0
 10 11  1  0  0  0  0
 12 13  1  0  0  0  0
 13 14  1  0  0  0  0
 13 22  1  0  0  0  0
 14 15  2  0  0  0  0
 14 16  1  0  0  0  0
 16 17  4  0  0  0  0
 16 21  4  0  0  0  0
 17 18  4  0  0  0  0
 17 22  1  0  0  0  0
 18 19  4  0  0  0  0
 19 20  4  0  0  0  0
 20 21  4  0  0  0  0
 22 23  2  0  0  0  0
 24 25  4  0  0  0  0
 24 29  4  0  0  0  0
 25 26  4  0  0  0  0
 26 27  4  0  0  0  0
 27 28  4  0  0  0  0
 28 29  4  0  0  0  0
 29 30  1  0  0  0  0
 30 31  1  0  0  0  0
 30 32  1  0  0  0  0
M  END
>  <Name_Molregno>
630902

>  <Beta-1>
6.14

>  <Beta-2>
7.77

$$$$
630946
  Marvin  02231216192D 0   1.00000     0.00000     0

 29 31  0  0  1  0  0  0  0  0999 V2000
   -0.0357    0.0317    0.0000 O   0  0  0  0  0  0  0  0  0
    0.6788   -0.3808    0.0000 C   0  0  0  0  0  0  0  0  0
    1.3932    0.0317    0.0000 C   0  0  0  0  0  0  0  0  0
    1.3932    0.8567    0.0000 O   0  0  0  0  0  0  0  0  0
    2.1077   -0.3808    0.0000 C   0  0  0  0  0  0  0  0  0
    2.8222    0.0317    0.0000 N   0  0  0  0  0  0  0  0  0
    2.8222    0.8567    0.0000 C   0  0  0  0  0  0  0  0  0
    3.5366    1.2692    0.0000 C   0  0  0  0  0  0  0  0  0
    4.2511    0.8567    0.0000 C   0  0  0  0  0  0  0  0  0
    4.2511    0.0317    0.0000 C   0  0  0  0  0  0  0  0  0
    3.5366   -0.3808    0.0000 C   0  0  0  0  0  0  0  0  0
    4.9656    1.2692    0.0000 C   0  0  0  0  0  0  0  0  0
    5.6801    0.8567    0.0000 N   0  0  0  0  0  0  0  0  0
    6.3945    1.2692    0.0000 C   0  0  0  0  0  0  0  0  0
    6.3945    2.0942    0.0000 O   0  0  0  0  0  0  0  0  0
    7.1090    0.8567    0.0000 C   0  0  0  0  0  0  0  0  0
    7.1090    0.0317    0.0000 C   0  0  0  0  0  0  0  0  0
    6.3945   -0.3808    0.0000 C   0  0  0  0  0  0  0  0  0
    5.6801    0.0317    0.0000 C   0  0  0  0  0  0  0  0  0
    4.9656   -0.3808    0.0000 O   0  0  0  0  0  0  0  0  0
   -0.7502   -0.3808    0.0000 C   0  0  0  0  0  0  0  0  0
   -0.7502   -1.2058    0.0000 C   0  0  0  0  0  0  0  0  0
   -1.4646   -1.6183    0.0000 C   0  0  0  0  0  0  0  0  0
   -2.1791   -1.2058    0.0000 C   0  0  0  0  0  0  0  0  0
   -2.1791   -0.3808    0.0000 C   0  0  0  0  0  0  0  0  0
   -1.4646    0.0317    0.0000 C   0  0  0  0  0  0  0  0  0
   -1.4646    0.8567    0.0000 C   0  0  0  0  0  0  0  0  0
   -2.1791    1.2692    0.0000 C   0  0  0  0  0  0  0  0  0
   -2.8936    0.8567    0.0000 C   0  0  0  0  0  0  0  0  0
  1  2  1  0  0  0  0
  1 21  1  0  0  0  0
  2  3  1  0  0  0  0
  3  4  1  0  0  0  0
  3  5  1  0  0  0  0
  5  6  1  0  0  0  0
  6  7  1  0  0  0  0
  6 11  1  0  0  0  0
  7  8  1  0  0  0  0
  8  9  1  0  0  0  0
  9 10  1  0  0  0  0
  9 12  1  0  0  0  0
 10 11  1  0  0  0  0
 12 13  1  0  0  0  0
 13 14  1  0  0  0  0
 13 19  1  0  0  0  0
 14 15  2  0  0  0  0
 14 16  1  0  0  0  0
 16 17  1  0  0  0  0
 17 18  1  0  0  0  0
 18 19  1  0  0  0  0
 19 20  2  0  0  0  0
 21 22  4  0  0  0  0
 21 26  4  0  0  0  0
 22 23  4  0  0  0  0
 23 24  4  0  0  0  0
 24 25  4  0  0  0  0
 25 26  4  0  0  0  0
 26 27  1  0  0  0  0
 27 28  1  0  0  0  0
 28 29  2  0  0  0  0
M  END
>  <Name_Molregno>
630946

>  <Beta-1>
6.36

>  <Beta-2>
7.1

$$$$
630947
  Marvin  02231216192D 0   1.00000     0.00000     0

 29 31  0  0  1  0  0  0  0  0999 V2000
    0.1115    0.7054    0.0000 O   0  0  0  0  0  0  0  0  0
    0.8260    1.1179    0.0000 C   0  0  0  0  0  0  0  0  0
    1.5405    0.7054    0.0000 C   0  0  0  0  0  0  0  0  0
    1.5405   -0.1196    0.0000 O   0  0  0  0  0  0  0  0  0
    2.2549    1.1179    0.0000 C   0  0  0  0  0  0  0  0  0
    2.9694    0.7054    0.0000 N   0  0  0  0  0  0  0  0  0
    3.6839    1.1179    0.0000 C   0  0  0  0  0  0  0  0  0
    4.3983    0.7054    0.0000 C   0  0  0  0  0  0  0  0  0
    4.3983   -0.1196    0.0000 C   0  0  0  0  0  0  0  0  0
    3.6839   -0.5321    0.0000 C   0  0  0  0  0  0  0  0  0
    2.9694   -0.1196    0.0000 C   0  0  0  0  0  0  0  0  0
    5.1128   -0.5321    0.0000 C   0  0  0  0  0  0  0  0  0
    5.1128   -1.3571    0.0000 N   0  0  0  0  0  0  0  0  0
    5.8273   -1.7696    0.0000 C   0  0  0  0  0  0  0  0  0
    6.5418   -1.3571    0.0000 O   0  0  0  0  0  0  0  0  0
    5.8273   -2.5946    0.0000 C   0  0  0  0  0  0  0  0  0
    5.1128   -3.0071    0.0000 C   0  0  0  0  0  0  0  0  0
    4.3983   -2.5946    0.0000 C   0  0  0  0  0  0  0  0  0
    4.3983   -1.7696    0.0000 C   0  0  0  0  0  0  0  0  0
    3.6839   -1.3571    0.0000 O   0  0  0  0  0  0  0  0  0
   -0.6030    1.1179    0.0000 C   0  0  0  0  0  0  0  0  0
   -1.3174    0.7054    0.0000 C   0  0  0  0  0  0  0  0  0
   -2.0319    1.1179    0.0000 C   0  0  0  0  0  0  0  0  0
   -2.0319    1.9429    0.0000 C   0  0  0  0  0  0  0  0  0
   -1.3174    2.3554    0.0000 C   0  0  0  0  0  0  0  0  0
   -0.6030    1.9429    0.0000 C   0  0  0  0  0  0  0  0  0
    0.1115    2.3554    0.0000 C   0  0  0  0  0  0  0  0  0
    0.1115    3.1804    0.0000 C   0  0  0  0  0  0  0  0  0
    0.8260    1.9429    0.0000 C   0  0  0  0  0  0  0  0  0
  1  2  1  0  0  0  0
  1 21  1  0  0  0  0
  2  3  1  0  0  0  0
  3  4  1  0  0  0  0
  3  5  1  0  0  0  0
  5  6  1  0  0  0  0
  6  7  1  0  0  0  0
  6 11  1  0  0  0  0
  7  8  1  0  0  0  0
  8  9  1  0  0  0  0
  9 10  1  0  0  0  0
  9 12  1  0  0  0  0
 10 11  1  0  0  0  0
 12 13  1  0  0  0  0
 13 14  1  0  0  0  0
 13 19  1  0  0  0  0
 14 15  2  0  0  0  0
 14 16  1  0  0  0  0
 16 17  1  0  0  0  0
 17 18  1  0  0  0  0
 18 19  1  0  0  0  0
 19 20  2  0  0  0  0
 21 22  4  0  0  0  0
 21 26  4  0  0  0  0
 22 23  4  0  0  0  0
 23 24  4  0  0  0  0
 24 25  4  0  0  0  0
 25 26  4  0  0  0  0
 26 27  1  0  0  0  0
 27 28  1  0  0  0  0
 27 29  1  0  0  0  0
M  END
>  <Name_Molregno>
630947

>  <Beta-1>
6.61

>  <Beta-2>
8.05

$$$$
630948
  Marvin  02231216192D 0   1.00000     0.00000     0

 20 21  0  0  1  0  0  0  0  0999 V2000
   -7.2317   -1.5127    0.0000 O   0  0  0  0  0  0  0  0  0
   -7.2317   -0.6877    0.0000 C   0  0  0  0  0  0  0  0  0
   -6.5172   -0.2752    0.0000 C   0  0  0  0  0  0  0  0  0
   -5.8028   -0.6877    0.0000 N   0  0  0  0  0  0  0  0  0
   -5.8028   -1.5127    0.0000 C   0  0  0  0  0  0  0  0  0
   -6.5172   -1.9252    0.0000 C   0  0  0  0  0  0  0  0  0
   -5.0883   -0.2752    0.0000 C   0  0  0  0  0  0  0  0  0
   -4.3738   -0.6877    0.0000 C   0  0  0  0  0  0  0  0  0
   -4.3738   -1.5127    0.0000 O   0  0  0  0  0  0  0  0  0
   -3.6594   -0.2752    0.0000 C   0  0  0  0  0  0  0  0  0
   -2.9449   -0.6877    0.0000 O   0  0  0  0  0  0  0  0  0
   -2.2304   -0.2752    0.0000 C   0  0  0  0  0  0  0  0  0
   -2.2304    0.5498    0.0000 C   0  0  0  0  0  0  0  0  0
   -1.5159    0.9623    0.0000 C   0  0  0  0  0  0  0  0  0
   -0.8015    0.5498    0.0000 C   0  0  0  0  0  0  0  0  0
   -0.8015   -0.2752    0.0000 C   0  0  0  0  0  0  0  0  0
   -1.5159   -0.6877    0.0000 C   0  0  0  0  0  0  0  0  0
   -1.5159   -1.5127    0.0000 C   0  0  0  0  0  0  0  0  0
   -0.8015   -1.9252    0.0000 C   0  0  0  0  0  0  0  0  0
   -0.0870   -1.5127    0.0000 C   0  0  0  0  0  0  0  0  0
  1  2  1  0  0  0  0
  1  6  1  0  0  0  0
  2  3  1  0  0  0  0
  3  4  1  0  0  0  0
  4  5  1  0  0  0  0
  4  7  1  0  0  0  0
  5  6  1  0  0  0  0
  7  8  1  0  0  0  0
  8  9  1  0  0  0  0
  8 10  1  0  0  0  0
 10 11  1  0  0  0  0
 11 12  1  0  0  0  0
 12 13  4  0  0  0  0
 12 17  4  0  0  0  0
 13 14  4  0  0  0  0
 14 15  4  0  0  0  0
 15 16  4  0  0  0  0
 16 17  4  0  0  0  0
 17 18  1  0  0  0  0
 18 19  1  0  0  0  0
 19 20  2  0  0  0  0
M  END
>  <Name_Molregno>
630948

>  <Beta-1>
6.94

>  <Beta-2>
8.15

$$$$
630949
  Marvin  02231216192D 0   1.00000     0.00000     0

 20 21  0  0  1  0  0  0  0  0999 V2000
   -6.8018    1.9803    0.0000 O   0  0  0  0  0  0  0  0  0
   -6.0873    2.3928    0.0000 C   0  0  0  0  0  0  0  0  0
   -5.3728    1.9803    0.0000 C   0  0  0  0  0  0  0  0  0
   -5.3728    1.1553    0.0000 N   0  0  0  0  0  0  0  0  0
   -6.0873    0.7428    0.0000 C   0  0  0  0  0  0  0  0  0
   -6.8018    1.1553    0.0000 C   0  0  0  0  0  0  0  0  0
   -4.6583    0.7428    0.0000 C   0  0  0  0  0  0  0  0  0
   -3.9439    1.1553    0.0000 C   0  0  0  0  0  0  0  0  0
   -3.9439    1.9803    0.0000 O   0  0  0  0  0  0  0  0  0
   -3.2294    0.7428    0.0000 C   0  0  0  0  0  0  0  0  0
   -2.5149    1.1553    0.0000 O   0  0  0  0  0  0  0  0  0
   -1.8005    0.7428    0.0000 C   0  0  0  0  0  0  0  0  0
   -1.0860    1.1553    0.0000 C   0  0  0  0  0  0  0  0  0
   -0.3715    0.7428    0.0000 C   0  0  0  0  0  0  0  0  0
   -0.3715   -0.0822    0.0000 C   0  0  0  0  0  0  0  0  0
   -1.0860   -0.4947    0.0000 C   0  0  0  0  0  0  0  0  0
   -1.8005   -0.0822    0.0000 C   0  0  0  0  0  0  0  0  0
   -2.5149   -0.4947    0.0000 C   0  0  0  0  0  0  0  0  0
   -2.5149   -1.3197    0.0000 C   0  0  0  0  0  0  0  0  0
   -3.2294   -0.0822    0.0000 C   0  0  0  0  0  0  0  0  0
  1  2  1  0  0  0  0
  1  6  1  0  0  0  0
  2  3  1  0  0  0  0
  3  4  1  0  0  0  0
  4  5  1  0  0  0  0
  4  7  1  0  0  0  0
  5  6  1  0  0  0  0
  7  8  1  0  0  0  0
  8  9  1  0  0  0  0
  8 10  1  0  0  0  0
 10 11  1  0  0  0  0
 11 12  1  0  0  0  0
 12 13  4  0  0  0  0
 12 17  4  0  0  0  0
 13 14  4  0  0  0  0
 14 15  4  0  0  0  0
 15 16  4  0  0  0  0
 16 17  4  0  0  0  0
 17 18  1  0  0  0  0
 18 19  1  0  0  0  0
 18 20  1  0  0  0  0
M  END
>  <Name_Molregno>
630949

>  <Beta-1>
7.92

>  <Beta-2>
8.92

$$$$
630950
  Marvin  02231216192D 0   1.00000     0.00000     0

 22 23  0  0  1  0  0  0  0  0999 V2000
    0.0125    0.6841    0.0000 O   0  0  0  0  0  0  0  0  0
    0.7269    0.2716    0.0000 C   0  0  0  0  0  0  0  0  0
    1.4414    0.6841    0.0000 C   0  0  0  0  0  0  0  0  0
    1.4414    1.5091    0.0000 O   0  0  0  0  0  0  0  0  0
    2.1559    0.2716    0.0000 C   0  0  0  0  0  0  0  0  0
    2.8704    0.6841    0.0000 N   0  0  0  0  0  0  0  0  0
    3.5848    0.2716    0.0000 C   0  0  0  0  0  0  0  0  0
    4.2993    0.6841    0.0000 C   0  0  0  0  0  0  0  0  0
    5.0138    0.2716    0.0000 C   0  0  0  0  0  0  0  0  0
    5.0138   -0.5534    0.0000 N   0  0  0  0  0  0  0  0  0
    4.2993   -0.9659    0.0000 C   0  0  0  0  0  0  0  0  0
    3.5848   -0.5534    0.0000 C   0  0  0  0  0  0  0  0  0
    5.7282   -0.9659    0.0000 C   0  0  0  0  0  0  0  0  0
   -0.7020    0.2716    0.0000 C   0  0  0  0  0  0  0  0  0
   -0.7020   -0.5534    0.0000 C   0  0  0  0  0  0  0  0  0
   -1.4165   -0.9659    0.0000 C   0  0  0  0  0  0  0  0  0
   -2.1309   -0.5534    0.0000 C   0  0  0  0  0  0  0  0  0
   -2.1309    0.2716    0.0000 C   0  0  0  0  0  0  0  0  0
   -1.4165    0.6841    0.0000 C   0  0  0  0  0  0  0  0  0
   -1.4165    1.5091    0.0000 C   0  0  0  0  0  0  0  0  0
   -2.1309    1.9216    0.0000 C   0  0  0  0  0  0  0  0  0
   -2.8454    1.5091    0.0000 C   0  0  0  0  0  0  0  0  0
  1  2  1  0  0  0  0
  1 14  1  0  0  0  0
  2  3  1  0  0  0  0
  3  4  1  0  0  0  0
  3  5  1  0  0  0  0
  5  6  1  0  0  0  0
  6  7  1  0  0  0  0
  7  8  1  0  0  0  0
  7 12  1  0  0  0  0
  8  9  1  0  0  0  0
  9 10  1  0  0  0  0
 10 11  1  0  0  0  0
 10 13  1  0  0  0  0
 11 12  1  0  0  0  0
 14 15  4  0  0  0  0
 14 19  4  0  0  0  0
 15 16  4  0  0  0  0
 16 17  4  0  0  0  0
 17 18  4  0  0  0  0
 18 19  4  0  0  0  0
 19 20  1  0  0  0  0
 20 21  1  0  0  0  0
 21 22  2  0  0  0  0
M  END
>  <Name_Molregno>
630950

>  <Beta-1>
6.59

>  <Beta-2>
8.62

$$$$
630951
  Marvin  02231216192D 0   1.00000     0.00000     0

 22 23  0  0  1  0  0  0  0  0999 V2000
   -0.2620   -0.3947    0.0000 O   0  0  0  0  0  0  0  0  0
    0.4525    0.0178    0.0000 C   0  0  0  0  0  0  0  0  0
    1.1669   -0.3947    0.0000 C   0  0  0  0  0  0  0  0  0
    1.1669   -1.2197    0.0000 O   0  0  0  0  0  0  0  0  0
    1.8814    0.0178    0.0000 C   0  0  0  0  0  0  0  0  0
    2.5959   -0.3947    0.0000 N   0  0  0  0  0  0  0  0  0
    3.3104    0.0178    0.0000 C   0  0  0  0  0  0  0  0  0
    3.3104    0.8428    0.0000 C   0  0  0  0  0  0  0  0  0
    4.0248    1.2553    0.0000 C   0  0  0  0  0  0  0  0  0
    4.7393    0.8428    0.0000 N   0  0  0  0  0  0  0  0  0
    4.7393    0.0178    0.0000 C   0  0  0  0  0  0  0  0  0
    4.0248   -0.3947    0.0000 C   0  0  0  0  0  0  0  0  0
    5.4538    1.2553    0.0000 C   0  0  0  0  0  0  0  0  0
   -0.9765    0.0178    0.0000 C   0  0  0  0  0  0  0  0  0
   -1.6909   -0.3947    0.0000 C   0  0  0  0  0  0  0  0  0
   -2.4054    0.0178    0.0000 C   0  0  0  0  0  0  0  0  0
   -2.4054    0.8428    0.0000 C   0  0  0  0  0  0  0  0  0
   -1.6909    1.2553    0.0000 C   0  0  0  0  0  0  0  0  0
   -0.9765    0.8428    0.0000 C   0  0  0  0  0  0  0  0  0
   -0.2620    1.2553    0.0000 C   0  0  0  0  0  0  0  0  0
   -0.2620    2.0803    0.0000 C   0  0  0  0  0  0  0  0  0
    0.4525    0.8428    0.0000 C   0  0  0  0  0  0  0  0  0
  1  2  1  0  0  0  0
  1 14  1  0  0  0  0
  2  3  1  0  0  0  0
  3  4  1  0  0  0  0
  3  5  1  0  0  0  0
  5  6  1  0  0  0  0
  6  7  1  0  0  0  0
  7  8  1  0  0  0  0
  7 12  1  0  0  0  0
  8  9  1  0  0  0  0
  9 10  1  0  0  0  0
 10 11  1  0  0  0  0
 10 13  1  0  0  0  0
 11 12  1  0  0  0  0
 14 15  4  0  0  0  0
 14 19  4  0  0  0  0
 15 16  4  0  0  0  0
 16 17  4  0  0  0  0
 17 18  4  0  0  0  0
 18 19  4  0  0  0  0
 19 20  1  0  0  0  0
 20 21  1  0  0  0  0
 20 22  1  0  0  0  0
M  END
>  <Name_Molregno>
630951

>  <Beta-1>
7.05

>  <Beta-2>
7.77

$$$$
630952
  Marvin  02231216192D 0   1.00000     0.00000     0

 41 47  0  0  1  0  0  0  0  0999 V2000
    1.6046   -2.8896    0.0000 O   0  0  0  0  0  0  0  0  0
    2.3190   -2.4771    0.0000 C   0  0  0  0  0  0  0  0  0
    2.3190   -1.6521    0.0000 C   0  0  0  0  0  0  0  0  0
    1.6046   -1.2396    0.0000 O   0  0  0  0  0  0  0  0  0
    3.0335   -1.2396    0.0000 C   0  0  0  0  0  0  0  0  0
    3.0335   -0.4146    0.0000 N   0  0  0  0  0  0  0  0  0
    2.3190   -0.0021    0.0000 C   0  0  0  0  0  0  0  0  0
    2.3190    0.8229    0.0000 C   0  0  0  0  0  0  0  0  0
    3.0335    1.2354    0.0000 C   0  0  0  0  0  0  0  0  0
    3.7480    0.8229    0.0000 C   0  0  0  0  0  0  0  0  0
    3.7480   -0.0021    0.0000 C   0  0  0  0  0  0  0  0  0
    3.0335    2.0604    0.0000 C   0  0  0  0  0  0  0  0  0
    3.7480    2.4729    0.0000 N   0  0  0  0  0  0  0  0  0
    4.4624    2.0604    0.0000 C   0  0  0  0  0  0  0  0  0
    4.4624    1.2354    0.0000 O   0  0  0  0  0  0  0  0  0
    5.1769    2.4729    0.0000 C   0  0  0  0  0  0  0  0  0
    5.8914    2.0604    0.0000 C   0  0  0  0  0  0  0  0  0
    6.6059    2.4729    0.0000 C   0  0  0  0  0  0  0  0  0
    7.3203    2.0604    0.0000 O   0  0  0  0  0  0  0  0  0
    6.6059    3.2979    0.0000 C   0  0  0  0  0  0  0  0  0
    5.8914    3.7104    0.0000 C   0  0  0  0  0  0  0  0  0
    5.1769    3.2979    0.0000 C   0  0  0  0  0  0  0  0  0
    4.4624    3.7104    0.0000 C   0  0  0  0  0  0  0  0  0
    4.4624    4.5354    0.0000 C   0  0  0  0  0  0  0  0  0
    5.1769    4.9479    0.0000 C   0  0  0  0  0  0  0  0  0
    5.8914    4.5354    0.0000 C   0  0  0  0  0  0  0  0  0
    3.7480    3.2979    0.0000 C   0  0  0  0  0  0  0  0  0
    3.0335    3.7104    0.0000 O   0  0  0  0  0  0  0  0  0
    1.6046   -3.7146    0.0000 C   0  0  0  0  0  0  0  0  0
    0.8901   -4.1271    0.0000 C   0  0  0  0  0  0  0  0  0
    0.1055   -3.8722    0.0000 C   0  0  0  0  0  0  0  0  0
   -0.3795   -4.5396    0.0000 C   0  0  0  0  0  0  0  0  0
    0.1055   -5.2071    0.0000 N   0  0  0  0  0  0  0  0  0
    0.8901   -4.9521    0.0000 C   0  0  0  0  0  0  0  0  0
    1.6046   -5.3646    0.0000 C   0  0  0  0  0  0  0  0  0
    2.3190   -4.9521    0.0000 C   0  0  0  0  0  0  0  0  0
    2.3190   -4.1271    0.0000 C   0  0  0  0  0  0  0  0  0
   -1.1999   -4.4534    0.0000 C   0  0  0  0  0  0  0  0  0
   -1.5355   -3.6997    0.0000 C   0  0  0  0  0  0  0  0  0
   -1.0506   -3.0323    0.0000 C   0  0  0  0  0  0  0  0  0
   -0.2301   -3.1185    0.0000 C   0  0  0  0  0  0  0  0  0
  1  2  1  0  0  0  0
  1 29  1  0  0  0  0
  2  3  1  0  0  0  0
  3  4  1  0  0  0  0
  3  5  1  0  0  0  0
  5  6  1  0  0  0  0
  6  7  1  0  0  0  0
  6 11  1  0  0  0  0
  7  8  1  0  0  0  0
  8  9  1  0  0  0  0
  9 10  1  0  0  0  0
  9 12  1  0  0  0  0
 10 11  1  0  0  0  0
 12 13  1  0  0  0  0
 13 14  1  0  0  0  0
 13 27  1  0  0  0  0
 14 15  2  0  0  0  0
 14 16  1  0  0  0  0
 16 17  4  0  0  0  0
 16 22  4  0  0  0  0
 17 18  4  0  0  0  0
 18 19  1  0  0  0  0
 18 20  4  0  0  0  0
 20 21  4  0  0  0  0
 21 22  4  0  0  0  0
 21 26  4  0  0  0  0
 22 23  4  0  0  0  0
 23 24  4  0  0  0  0
 23 27  1  0  0  0  0
 24 25  4  0  0  0  0
 25 26  4  0  0  0  0
 27 28  2  0  0  0  0
 29 30  4  0  0  0  0
 29 37  4  0  0  0  0
 30 31  4  0  0  0  0
 30 34  4  0  0  0  0
 31 32  4  0  0  0  0
 31 41  4  0  0  0  0
 32 33  4  0  0  0  0
 32 38  4  0  0  0  0
 33 34  4  0  0  0  0
 34 35  4  0  0  0  0
 35 36  4  0  0  0  0
 36 37  4  0  0  0  0
 38 39  4  0  0  0  0
 39 40  4  0  0  0  0
 40 41  4  0  0  0  0
M  STY  1   1 DAT
M  SAL   1  1  33
M  SDT   1 MRV_IMPLICIT_H                                        
M  SDD   1     0.0000    0.0000    DR    ALL  0       0  
M  SED   1 IMPL_H1
M  END
>  <Name_Molregno>
630952

>  <Beta-1>
6.6

>  <Beta-2>
7.43

$$$$
630953
  Marvin  02231216192D 0   1.00000     0.00000     0

 42 48  0  0  1  0  0  0  0  0999 V2000
    1.6425   -2.4100    0.0000 O   0  0  0  0  0  0  0  0  0
    2.3570   -1.9975    0.0000 C   0  0  0  0  0  0  0  0  0
    2.3570   -1.1725    0.0000 C   0  0  0  0  0  0  0  0  0
    1.6425   -0.7600    0.0000 O   0  0  0  0  0  0  0  0  0
    3.0714   -0.7600    0.0000 C   0  0  0  0  0  0  0  0  0
    3.0714    0.0650    0.0000 N   0  0  0  0  0  0  0  0  0
    2.3570    0.4775    0.0000 C   0  0  0  0  0  0  0  0  0
    2.3570    1.3025    0.0000 C   0  0  0  0  0  0  0  0  0
    3.0714    1.7150    0.0000 C   0  0  0  0  0  0  0  0  0
    3.7859    1.3025    0.0000 C   0  0  0  0  0  0  0  0  0
    3.7859    0.4775    0.0000 C   0  0  0  0  0  0  0  0  0
    3.0714    2.5400    0.0000 C   0  0  0  0  0  0  0  0  0
    3.7859    2.9525    0.0000 N   0  0  0  0  0  0  0  0  0
    4.5004    2.5400    0.0000 C   0  0  0  0  0  0  0  0  0
    4.5004    1.7150    0.0000 O   0  0  0  0  0  0  0  0  0
    5.2148    2.9525    0.0000 C   0  0  0  0  0  0  0  0  0
    5.9293    2.5400    0.0000 C   0  0  0  0  0  0  0  0  0
    6.6438    2.9525    0.0000 C   0  0  0  0  0  0  0  0  0
    7.3582    2.5400    0.0000 O   0  0  0  0  0  0  0  0  0
    8.0727    2.9525    0.0000 C   0  0  0  0  0  0  0  0  0
    6.6438    3.7775    0.0000 C   0  0  0  0  0  0  0  0  0
    5.9293    4.1900    0.0000 C   0  0  0  0  0  0  0  0  0
    5.2148    3.7775    0.0000 C   0  0  0  0  0  0  0  0  0
    4.5004    4.1900    0.0000 C   0  0  0  0  0  0  0  0  0
    4.5004    5.0150    0.0000 C   0  0  0  0  0  0  0  0  0
    5.2148    5.4275    0.0000 C   0  0  0  0  0  0  0  0  0
    5.9293    5.0150    0.0000 C   0  0  0  0  0  0  0  0  0
    3.7859    3.7775    0.0000 C   0  0  0  0  0  0  0  0  0
    3.0714    4.1900    0.0000 O   0  0  0  0  0  0  0  0  0
    1.6425   -3.2350    0.0000 C   0  0  0  0  0  0  0  0  0
    0.9280   -3.6475    0.0000 C   0  0  0  0  0  0  0  0  0
    0.1434   -3.3925    0.0000 C   0  0  0  0  0  0  0  0  0
   -0.3415   -4.0600    0.0000 C   0  0  0  0  0  0  0  0  0
    0.1434   -4.7274    0.0000 N   0  0  0  0  0  0  0  0  0
    0.9280   -4.4725    0.0000 C   0  0  0  0  0  0  0  0  0
    1.6425   -4.8850    0.0000 C   0  0  0  0  0  0  0  0  0
    2.3570   -4.4725    0.0000 C   0  0  0  0  0  0  0  0  0
    2.3570   -3.6475    0.0000 C   0  0  0  0  0  0  0  0  0
   -1.1620   -3.9737    0.0000 C   0  0  0  0  0  0  0  0  0
   -1.4976   -3.2201    0.0000 C   0  0  0  0  0  0  0  0  0
   -1.0126   -2.5526    0.0000 C   0  0  0  0  0  0  0  0  0
   -0.1922   -2.6389    0.0000 C   0  0  0  0  0  0  0  0  0
  1  2  1  0  0  0  0
  1 30  1  0  0  0  0
  2  3  1  0  0  0  0
  3  4  1  0  0  0  0
  3  5  1  0  0  0  0
  5  6  1  0  0  0  0
  6  7  1  0  0  0  0
  6 11  1  0  0  0  0
  7  8  1  0  0  0  0
  8  9  1  0  0  0  0
  9 10  1  0  0  0  0
  9 12  1  0  0  0  0
 10 11  1  0  0  0  0
 12 13  1  0  0  0  0
 13 14  1  0  0  0  0
 13 28  1  0  0  0  0
 14 15  2  0  0  0  0
 14 16  1  0  0  0  0
 16 17  4  0  0  0  0
 16 23  4  0  0  0  0
 17 18  4  0  0  0  0
 18 19  1  0  0  0  0
 18 21  4  0  0  0  0
 19 20  1  0  0  0  0
 21 22  4  0  0  0  0
 22 23  4  0  0  0  0
 22 27  4  0  0  0  0
 23 24  4  0  0  0  0
 24 25  4  0  0  0  0
 24 28  1  0  0  0  0
 25 26  4  0  0  0  0
 26 27  4  0  0  0  0
 28 29  2  0  0  0  0
 30 31  4  0  0  0  0
 30 38  4  0  0  0  0
 31 32  4  0  0  0  0
 31 35  4  0  0  0  0
 32 33  4  0  0  0  0
 32 42  4  0  0  0  0
 33 34  4  0  0  0  0
 33 39  4  0  0  0  0
 34 35  4  0  0  0  0
 35 36  4  0  0  0  0
 36 37  4  0  0  0  0
 37 38  4  0  0  0  0
 39 40  4  0  0  0  0
 40 41  4  0  0  0  0
 41 42  4  0  0  0  0
M  STY  1   1 DAT
M  SAL   1  1  34
M  SDT   1 MRV_IMPLICIT_H                                        
M  SDD   1     0.0000    0.0000    DR    ALL  0       0  
M  SED   1 IMPL_H1
M  END
>  <Name_Molregno>
630953

>  <Beta-1>
10

>  <Beta-2>
8.1

$$$$
630996
  Marvin  02231216192D 0   1.00000     0.00000     0

 39 45  0  0  1  0  0  0  0  0999 V2000
    0.0579   -0.4751    0.0000 O   0  0  0  0  0  0  0  0  0
    0.7724   -0.8876    0.0000 C   0  0  0  0  0  0  0  0  0
    1.4869   -0.4751    0.0000 C   0  0  0  0  0  0  0  0  0
    1.4869    0.3499    0.0000 O   0  0  0  0  0  0  0  0  0
    2.2014   -0.8876    0.0000 C   0  0  0  0  0  0  0  0  0
    2.9158   -0.4751    0.0000 N   0  0  0  0  0  0  0  0  0
    2.9158    0.3499    0.0000 C   0  0  0  0  0  0  0  0  0
    3.6303    0.7624    0.0000 C   0  0  0  0  0  0  0  0  0
    4.3448    0.3499    0.0000 C   0  0  0  0  0  0  0  0  0
    5.0592    0.7624    0.0000 N   0  0  0  0  0  0  0  0  0
    5.7737    0.3499    0.0000 C   0  0  0  0  0  0  0  0  0
    5.7737   -0.4751    0.0000 O   0  0  0  0  0  0  0  0  0
    6.4882    0.7624    0.0000 C   0  0  0  0  0  0  0  0  0
    6.4882    1.5874    0.0000 C   0  0  0  0  0  0  0  0  0
    5.7737    1.9999    0.0000 C   0  0  0  0  0  0  0  0  0
    5.7737    2.8249    0.0000 C   0  0  0  0  0  0  0  0  0
    6.4882    3.2374    0.0000 C   0  0  0  0  0  0  0  0  0
    7.2027    2.8249    0.0000 C   0  0  0  0  0  0  0  0  0
    7.2027    1.9999    0.0000 C   0  0  0  0  0  0  0  0  0
    7.9171    1.5874    0.0000 C   0  0  0  0  0  0  0  0  0
    7.9171    0.7624    0.0000 C   0  0  0  0  0  0  0  0  0
    7.2027    0.3499    0.0000 C   0  0  0  0  0  0  0  0  0
    5.0592    1.5874    0.0000 C   0  0  0  0  0  0  0  0  0
    4.3448    1.9999    0.0000 O   0  0  0  0  0  0  0  0  0
    4.3448   -0.4751    0.0000 C   0  0  0  0  0  0  0  0  0
    3.6303   -0.8876    0.0000 C   0  0  0  0  0  0  0  0  0
   -0.6565   -0.8876    0.0000 C   0  0  0  0  0  0  0  0  0
   -1.3710   -0.4751    0.0000 C   0  0  0  0  0  0  0  0  0
   -1.5425    0.3319    0.0000 C   0  0  0  0  0  0  0  0  0
   -2.3630    0.4181    0.0000 C   0  0  0  0  0  0  0  0  0
   -2.6986   -0.3356    0.0000 N   0  0  0  0  0  0  0  0  0
   -2.0855   -0.8876    0.0000 C   0  0  0  0  0  0  0  0  0
   -2.0855   -1.7126    0.0000 C   0  0  0  0  0  0  0  0  0
   -1.3710   -2.1251    0.0000 C   0  0  0  0  0  0  0  0  0
   -0.6565   -1.7126    0.0000 C   0  0  0  0  0  0  0  0  0
   -2.6986    1.1718    0.0000 C   0  0  0  0  0  0  0  0  0
   -2.2136    1.8392    0.0000 C   0  0  0  0  0  0  0  0  0
   -1.3932    1.7530    0.0000 C   0  0  0  0  0  0  0  0  0
   -1.0576    0.9993    0.0000 C   0  0  0  0  0  0  0  0  0
  1  2  1  0  0  0  0
  1 27  1  0  0  0  0
  2  3  1  0  0  0  0
  3  4  1  0  0  0  0
  3  5  1  0  0  0  0
  5  6  1  0  0  0  0
  6  7  1  0  0  0  0
  6 26  1  0  0  0  0
  7  8  1  0  0  0  0
  8  9  1  0  0  0  0
  9 10  1  0  0  0  0
  9 25  1  0  0  0  0
 10 11  1  0  0  0  0
 10 23  1  0  0  0  0
 11 12  2  0  0  0  0
 11 13  1  0  0  0  0
 13 14  4  0  0  0  0
 13 22  4  0  0  0  0
 14 15  4  0  0  0  0
 14 19  4  0  0  0  0
 15 16  4  0  0  0  0
 15 23  1  0  0  0  0
 16 17  4  0  0  0  0
 17 18  4  0  0  0  0
 18 19  4  0  0  0  0
 19 20  4  0  0  0  0
 20 21  4  0  0  0  0
 21 22  4  0  0  0  0
 23 24  2  0  0  0  0
 25 26  1  0  0  0  0
 27 28  4  0  0  0  0
 27 35  4  0  0  0  0
 28 29  4  0  0  0  0
 28 32  4  0  0  0  0
 29 30  4  0  0  0  0
 29 39  4  0  0  0  0
 30 31  4  0  0  0  0
 30 36  4  0  0  0  0
 31 32  4  0  0  0  0
 32 33  4  0  0  0  0
 33 34  4  0  0  0  0
 34 35  4  0  0  0  0
 36 37  4  0  0  0  0
 37 38  4  0  0  0  0
 38 39  4  0  0  0  0
M  STY  1   1 DAT
M  SAL   1  1  31
M  SDT   1 MRV_IMPLICIT_H                                        
M  SDD   1     0.0000    0.0000    DR    ALL  0       0  
M  SED   1 IMPL_H1
M  END
>  <Name_Molregno>
630996

>  <Beta-1>
7.12

>  <Beta-2>
7.24

$$$$
630997
  Marvin  02231216192D 0   1.00000     0.00000     0

 31 35  0  0  1  0  0  0  0  0999 V2000
    1.4804    1.2306    0.0000 O   0  0  0  0  0  0  0  0  0
    0.9283    0.6175    0.0000 C   0  0  0  0  0  0  0  0  0
    1.1833   -0.1671    0.0000 C   0  0  0  0  0  0  0  0  0
    1.9902   -0.3387    0.0000 O   0  0  0  0  0  0  0  0  0
    0.6312   -0.7802    0.0000 C   0  0  0  0  0  0  0  0  0
    0.8862   -1.5649    0.0000 N   0  0  0  0  0  0  0  0  0
    1.6931   -1.7364    0.0000 C   0  0  0  0  0  0  0  0  0
    1.9481   -2.5210    0.0000 C   0  0  0  0  0  0  0  0  0
    1.3960   -3.1341    0.0000 C   0  0  0  0  0  0  0  0  0
    0.5891   -2.9626    0.0000 C   0  0  0  0  0  0  0  0  0
    0.3341   -2.1779    0.0000 C   0  0  0  0  0  0  0  0  0
    1.6510   -3.9187    0.0000 C   0  0  0  0  0  0  0  0  0
    1.0990   -4.5318    0.0000 C   0  0  0  0  0  0  0  0  0
    1.3539   -5.3164    0.0000 C   0  0  0  0  0  0  0  0  0
    0.8019   -5.9295    0.0000 C   0  0  0  0  0  0  0  0  0
   -0.0051   -5.7580    0.0000 C   0  0  0  0  0  0  0  0  0
   -0.2600   -4.9734    0.0000 C   0  0  0  0  0  0  0  0  0
    0.2920   -4.3603    0.0000 C   0  0  0  0  0  0  0  0  0
    1.2254    2.0152    0.0000 C   0  0  0  0  0  0  0  0  0
    1.7775    2.6283    0.0000 C   0  0  0  0  0  0  0  0  0
    2.6025    2.6283    0.0000 C   0  0  0  0  0  0  0  0  0
    2.8574    3.4129    0.0000 C   0  0  0  0  0  0  0  0  0
    2.1900    3.8978    0.0000 N   0  0  0  0  0  0  0  0  0
    1.5225    3.4129    0.0000 C   0  0  0  0  0  0  0  0  0
    0.7155    3.5844    0.0000 C   0  0  0  0  0  0  0  0  0
    0.1635    2.9713    0.0000 C   0  0  0  0  0  0  0  0  0
    0.4184    2.1867    0.0000 C   0  0  0  0  0  0  0  0  0
    3.6644    3.5844    0.0000 C   0  0  0  0  0  0  0  0  0
    4.2164    2.9713    0.0000 C   0  0  0  0  0  0  0  0  0
    3.9615    2.1867    0.0000 C   0  0  0  0  0  0  0  0  0
    3.1545    2.0152    0.0000 C   0  0  0  0  0  0  0  0  0
  1  2  1  0  0  0  0
  1 19  1  0  0  0  0
  2  3  1  0  0  0  0
  3  4  1  0  0  0  0
  3  5  1  0  0  0  0
  5  6  1  0  0  0  0
  6  7  1  0  0  0  0
  6 11  1  0  0  0  0
  7  8  1  0  0  0  0
  8  9  1  0  0  0  0
  9 10  1  0  0  0  0
  9 12  1  0  0  0  0
 10 11  1  0  0  0  0
 12 13  1  0  0  0  0
 13 14  4  0  0  0  0
 13 18  4  0  0  0  0
 14 15  4  0  0  0  0
 15 16  4  0  0  0  0
 16 17  4  0  0  0  0
 17 18  4  0  0  0  0
 19 20  4  0  0  0  0
 19 27  4  0  0  0  0
 20 21  4  0  0  0  0
 20 24  4  0  0  0  0
 21 22  4  0  0  0  0
 21 31  4  0  0  0  0
 22 23  4  0  0  0  0
 22 28  4  0  0  0  0
 23 24  4  0  0  0  0
 24 25  4  0  0  0  0
 25 26  4  0  0  0  0
 26 27  4  0  0  0  0
 28 29  4  0  0  0  0
 29 30  4  0  0  0  0
 30 31  4  0  0  0  0
M  STY  1   1 DAT
M  SAL   1  1  23
M  SDT   1 MRV_IMPLICIT_H                                        
M  SDD   1     0.0000    0.0000    DR    ALL  0       0  
M  SED   1 IMPL_H1
M  END
>  <Name_Molregno>
630997

>  <Beta-1>
7.85

>  <Beta-2>
9.3

$$$$
630998
  Marvin  02231216192D 0   1.00000     0.00000     0

 33 37  0  0  1  0  0  0  0  0999 V2000
    2.0283    2.2299    0.0000 O   0  0  0  0  0  0  0  0  0
    1.4763    1.6168    0.0000 C   0  0  0  0  0  0  0  0  0
    1.7312    0.8322    0.0000 C   0  0  0  0  0  0  0  0  0
    2.5382    0.6607    0.0000 O   0  0  0  0  0  0  0  0  0
    1.1792    0.2191    0.0000 C   0  0  0  0  0  0  0  0  0
    1.4341   -0.5655    0.0000 N   0  0  0  0  0  0  0  0  0
    2.2411   -0.7370    0.0000 C   0  0  0  0  0  0  0  0  0
    2.4960   -1.5217    0.0000 C   0  0  0  0  0  0  0  0  0
    1.9440   -2.1348    0.0000 C   0  0  0  0  0  0  0  0  0
    1.1370   -1.9632    0.0000 C   0  0  0  0  0  0  0  0  0
    0.8821   -1.1786    0.0000 C   0  0  0  0  0  0  0  0  0
    2.1989   -2.9194    0.0000 C   0  0  0  0  0  0  0  0  0
    1.6469   -3.5325    0.0000 C   0  0  0  0  0  0  0  0  0
    1.9019   -4.3171    0.0000 C   0  0  0  0  0  0  0  0  0
    1.3498   -4.9302    0.0000 C   0  0  0  0  0  0  0  0  0
    0.5428   -4.7587    0.0000 C   0  0  0  0  0  0  0  0  0
   -0.0092   -5.3718    0.0000 O   0  0  0  0  0  0  0  0  0
   -0.8162   -5.2002    0.0000 C   0  0  0  0  0  0  0  0  0
    0.2879   -3.9740    0.0000 C   0  0  0  0  0  0  0  0  0
    0.8399   -3.3609    0.0000 C   0  0  0  0  0  0  0  0  0
    1.7734    3.0145    0.0000 C   0  0  0  0  0  0  0  0  0
    2.3254    3.6276    0.0000 C   0  0  0  0  0  0  0  0  0
    3.1504    3.6276    0.0000 C   0  0  0  0  0  0  0  0  0
    3.4054    4.4123    0.0000 C   0  0  0  0  0  0  0  0  0
    2.7379    4.8972    0.0000 N   0  0  0  0  0  0  0  0  0
    2.0705    4.4123    0.0000 C   0  0  0  0  0  0  0  0  0
    1.2635    4.5838    0.0000 C   0  0  0  0  0  0  0  0  0
    0.7115    3.9707    0.0000 C   0  0  0  0  0  0  0  0  0
    0.9664    3.1861    0.0000 C   0  0  0  0  0  0  0  0  0
    4.2123    4.5838    0.0000 C   0  0  0  0  0  0  0  0  0
    4.7644    3.9707    0.0000 C   0  0  0  0  0  0  0  0  0
    4.5094    3.1861    0.0000 C   0  0  0  0  0  0  0  0  0
    3.7024    3.0145    0.0000 C   0  0  0  0  0  0  0  0  0
  1  2  1  0  0  0  0
  1 21  1  0  0  0  0
  2  3  1  0  0  0  0
  3  4  1  0  0  0  0
  3  5  1  0  0  0  0
  5  6  1  0  0  0  0
  6  7  1  0  0  0  0
  6 11  1  0  0  0  0
  7  8  1  0  0  0  0
  8  9  1  0  0  0  0
  9 10  1  0  0  0  0
  9 12  1  0  0  0  0
 10 11  1  0  0  0  0
 12 13  1  0  0  0  0
 13 14  4  0  0  0  0
 13 20  4  0  0  0  0
 14 15  4  0  0  0  0
 15 16  4  0  0  0  0
 16 17  1  0  0  0  0
 16 19  4  0  0  0  0
 17 18  1  0  0  0  0
 19 20  4  0  0  0  0
 21 22  4  0  0  0  0
 21 29  4  0  0  0  0
 22 23  4  0  0  0  0
 22 26  4  0  0  0  0
 23 24  4  0  0  0  0
 23 33  4  0  0  0  0
 24 25  4  0  0  0  0
 24 30  4  0  0  0  0
 25 26  4  0  0  0  0
 26 27  4  0  0  0  0
 27 28  4  0  0  0  0
 28 29  4  0  0  0  0
 30 31  4  0  0  0  0
 31 32  4  0  0  0  0
 32 33  4  0  0  0  0
M  STY  1   1 DAT
M  SAL   1  1  25
M  SDT   1 MRV_IMPLICIT_H                                        
M  SDD   1     0.0000    0.0000    DR    ALL  0       0  
M  SED   1 IMPL_H1
M  END
>  <Name_Molregno>
630998

>  <Beta-1>
8.47

>  <Beta-2>
9.7

$$$$
630999
  Marvin  02231216192D 0   1.00000     0.00000     0

 31 35  0  0  1  0  0  0  0  0999 V2000
    1.4804    1.2306    0.0000 O   0  0  0  0  0  0  0  0  0
    0.9283    0.6175    0.0000 C   0  0  0  0  0  0  0  0  0
    1.1833   -0.1671    0.0000 C   0  0  0  0  0  0  0  0  0
    1.9902   -0.3387    0.0000 O   0  0  0  0  0  0  0  0  0
    0.6312   -0.7802    0.0000 C   0  0  0  0  0  0  0  0  0
    0.8862   -1.5649    0.0000 N   0  0  0  0  0  0  0  0  0
    1.6931   -1.7364    0.0000 C   0  0  0  0  0  0  0  0  0
    1.9481   -2.5210    0.0000 C   0  0  0  0  0  0  0  0  0
    1.3960   -3.1341    0.0000 C   0  0  0  0  0  0  0  0  0
    0.5891   -2.9626    0.0000 C   0  0  0  0  0  0  0  0  0
    0.3341   -2.1779    0.0000 C   0  0  0  0  0  0  0  0  0
    1.6510   -3.9187    0.0000 C   0  0  0  0  0  0  0  0  0
    1.0990   -4.5318    0.0000 C   0  0  0  0  0  0  0  0  0
    1.3539   -5.3164    0.0000 C   0  0  0  0  0  0  0  0  0
    0.8019   -5.9295    0.0000 C   0  0  0  0  0  0  0  0  0
   -0.0051   -5.7580    0.0000 C   0  0  0  0  0  0  0  0  0
   -0.2600   -4.9734    0.0000 N   0  0  0  0  0  0  0  0  0
    0.2920   -4.3603    0.0000 C   0  0  0  0  0  0  0  0  0
    1.2254    2.0152    0.0000 C   0  0  0  0  0  0  0  0  0
    1.7775    2.6283    0.0000 C   0  0  0  0  0  0  0  0  0
    2.6025    2.6283    0.0000 C   0  0  0  0  0  0  0  0  0
    2.8574    3.4129    0.0000 C   0  0  0  0  0  0  0  0  0
    2.1900    3.8978    0.0000 N   0  0  0  0  0  0  0  0  0
    1.5225    3.4129    0.0000 C   0  0  0  0  0  0  0  0  0
    0.7155    3.5844    0.0000 C   0  0  0  0  0  0  0  0  0
    0.1635    2.9713    0.0000 C   0  0  0  0  0  0  0  0  0
    0.4184    2.1867    0.0000 C   0  0  0  0  0  0  0  0  0
    3.6644    3.5844    0.0000 C   0  0  0  0  0  0  0  0  0
    4.2164    2.9713    0.0000 C   0  0  0  0  0  0  0  0  0
    3.9615    2.1867    0.0000 C   0  0  0  0  0  0  0  0  0
    3.1545    2.0152    0.0000 C   0  0  0  0  0  0  0  0  0
  1  2  1  0  0  0  0
  1 19  1  0  0  0  0
  2  3  1  0  0  0  0
  3  4  1  0  0  0  0
  3  5  1  0  0  0  0
  5  6  1  0  0  0  0
  6  7  1  0  0  0  0
  6 11  1  0  0  0  0
  7  8  1  0  0  0  0
  8  9  1  0  0  0  0
  9 10  1  0  0  0  0
  9 12  1  0  0  0  0
 10 11  1  0  0  0  0
 12 13  1  0  0  0  0
 13 14  4  0  0  0  0
 13 18  4  0  0  0  0
 14 15  4  0  0  0  0
 15 16  4  0  0  0  0
 16 17  4  0  0  0  0
 17 18  4  0  0  0  0
 19 20  4  0  0  0  0
 19 27  4  0  0  0  0
 20 21  4  0  0  0  0
 20 24  4  0  0  0  0
 21 22  4  0  0  0  0
 21 31  4  0  0  0  0
 22 23  4  0  0  0  0
 22 28  4  0  0  0  0
 23 24  4  0  0  0  0
 24 25  4  0  0  0  0
 25 26  4  0  0  0  0
 26 27  4  0  0  0  0
 28 29  4  0  0  0  0
 29 30  4  0  0  0  0
 30 31  4  0  0  0  0
M  STY  1   1 DAT
M  SAL   1  1  23
M  SDT   1 MRV_IMPLICIT_H                                        
M  SDD   1     0.0000    0.0000    DR    ALL  0       0  
M  SED   1 IMPL_H1
M  END
>  <Name_Molregno>
630999

>  <Beta-1>
9

>  <Beta-2>
10

$$$$
631062
  Marvin  02231216192D 0   1.00000     0.00000     0

 32 36  0  0  1  0  0  0  0  0999 V2000
    1.5555    2.0984    0.0000 O   0  0  0  0  0  0  0  0  0
    1.0034    1.4853    0.0000 C   0  0  0  0  0  0  0  0  0
    1.2584    0.7007    0.0000 C   0  0  0  0  0  0  0  0  0
    2.0653    0.5292    0.0000 O   0  0  0  0  0  0  0  0  0
    0.7063    0.0876    0.0000 C   0  0  0  0  0  0  0  0  0
    0.9613   -0.6970    0.0000 N   0  0  0  0  0  0  0  0  0
    1.7682   -0.8685    0.0000 C   0  0  0  0  0  0  0  0  0
    2.0232   -1.6531    0.0000 C   0  0  0  0  0  0  0  0  0
    1.4711   -2.2662    0.0000 C   0  0  0  0  0  0  0  0  0
    0.6642   -2.0947    0.0000 C   0  0  0  0  0  0  0  0  0
    0.4092   -1.3101    0.0000 C   0  0  0  0  0  0  0  0  0
    1.7261   -3.0509    0.0000 C   0  0  0  0  0  0  0  0  0
    2.5331   -3.2224    0.0000 O   0  0  0  0  0  0  0  0  0
    1.1741   -3.6640    0.0000 C   0  0  0  0  0  0  0  0  0
    1.4290   -4.4486    0.0000 C   0  0  0  0  0  0  0  0  0
    0.8770   -5.0617    0.0000 C   0  0  0  0  0  0  0  0  0
    0.0700   -4.8901    0.0000 C   0  0  0  0  0  0  0  0  0
   -0.1850   -4.1055    0.0000 C   0  0  0  0  0  0  0  0  0
    0.3671   -3.4924    0.0000 C   0  0  0  0  0  0  0  0  0
    1.3005    2.8831    0.0000 C   0  0  0  0  0  0  0  0  0
    1.8525    3.4962    0.0000 C   0  0  0  0  0  0  0  0  0
    2.6775    3.4962    0.0000 C   0  0  0  0  0  0  0  0  0
    2.9325    4.2808    0.0000 C   0  0  0  0  0  0  0  0  0
    2.2650    4.7657    0.0000 N   0  0  0  0  0  0  0  0  0
    1.5976    4.2808    0.0000 C   0  0  0  0  0  0  0  0  0
    0.7906    4.4523    0.0000 C   0  0  0  0  0  0  0  0  0
    0.2386    3.8392    0.0000 C   0  0  0  0  0  0  0  0  0
    0.4935    3.0546    0.0000 C   0  0  0  0  0  0  0  0  0
    3.7395    4.4523    0.0000 C   0  0  0  0  0  0  0  0  0
    4.2915    3.8392    0.0000 C   0  0  0  0  0  0  0  0  0
    4.0366    3.0546    0.0000 C   0  0  0  0  0  0  0  0  0
    3.2296    2.8831    0.0000 C   0  0  0  0  0  0  0  0  0
  1  2  1  0  0  0  0
  1 20  1  0  0  0  0
  2  3  1  0  0  0  0
  3  4  1  0  0  0  0
  3  5  1  0  0  0  0
  5  6  1  0  0  0  0
  6  7  1  0  0  0  0
  6 11  1  0  0  0  0
  7  8  1  0  0  0  0
  8  9  1  0  0  0  0
  9 10  1  0  0  0  0
  9 12  1  0  0  0  0
 10 11  1  0  0  0  0
 12 13  2  0  0  0  0
 12 14  1  0  0  0  0
 14 15  4  0  0  0  0
 14 19  4  0  0  0  0
 15 16  4  0  0  0  0
 16 17  4  0  0  0  0
 17 18  4  0  0  0  0
 18 19  4  0  0  0  0
 20 21  4  0  0  0  0
 20 28  4  0  0  0  0
 21 22  4  0  0  0  0
 21 25  4  0  0  0  0
 22 23  4  0  0  0  0
 22 32  4  0  0  0  0
 23 24  4  0  0  0  0
 23 29  4  0  0  0  0
 24 25  4  0  0  0  0
 25 26  4  0  0  0  0
 26 27  4  0  0  0  0
 27 28  4  0  0  0  0
 29 30  4  0  0  0  0
 30 31  4  0  0  0  0
 31 32  4  0  0  0  0
M  STY  1   1 DAT
M  SAL   1  1  24
M  SDT   1 MRV_IMPLICIT_H                                        
M  SDD   1     0.0000    0.0000    DR    ALL  0       0  
M  SED   1 IMPL_H1
M  END
>  <Name_Molregno>
631062

>  <Beta-1>
7.8

>  <Beta-2>
9.7

$$$$
631063
  Marvin  02231216192D 0   1.00000     0.00000     0

 34 38  0  0  1  0  0  0  0  0999 V2000
    2.0822    2.3873    0.0000 O   0  0  0  0  0  0  0  0  0
    1.5302    1.7742    0.0000 C   0  0  0  0  0  0  0  0  0
    1.7851    0.9895    0.0000 C   0  0  0  0  0  0  0  0  0
    2.5921    0.8180    0.0000 O   0  0  0  0  0  0  0  0  0
    1.2331    0.3764    0.0000 C   0  0  0  0  0  0  0  0  0
    1.4880   -0.4082    0.0000 N   0  0  0  0  0  0  0  0  0
    2.2950   -0.5797    0.0000 C   0  0  0  0  0  0  0  0  0
    2.5499   -1.3643    0.0000 C   0  0  0  0  0  0  0  0  0
    1.9979   -1.9774    0.0000 C   0  0  0  0  0  0  0  0  0
    1.1909   -1.8059    0.0000 C   0  0  0  0  0  0  0  0  0
    0.9360   -1.0213    0.0000 C   0  0  0  0  0  0  0  0  0
    2.2528   -2.7620    0.0000 C   0  0  0  0  0  0  0  0  0
    3.0598   -2.9336    0.0000 O   0  0  0  0  0  0  0  0  0
    1.7008   -3.3751    0.0000 C   0  0  0  0  0  0  0  0  0
    1.9557   -4.1598    0.0000 C   0  0  0  0  0  0  0  0  0
    1.4037   -4.7729    0.0000 C   0  0  0  0  0  0  0  0  0
    0.5967   -4.6013    0.0000 C   0  0  0  0  0  0  0  0  0
    0.0447   -5.2144    0.0000 O   0  0  0  0  0  0  0  0  0
   -0.7623   -5.0429    0.0000 C   0  0  0  0  0  0  0  0  0
    0.3418   -3.8167    0.0000 C   0  0  0  0  0  0  0  0  0
    0.8938   -3.2036    0.0000 C   0  0  0  0  0  0  0  0  0
    1.8273    3.1719    0.0000 C   0  0  0  0  0  0  0  0  0
    2.3793    3.7850    0.0000 C   0  0  0  0  0  0  0  0  0
    3.2043    3.7850    0.0000 C   0  0  0  0  0  0  0  0  0
    3.4592    4.5696    0.0000 C   0  0  0  0  0  0  0  0  0
    2.7918    5.0545    0.0000 N   0  0  0  0  0  0  0  0  0
    2.1244    4.5696    0.0000 C   0  0  0  0  0  0  0  0  0
    1.3174    4.7411    0.0000 C   0  0  0  0  0  0  0  0  0
    0.7654    4.1280    0.0000 C   0  0  0  0  0  0  0  0  0
    1.0203    3.3434    0.0000 C   0  0  0  0  0  0  0  0  0
    4.2662    4.7411    0.0000 C   0  0  0  0  0  0  0  0  0
    4.8182    4.1280    0.0000 C   0  0  0  0  0  0  0  0  0
    4.5633    3.3434    0.0000 C   0  0  0  0  0  0  0  0  0
    3.7563    3.1719    0.0000 C   0  0  0  0  0  0  0  0  0
  1  2  1  0  0  0  0
  1 22  1  0  0  0  0
  2  3  1  0  0  0  0
  3  4  1  0  0  0  0
  3  5  1  0  0  0  0
  5  6  1  0  0  0  0
  6  7  1  0  0  0  0
  6 11  1  0  0  0  0
  7  8  1  0  0  0  0
  8  9  1  0  0  0  0
  9 10  1  0  0  0  0
  9 12  1  0  0  0  0
 10 11  1  0  0  0  0
 12 13  2  0  0  0  0
 12 14  1  0  0  0  0
 14 15  4  0  0  0  0
 14 21  4  0  0  0  0
 15 16  4  0  0  0  0
 16 17  4  0  0  0  0
 17 18  1  0  0  0  0
 17 20  4  0  0  0  0
 18 19  1  0  0  0  0
 20 21  4  0  0  0  0
 22 23  4  0  0  0  0
 22 30  4  0  0  0  0
 23 24  4  0  0  0  0
 23 27  4  0  0  0  0
 24 25  4  0  0  0  0
 24 34  4  0  0  0  0
 25 26  4  0  0  0  0
 25 31  4  0  0  0  0
 26 27  4  0  0  0  0
 27 28  4  0  0  0  0
 28 29  4  0  0  0  0
 29 30  4  0  0  0  0
 31 32  4  0  0  0  0
 32 33  4  0  0  0  0
 33 34  4  0  0  0  0
M  STY  1   1 DAT
M  SAL   1  1  26
M  SDT   1 MRV_IMPLICIT_H                                        
M  SDD   1     0.0000    0.0000    DR    ALL  0       0  
M  SED   1 IMPL_H1
M  END
>  <Name_Molregno>
631063

>  <Beta-1>
7.89

>  <Beta-2>
9.7

$$$$
631064
  Marvin  02231216192D 0   1.00000     0.00000     0

 33 37  0  0  1  0  0  0  0  0999 V2000
    0.8880   -1.4248    0.0000 F   0  0  0  0  0  0  0  0  0
    1.4400   -0.8117    0.0000 C   0  0  0  0  0  0  0  0  0
    1.1851   -0.0271    0.0000 C   0  0  0  0  0  0  0  0  0
    1.7371    0.5860    0.0000 C   0  0  0  0  0  0  0  0  0
    2.5441    0.4145    0.0000 C   0  0  0  0  0  0  0  0  0
    2.7990   -0.3701    0.0000 C   0  0  0  0  0  0  0  0  0
    2.2470   -0.9832    0.0000 C   0  0  0  0  0  0  0  0  0
    3.0961    1.0276    0.0000 C   0  0  0  0  0  0  0  0  0
    2.8412    1.8122    0.0000 O   0  0  0  0  0  0  0  0  0
    3.9031    0.8561    0.0000 C   0  0  0  0  0  0  0  0  0
    4.4551    1.4692    0.0000 C   0  0  0  0  0  0  0  0  0
    5.2621    1.2976    0.0000 C   0  0  0  0  0  0  0  0  0
    5.5170    0.5130    0.0000 N   0  0  0  0  0  0  0  0  0
    4.9650   -0.1001    0.0000 C   0  0  0  0  0  0  0  0  0
    4.1580    0.0714    0.0000 C   0  0  0  0  0  0  0  0  0
    6.3240    0.3415    0.0000 C   0  0  0  0  0  0  0  0  0
    6.5789   -0.4431    0.0000 C   0  0  0  0  0  0  0  0  0
    6.0269   -1.0562    0.0000 O   0  0  0  0  0  0  0  0  0
    7.3859   -0.6147    0.0000 C   0  0  0  0  0  0  0  0  0
    7.9379   -0.0016    0.0000 O   0  0  0  0  0  0  0  0  0
    7.6830    0.7831    0.0000 C   0  0  0  0  0  0  0  0  0
    8.2350    1.3961    0.0000 C   0  0  0  0  0  0  0  0  0
    9.0600    1.3961    0.0000 C   0  0  0  0  0  0  0  0  0
    9.3150    2.1808    0.0000 C   0  0  0  0  0  0  0  0  0
    8.6475    2.6657    0.0000 N   0  0  0  0  0  0  0  0  0
    7.9801    2.1808    0.0000 C   0  0  0  0  0  0  0  0  0
    7.1731    2.3523    0.0000 C   0  0  0  0  0  0  0  0  0
    6.6211    1.7392    0.0000 C   0  0  0  0  0  0  0  0  0
    6.8760    0.9546    0.0000 C   0  0  0  0  0  0  0  0  0
   10.1219    2.3523    0.0000 C   0  0  0  0  0  0  0  0  0
   10.6740    1.7392    0.0000 C   0  0  0  0  0  0  0  0  0
   10.4190    0.9546    0.0000 C   0  0  0  0  0  0  0  0  0
    9.6121    0.7831    0.0000 C   0  0  0  0  0  0  0  0  0
  1  2  1  0  0  0  0
  2  3  4  0  0  0  0
  2  7  4  0  0  0  0
  3  4  4  0  0  0  0
  4  5  4  0  0  0  0
  5  6  4  0  0  0  0
  5  8  1  0  0  0  0
  6  7  4  0  0  0  0
  8  9  2  0  0  0  0
  8 10  1  0  0  0  0
 10 11  1  0  0  0  0
 10 15  1  0  0  0  0
 11 12  1  0  0  0  0
 12 13  1  0  0  0  0
 13 14  1  0  0  0  0
 13 16  1  0  0  0  0
 14 15  1  0  0  0  0
 16 17  1  0  0  0  0
 17 18  1  0  0  0  0
 17 19  1  0  0  0  0
 19 20  1  0  0  0  0
 20 21  1  0  0  0  0
 21 22  4  0  0  0  0
 21 29  4  0  0  0  0
 22 23  4  0  0  0  0
 22 26  4  0  0  0  0
 23 24  4  0  0  0  0
 23 33  4  0  0  0  0
 24 25  4  0  0  0  0
 24 30  4  0  0  0  0
 25 26  4  0  0  0  0
 26 27  4  0  0  0  0
 27 28  4  0  0  0  0
 28 29  4  0  0  0  0
 30 31  4  0  0  0  0
 31 32  4  0  0  0  0
 32 33  4  0  0  0  0
M  STY  1   1 DAT
M  SAL   1  1  25
M  SDT   1 MRV_IMPLICIT_H                                        
M  SDD   1     0.0000    0.0000    DR    ALL  0       0  
M  SED   1 IMPL_H1
M  END
>  <Name_Molregno>
631064

>  <Beta-1>
7.49

>  <Beta-2>
9.52

$$$$
687967
  Marvin  02231216192D 0   1.00000     0.00000     0

 21 22  0  0  1  0  0  0  0  0999 V2000
    0.4785   -1.7534    0.0000 S   0  0  0  0  0  0  0  0  0
    0.2235   -0.9688    0.0000 C   0  0  0  0  0  0  0  0  0
   -0.6015   -0.9688    0.0000 C   0  0  0  0  0  0  0  0  0
   -0.8564   -1.7534    0.0000 N   0  0  0  0  0  0  0  0  0
   -0.1890   -2.2384    0.0000 C   0  0  0  0  0  0  0  0  0
   -0.1890   -3.0634    0.0000 O   0  0  0  0  0  0  0  0  0
   -1.0140   -0.2544    0.0000 C   0  0  0  0  0  0  0  0  0
   -1.8390   -0.2544    0.0000 O   0  0  0  0  0  0  0  0  0
   -0.6015    0.4601    0.0000 C   0  0  0  0  0  0  0  0  0
    0.2235    0.4601    0.0000 C   0  0  0  0  0  0  0  0  0
    0.6360   -0.2544    0.0000 C   0  0  0  0  0  0  0  0  0
    1.4610   -0.2544    0.0000 C   0  0  0  0  0  0  0  0  0
    1.8735    0.4601    0.0000 O   0  0  0  0  0  0  0  0  0
    1.8735   -0.9688    0.0000 C   0  0  0  0  0  0  0  0  0
    2.6985   -0.9688    0.0000 N   0  0  0  0  0  0  0  0  0
    3.1110   -1.6833    0.0000 C   0  0  0  0  0  0  0  0  0
    3.9360   -1.6833    0.0000 C   0  0  0  0  0  0  0  0  0
    4.3485   -2.3978    0.0000 C   0  0  0  0  0  0  0  0  0
    5.1735   -2.3978    0.0000 C   0  0  0  0  0  0  0  0  0
    4.3485   -0.9688    0.0000 C   0  0  0  0  0  0  0  0  0
    5.1735   -0.9688    0.0000 C   0  0  0  0  0  0  0  0  0
  1  2  1  0  0  0  0
  1  5  1  0  0  0  0
  2  3  4  0  0  0  0
  2 11  4  0  0  0  0
  3  4  1  0  0  0  0
  3  7  4  0  0  0  0
  4  5  1  0  0  0  0
  5  6  2  0  0  0  0
  7  8  1  0  0  0  0
  7  9  4  0  0  0  0
  9 10  4  0  0  0  0
 10 11  4  0  0  0  0
 11 12  1  0  0  0  0
 12 13  1  0  0  0  0
 12 14  1  0  0  0  0
 14 15  1  0  0  0  0
 15 16  1  0  0  0  0
 16 17  1  0  0  0  0
 17 18  1  0  0  0  0
 17 20  1  0  0  0  0
 18 19  1  0  0  0  0
 20 21  1  0  0  0  0
M  END
>  <Name_Molregno>
687967

>  <Beta-1>
6.77

>  <Beta-2>
7.61

$$$$
687968
  Marvin  02231216192D 0   1.00000     0.00000     0

 23 25  0  0  1  0  0  0  0  0999 V2000
   -0.0552   -1.7695    0.0000 S   0  0  0  0  0  0  0  0  0
    0.1164   -0.9626    0.0000 C   0  0  0  0  0  0  0  0  0
   -0.5981   -0.5501    0.0000 C   0  0  0  0  0  0  0  0  0
   -1.2112   -1.1021    0.0000 N   0  0  0  0  0  0  0  0  0
   -0.8756   -1.8558    0.0000 C   0  0  0  0  0  0  0  0  0
   -1.2881   -2.5702    0.0000 O   0  0  0  0  0  0  0  0  0
   -0.5981    0.2749    0.0000 C   0  0  0  0  0  0  0  0  0
   -1.3126    0.6874    0.0000 O   0  0  0  0  0  0  0  0  0
    0.1164    0.6874    0.0000 C   0  0  0  0  0  0  0  0  0
    0.8308    0.2749    0.0000 C   0  0  0  0  0  0  0  0  0
    0.8308   -0.5501    0.0000 C   0  0  0  0  0  0  0  0  0
    1.5453   -0.9626    0.0000 C   0  0  0  0  0  0  0  0  0
    1.5453   -1.7876    0.0000 O   0  0  0  0  0  0  0  0  0
    2.2598   -0.5501    0.0000 C   0  0  0  0  0  0  0  0  0
    2.9743   -0.9626    0.0000 N   0  0  0  0  0  0  0  0  0
    3.6887   -0.5501    0.0000 C   0  0  0  0  0  0  0  0  0
    3.6887    0.2749    0.0000 C   0  0  0  0  0  0  0  0  0
    4.4032   -0.9626    0.0000 C   0  0  0  0  0  0  0  0  0
    5.1177   -0.5501    0.0000 C   0  0  0  0  0  0  0  0  0
    5.8321   -0.9626    0.0000 C   0  0  0  0  0  0  0  0  0
    5.8321   -1.7876    0.0000 C   0  0  0  0  0  0  0  0  0
    5.1177   -2.2001    0.0000 C   0  0  0  0  0  0  0  0  0
    4.4032   -1.7876    0.0000 C   0  0  0  0  0  0  0  0  0
  1  2  1  0  0  0  0
  1  5  1  0  0  0  0
  2  3  4  0  0  0  0
  2 11  4  0  0  0  0
  3  4  1  0  0  0  0
  3  7  4  0  0  0  0
  4  5  1  0  0  0  0
  5  6  2  0  0  0  0
  7  8  1  0  0  0  0
  7  9  4  0  0  0  0
  9 10  4  0  0  0  0
 10 11  4  0  0  0  0
 11 12  1  0  0  0  0
 12 13  1  0  0  0  0
 12 14  1  0  0  0  0
 14 15  1  0  0  0  0
 15 16  1  0  0  0  0
 16 17  1  0  0  0  0
 16 18  1  0  0  0  0
 18 19  1  0  0  0  0
 18 23  1  0  0  0  0
 19 20  1  0  0  0  0
 20 21  1  0  0  0  0
 21 22  1  0  0  0  0
 22 23  1  0  0  0  0
M  END
>  <Name_Molregno>
687968

>  <Beta-1>
8.11

>  <Beta-2>
8.3

$$$$
687970
  Marvin  02231216192D 0   1.00000     0.00000     0

 23 24  0  0  1  0  0  0  0  0999 V2000
    1.2494   -0.1333    0.0000 S   0  0  0  0  0  0  0  0  0
    0.6363    0.4187    0.0000 C   0  0  0  0  0  0  0  0  0
   -0.0781    0.0062    0.0000 C   0  0  0  0  0  0  0  0  0
    0.0934   -0.8007    0.0000 N   0  0  0  0  0  0  0  0  0
    0.9139   -0.8870    0.0000 C   0  0  0  0  0  0  0  0  0
    1.3264   -1.6014    0.0000 O   0  0  0  0  0  0  0  0  0
   -0.7926    0.4187    0.0000 C   0  0  0  0  0  0  0  0  0
   -1.5071    0.0062    0.0000 O   0  0  0  0  0  0  0  0  0
   -0.7926    1.2437    0.0000 C   0  0  0  0  0  0  0  0  0
   -0.0781    1.6562    0.0000 C   0  0  0  0  0  0  0  0  0
    0.6363    1.2437    0.0000 C   0  0  0  0  0  0  0  0  0
    1.3508    1.6562    0.0000 C   0  0  0  0  0  0  0  0  0
    1.3508    2.4812    0.0000 O   0  0  0  0  0  0  0  0  0
    2.0653    1.2437    0.0000 C   0  0  0  0  0  0  0  0  0
    2.7797    1.6562    0.0000 N   0  0  0  0  0  0  0  0  0
    3.4942    1.2437    0.0000 C   0  0  0  0  0  0  0  0  0
    4.2087    0.8312    0.0000 C   0  0  0  0  0  0  0  0  0
    4.9232    1.2437    0.0000 C   0  0  0  0  0  0  0  0  0
    5.6376    1.6562    0.0000 C   0  0  0  0  0  0  0  0  0
    5.3357    0.5293    0.0000 C   0  0  0  0  0  0  0  0  0
    4.5107    1.9582    0.0000 C   0  0  0  0  0  0  0  0  0
    3.0817    0.5293    0.0000 C   0  0  0  0  0  0  0  0  0
    3.9067    1.9582    0.0000 C   0  0  0  0  0  0  0  0  0
  1  2  1  0  0  0  0
  1  5  1  0  0  0  0
  2  3  4  0  0  0  0
  2 11  4  0  0  0  0
  3  4  1  0  0  0  0
  3  7  4  0  0  0  0
  4  5  1  0  0  0  0
  5  6  2  0  0  0  0
  7  8  1  0  0  0  0
  7  9  4  0  0  0  0
  9 10  4  0  0  0  0
 10 11  4  0  0  0  0
 11 12  1  0  0  0  0
 12 13  1  0  0  0  0
 12 14  1  0  0  0  0
 14 15  1  0  0  0  0
 15 16  1  0  0  0  0
 16 17  1  0  0  0  0
 16 22  1  0  0  0  0
 16 23  1  0  0  0  0
 17 18  1  0  0  0  0
 18 19  1  0  0  0  0
 18 20  1  0  0  0  0
 18 21  1  0  0  0  0
M  END
>  <Name_Molregno>
687970

>  <Beta-1>
8.04

>  <Beta-2>
8.72

$$$$
688014
  Marvin  02231216192D 0   1.00000     0.00000     0

 26 30  0  0  1  0  0  0  0  0999 V2000
    2.7499   -0.5246    0.0000 S   0  0  0  0  0  0  0  0  0
    1.9653   -0.7795    0.0000 C   0  0  0  0  0  0  0  0  0
    1.9653   -1.6045    0.0000 C   0  0  0  0  0  0  0  0  0
    2.7500   -1.8594    0.0000 N   0  0  0  0  0  0  0  0  0
    3.2349   -1.1920    0.0000 C   0  0  0  0  0  0  0  0  0
    4.0599   -1.1919    0.0000 O   0  0  0  0  0  0  0  0  0
    1.2509   -2.0171    0.0000 C   0  0  0  0  0  0  0  0  0
    1.2509   -2.8421    0.0000 O   0  0  0  0  0  0  0  0  0
    0.5364   -1.6046    0.0000 C   0  0  0  0  0  0  0  0  0
    0.5364   -0.7796    0.0000 C   0  0  0  0  0  0  0  0  0
    1.2508   -0.3671    0.0000 C   0  0  0  0  0  0  0  0  0
    1.2508    0.4579    0.0000 C   0  0  0  0  0  0  0  0  0
    0.5363    0.8704    0.0000 O   0  0  0  0  0  0  0  0  0
    1.9652    0.8705    0.0000 C   0  0  0  0  0  0  0  0  0
    1.9652    1.6955    0.0000 N   0  0  0  0  0  0  0  0  0
    2.6796    2.1080    0.0000 C   0  0  0  0  0  0  0  0  0
    2.6796    2.9330    0.0000 C   0  0  0  0  0  0  0  0  0
    1.9442    2.5593    0.0000 C   0  0  0  0  0  0  0  0  0
    2.3936    3.3496    0.0000 C   0  0  0  0  0  0  0  0  0
    2.3936    4.0970    0.0000 C   0  0  0  0  0  0  0  0  0
    3.1291    4.4707    0.0000 C   0  0  0  0  0  0  0  0  0
    2.6796    3.6804    0.0000 C   0  0  0  0  0  0  0  0  0
    3.8647    4.0970    0.0000 C   0  0  0  0  0  0  0  0  0
    3.8647    3.3496    0.0000 C   0  0  0  0  0  0  0  0  0
    3.4152    2.5593    0.0000 C   0  0  0  0  0  0  0  0  0
    3.1291    2.9759    0.0000 C   0  0  0  0  0  0  0  0  0
  1  2  1  0  0  0  0
  1  5  1  0  0  0  0
  2  3  4  0  0  0  0
  2 11  4  0  0  0  0
  3  4  1  0  0  0  0
  3  7  4  0  0  0  0
  4  5  1  0  0  0  0
  5  6  2  0  0  0  0
  7  8  1  0  0  0  0
  7  9  4  0  0  0  0
  9 10  4  0  0  0  0
 10 11  4  0  0  0  0
 11 12  1  0  0  0  0
 12 13  1  0  0  0  0
 12 14  1  0  0  0  0
 14 15  1  0  0  0  0
 15 16  1  0  0  0  0
 16 17  1  0  0  0  0
 17 18  1  0  0  0  0
 24 26  1  0  0  0  0
 17 25  1  0  0  0  0
 18 19  1  0  0  0  0
 24 25  1  0  0  0  0
 19 26  1  0  0  0  0
 20 21  1  0  0  0  0
 21 22  1  0  0  0  0
 21 23  1  0  0  0  0
 23 24  1  0  0  0  0
 19 20  1  0  0  0  0
 17 22  1  0  0  0  0
M  END
>  <Name_Molregno>
688014

>  <Beta-1>
7.45

>  <Beta-2>
7.58

$$$$
688015
  Marvin  02231216192D 0   1.00000     0.00000     0

 23 25  0  0  1  0  0  0  0  0999 V2000
    1.3501   -1.3056    0.0000 S   0  0  0  0  0  0  0  0  0
    0.7370   -0.7536    0.0000 C   0  0  0  0  0  0  0  0  0
    0.0226   -1.1661    0.0000 C   0  0  0  0  0  0  0  0  0
    0.1941   -1.9730    0.0000 N   0  0  0  0  0  0  0  0  0
    1.0146   -2.0593    0.0000 C   0  0  0  0  0  0  0  0  0
    1.4271   -2.7737    0.0000 O   0  0  0  0  0  0  0  0  0
   -0.6919   -0.7536    0.0000 C   0  0  0  0  0  0  0  0  0
   -1.4064   -1.1661    0.0000 O   0  0  0  0  0  0  0  0  0
   -0.6919    0.0714    0.0000 C   0  0  0  0  0  0  0  0  0
    0.0226    0.4839    0.0000 C   0  0  0  0  0  0  0  0  0
    0.7370    0.0714    0.0000 C   0  0  0  0  0  0  0  0  0
    1.4515    0.4839    0.0000 C   0  0  0  0  0  0  0  0  0
    1.4515    1.3089    0.0000 O   0  0  0  0  0  0  0  0  0
    2.1660    0.0714    0.0000 C   0  0  0  0  0  0  0  0  0
    2.8805    0.4839    0.0000 N   0  0  0  0  0  0  0  0  0
    3.5949    0.0714    0.0000 C   0  0  0  0  0  0  0  0  0
    4.3094    0.4839    0.0000 C   0  0  0  0  0  0  0  0  0
    5.0239    0.0714    0.0000 C   0  0  0  0  0  0  0  0  0
    5.7383    0.4839    0.0000 C   0  0  0  0  0  0  0  0  0
    6.4528    0.0714    0.0000 C   0  0  0  0  0  0  0  0  0
    6.4528   -0.7536    0.0000 C   0  0  0  0  0  0  0  0  0
    5.7383   -1.1661    0.0000 C   0  0  0  0  0  0  0  0  0
    5.0239   -0.7536    0.0000 C   0  0  0  0  0  0  0  0  0
  1  2  1  0  0  0  0
  1  5  1  0  0  0  0
  2  3  4  0  0  0  0
  2 11  4  0  0  0  0
  3  4  1  0  0  0  0
  3  7  4  0  0  0  0
  4  5  1  0  0  0  0
  5  6  2  0  0  0  0
  7  8  1  0  0  0  0
  7  9  4  0  0  0  0
  9 10  4  0  0  0  0
 10 11  4  0  0  0  0
 11 12  1  0  0  0  0
 12 13  1  0  0  0  0
 12 14  1  0  0  0  0
 14 15  1  0  0  0  0
 15 16  1  0  0  0  0
 16 17  1  0  0  0  0
 17 18  1  0  0  0  0
 18 19  4  0  0  0  0
 18 23  4  0  0  0  0
 19 20  4  0  0  0  0
 20 21  4  0  0  0  0
 21 22  4  0  0  0  0
 22 23  4  0  0  0  0
M  END
>  <Name_Molregno>
688015

>  <Beta-1>
8.42

>  <Beta-2>
8.74

$$$$
688016
  Marvin  02231216192D 0   1.00000     0.00000     0

 28 31  0  0  1  0  0  0  0  0999 V2000
    0.2520    0.6495    0.0000 S   0  0  0  0  0  0  0  0  0
    1.0367    0.9044    0.0000 C   0  0  0  0  0  0  0  0  0
    1.0367    1.7294    0.0000 C   0  0  0  0  0  0  0  0  0
    0.2520    1.9844    0.0000 N   0  0  0  0  0  0  0  0  0
   -0.2329    1.3169    0.0000 C   0  0  0  0  0  0  0  0  0
   -1.0579    1.3169    0.0000 O   0  0  0  0  0  0  0  0  0
    1.7511    2.1419    0.0000 C   0  0  0  0  0  0  0  0  0
    1.7511    2.9669    0.0000 O   0  0  0  0  0  0  0  0  0
    2.4656    1.7294    0.0000 C   0  0  0  0  0  0  0  0  0
    2.4656    0.9044    0.0000 C   0  0  0  0  0  0  0  0  0
    1.7511    0.4919    0.0000 C   0  0  0  0  0  0  0  0  0
    1.7511   -0.3331    0.0000 C   0  0  0  0  0  0  0  0  0
    1.0367   -0.7456    0.0000 O   0  0  0  0  0  0  0  0  0
    2.4656   -0.7456    0.0000 C   0  0  0  0  0  0  0  0  0
    2.4656   -1.5706    0.0000 N   0  0  0  0  0  0  0  0  0
    3.1801   -1.9831    0.0000 C   0  0  0  0  0  0  0  0  0
    3.1801   -2.8081    0.0000 C   0  0  0  0  0  0  0  0  0
    3.8475   -3.2930    0.0000 C   0  0  0  0  0  0  0  0  0
    3.5926   -4.0776    0.0000 N   0  0  0  0  0  0  0  0  0
    2.7676   -4.0776    0.0000 O   0  0  0  0  0  0  0  0  0
    2.5126   -3.2930    0.0000 C   0  0  0  0  0  0  0  0  0
    1.7280   -3.0381    0.0000 C   0  0  0  0  0  0  0  0  0
    4.6321   -3.0381    0.0000 C   0  0  0  0  0  0  0  0  0
    4.8037   -2.2311    0.0000 C   0  0  0  0  0  0  0  0  0
    5.5883   -1.9762    0.0000 C   0  0  0  0  0  0  0  0  0
    6.2014   -2.5282    0.0000 C   0  0  0  0  0  0  0  0  0
    6.0299   -3.3352    0.0000 C   0  0  0  0  0  0  0  0  0
    5.2452   -3.5901    0.0000 C   0  0  0  0  0  0  0  0  0
  1  2  1  0  0  0  0
  1  5  1  0  0  0  0
  2  3  4  0  0  0  0
  2 11  4  0  0  0  0
  3  4  1  0  0  0  0
  3  7  4  0  0  0  0
  4  5  1  0  0  0  0
  5  6  2  0  0  0  0
  7  8  1  0  0  0  0
  7  9  4  0  0  0  0
  9 10  4  0  0  0  0
 10 11  4  0  0  0  0
 11 12  1  0  0  0  0
 12 13  1  0  0  0  0
 12 14  1  0  0  0  0
 14 15  1  0  0  0  0
 15 16  1  0  0  0  0
 16 17  1  0  0  0  0
 17 18  4  0  0  0  0
 17 21  4  0  0  0  0
 18 19  4  0  0  0  0
 18 23  1  0  0  0  0
 19 20  4  0  0  0  0
 20 21  4  0  0  0  0
 21 22  1  0  0  0  0
 23 24  4  0  0  0  0
 23 28  4  0  0  0  0
 24 25  4  0  0  0  0
 25 26  4  0  0  0  0
 26 27  4  0  0  0  0
 27 28  4  0  0  0  0
M  END
>  <Name_Molregno>
688016

>  <Beta-1>
6.04

>  <Beta-2>
7.7

$$$$
688017
  Marvin  02231216192D 0   1.00000     0.00000     0

 24 26  0  0  1  0  0  0  0  0999 V2000
   -0.1287   -1.8500    0.0000 S   0  0  0  0  0  0  0  0  0
    0.0429   -1.0430    0.0000 C   0  0  0  0  0  0  0  0  0
   -0.6716   -0.6305    0.0000 C   0  0  0  0  0  0  0  0  0
   -1.2847   -1.1825    0.0000 N   0  0  0  0  0  0  0  0  0
   -0.9491   -1.9362    0.0000 C   0  0  0  0  0  0  0  0  0
   -1.3616   -2.6507    0.0000 O   0  0  0  0  0  0  0  0  0
   -0.6716    0.1945    0.0000 C   0  0  0  0  0  0  0  0  0
   -1.3861    0.6070    0.0000 O   0  0  0  0  0  0  0  0  0
    0.0429    0.6070    0.0000 C   0  0  0  0  0  0  0  0  0
    0.7573    0.1945    0.0000 C   0  0  0  0  0  0  0  0  0
    0.7573   -0.6305    0.0000 C   0  0  0  0  0  0  0  0  0
    1.4718   -1.0430    0.0000 C   0  0  0  0  0  0  0  0  0
    1.4718   -1.8680    0.0000 O   0  0  0  0  0  0  0  0  0
    2.1863   -0.6305    0.0000 C   0  0  0  0  0  0  0  0  0
    2.9008   -1.0430    0.0000 N   0  0  0  0  0  0  0  0  0
    3.6152   -0.6305    0.0000 C   0  0  0  0  0  0  0  0  0
    4.3297   -1.0430    0.0000 C   0  0  0  0  0  0  0  0  0
    5.0442   -0.6305    0.0000 C   0  0  0  0  0  0  0  0  0
    5.7586   -1.0430    0.0000 C   0  0  0  0  0  0  0  0  0
    6.4731   -0.6305    0.0000 C   0  0  0  0  0  0  0  0  0
    7.1876   -1.0430    0.0000 C   0  0  0  0  0  0  0  0  0
    7.1876   -1.8680    0.0000 C   0  0  0  0  0  0  0  0  0
    6.4731   -2.2805    0.0000 C   0  0  0  0  0  0  0  0  0
    5.7586   -1.8680    0.0000 C   0  0  0  0  0  0  0  0  0
  1  2  1  0  0  0  0
  1  5  1  0  0  0  0
  2  3  4  0  0  0  0
  2 11  4  0  0  0  0
  3  4  1  0  0  0  0
  3  7  4  0  0  0  0
  4  5  1  0  0  0  0
  5  6  2  0  0  0  0
  7  8  1  0  0  0  0
  7  9  4  0  0  0  0
  9 10  4  0  0  0  0
 10 11  4  0  0  0  0
 11 12  1  0  0  0  0
 12 13  1  0  0  0  0
 12 14  1  0  0  0  0
 14 15  1  0  0  0  0
 15 16  1  0  0  0  0
 16 17  1  0  0  0  0
 17 18  1  0  0  0  0
 18 19  1  0  0  0  0
 19 20  4  0  0  0  0
 19 24  4  0  0  0  0
 20 21  4  0  0  0  0
 21 22  4  0  0  0  0
 22 23  4  0  0  0  0
 23 24  4  0  0  0  0
M  END
>  <Name_Molregno>
688017

>  <Beta-1>
8.7

>  <Beta-2>
8.92

$$$$
688018
  Marvin  02231216192D 0   1.00000     0.00000     0

 25 27  0  0  1  0  0  0  0  0999 V2000
   -0.2585   -1.3352    0.0000 S   0  0  0  0  0  0  0  0  0
    0.1301   -0.6074    0.0000 C   0  0  0  0  0  0  0  0  0
   -0.4420   -0.0129    0.0000 C   0  0  0  0  0  0  0  0  0
   -1.1841   -0.3733    0.0000 N   0  0  0  0  0  0  0  0  0
   -1.0707   -1.1904    0.0000 C   0  0  0  0  0  0  0  0  0
   -1.6652   -1.7625    0.0000 O   0  0  0  0  0  0  0  0  0
   -0.2131    0.7797    0.0000 C   0  0  0  0  0  0  0  0  0
   -0.7852    1.3742    0.0000 O   0  0  0  0  0  0  0  0  0
    0.5877    0.9779    0.0000 C   0  0  0  0  0  0  0  0  0
    1.1597    0.3834    0.0000 C   0  0  0  0  0  0  0  0  0
    0.9309   -0.4093    0.0000 C   0  0  0  0  0  0  0  0  0
    1.5030   -1.0037    0.0000 C   0  0  0  0  0  0  0  0  0
    1.2741   -1.7964    0.0000 O   0  0  0  0  0  0  0  0  0
    2.3038   -0.8056    0.0000 C   0  0  0  0  0  0  0  0  0
    2.8758   -1.4001    0.0000 N   0  0  0  0  0  0  0  0  0
    3.6767   -1.2019    0.0000 C   0  0  0  0  0  0  0  0  0
    4.4775   -1.0037    0.0000 C   0  0  0  0  0  0  0  0  0
    5.0496   -1.5982    0.0000 C   0  0  0  0  0  0  0  0  0
    5.8504   -1.4001    0.0000 C   0  0  0  0  0  0  0  0  0
    6.4225   -1.9945    0.0000 C   0  0  0  0  0  0  0  0  0
    6.1936   -2.7872    0.0000 C   0  0  0  0  0  0  0  0  0
    5.3928   -2.9853    0.0000 C   0  0  0  0  0  0  0  0  0
    4.8208   -2.3908    0.0000 C   0  0  0  0  0  0  0  0  0
    3.8748   -2.0027    0.0000 C   0  0  0  0  0  0  0  0  0
    3.4785   -0.4010    0.0000 C   0  0  0  0  0  0  0  0  0
  1  2  1  0  0  0  0
  1  5  1  0  0  0  0
  2  3  4  0  0  0  0
  2 11  4  0  0  0  0
  3  4  1  0  0  0  0
  3  7  4  0  0  0  0
  4  5  1  0  0  0  0
  5  6  2  0  0  0  0
  7  8  1  0  0  0  0
  7  9  4  0  0  0  0
  9 10  4  0  0  0  0
 10 11  4  0  0  0  0
 11 12  1  0  0  0  0
 12 13  1  0  0  0  0
 12 14  1  0  0  0  0
 14 15  1  0  0  0  0
 15 16  1  0  0  0  0
 16 17  1  0  0  0  0
 16 24  1  0  0  0  0
 16 25  1  0  0  0  0
 17 18  1  0  0  0  0
 18 19  4  0  0  0  0
 18 23  4  0  0  0  0
 19 20  4  0  0  0  0
 20 21  4  0  0  0  0
 21 22  4  0  0  0  0
 22 23  4  0  0  0  0
M  END
>  <Name_Molregno>
688018

>  <Beta-1>
8.74

>  <Beta-2>
9.4

$$$$
688062
  Marvin  02231216192D 0   1.00000     0.00000     0

 25 28  0  0  1  0  0  0  0  0999 V2000
    0.6738    1.2902    0.0000 S   0  0  0  0  0  0  0  0  0
    0.8453    2.0972    0.0000 C   0  0  0  0  0  0  0  0  0
    0.1309    2.5097    0.0000 C   0  0  0  0  0  0  0  0  0
   -0.4822    1.9576    0.0000 N   0  0  0  0  0  0  0  0  0
   -0.1467    1.2039    0.0000 C   0  0  0  0  0  0  0  0  0
   -0.5592    0.4895    0.0000 O   0  0  0  0  0  0  0  0  0
    0.1309    3.3347    0.0000 C   0  0  0  0  0  0  0  0  0
   -0.5836    3.7472    0.0000 O   0  0  0  0  0  0  0  0  0
    0.8453    3.7472    0.0000 C   0  0  0  0  0  0  0  0  0
    1.5598    3.3347    0.0000 C   0  0  0  0  0  0  0  0  0
    1.5598    2.5097    0.0000 C   0  0  0  0  0  0  0  0  0
    2.2743    2.0972    0.0000 C   0  0  0  0  0  0  0  0  0
    2.9888    2.5097    0.0000 O   0  0  0  0  0  0  0  0  0
    2.2743    1.2722    0.0000 C   0  0  0  0  0  0  0  0  0
    2.9888    0.8597    0.0000 N   0  0  0  0  0  0  0  0  0
    2.9888    0.0347    0.0000 C   0  0  0  0  0  0  0  0  0
    2.2743   -0.3778    0.0000 C   0  0  0  0  0  0  0  0  0
    2.2743   -1.2028    0.0000 C   0  0  0  0  0  0  0  0  0
    2.9888   -1.6153    0.0000 C   0  0  0  0  0  0  0  0  0
    3.7032   -1.2028    0.0000 C   0  0  0  0  0  0  0  0  0
    3.7032   -0.3778    0.0000 C   0  0  0  0  0  0  0  0  0
    4.4177    0.0347    0.0000 C   0  0  0  0  0  0  0  0  0
    5.1322   -0.3778    0.0000 C   0  0  0  0  0  0  0  0  0
    5.1322   -1.2028    0.0000 C   0  0  0  0  0  0  0  0  0
    4.4177   -1.6153    0.0000 C   0  0  0  0  0  0  0  0  0
  1  2  1  0  0  0  0
  1  5  1  0  0  0  0
  2  3  4  0  0  0  0
  2 11  4  0  0  0  0
  3  4  1  0  0  0  0
  3  7  4  0  0  0  0
  4  5  1  0  0  0  0
  5  6  2  0  0  0  0
  7  8  1  0  0  0  0
  7  9  4  0  0  0  0
  9 10  4  0  0  0  0
 10 11  4  0  0  0  0
 11 12  1  0  0  0  0
 12 13  1  0  0  0  0
 12 14  1  0  0  0  0
 14 15  1  0  0  0  0
 15 16  1  0  0  0  0
 16 17  1  0  0  0  0
 16 21  1  0  0  0  0
 17 18  1  0  0  0  0
 18 19  1  0  0  0  0
 19 20  1  0  0  0  0
 20 21  4  0  0  0  0
 20 25  4  0  0  0  0
 21 22  4  0  0  0  0
 22 23  4  0  0  0  0
 23 24  4  0  0  0  0
 24 25  4  0  0  0  0
M  END
>  <Name_Molregno>
688062

>  <Beta-1>
7.09

>  <Beta-2>
7.77

$$$$
688064
  Marvin  02231216192D 0   1.00000     0.00000     0

 25 27  0  0  1  0  0  0  0  0999 V2000
    1.2220   -1.7323    0.0000 S   0  0  0  0  0  0  0  0  0
    0.6089   -1.1802    0.0000 C   0  0  0  0  0  0  0  0  0
   -0.1056   -1.5927    0.0000 C   0  0  0  0  0  0  0  0  0
    0.0659   -2.3997    0.0000 N   0  0  0  0  0  0  0  0  0
    0.8864   -2.4859    0.0000 C   0  0  0  0  0  0  0  0  0
    1.2989   -3.2004    0.0000 O   0  0  0  0  0  0  0  0  0
   -0.8201   -1.1802    0.0000 C   0  0  0  0  0  0  0  0  0
   -1.5345   -1.5927    0.0000 O   0  0  0  0  0  0  0  0  0
   -0.8201   -0.3552    0.0000 C   0  0  0  0  0  0  0  0  0
   -0.1056    0.0573    0.0000 C   0  0  0  0  0  0  0  0  0
    0.6089   -0.3552    0.0000 C   0  0  0  0  0  0  0  0  0
    1.3233    0.0573    0.0000 C   0  0  0  0  0  0  0  0  0
    1.3233    0.8823    0.0000 O   0  0  0  0  0  0  0  0  0
    2.0378   -0.3552    0.0000 C   0  0  0  0  0  0  0  0  0
    2.7523    0.0573    0.0000 N   0  0  0  0  0  0  0  0  0
    3.4667   -0.3552    0.0000 C   0  0  0  0  0  0  0  0  0
    4.1812    0.0573    0.0000 C   0  0  0  0  0  0  0  0  0
    4.8957   -0.3552    0.0000 C   0  0  0  0  0  0  0  0  0
    5.6102    0.0573    0.0000 C   0  0  0  0  0  0  0  0  0
    6.3246   -0.3552    0.0000 C   0  0  0  0  0  0  0  0  0
    7.0391    0.0573    0.0000 C   0  0  0  0  0  0  0  0  0
    7.7536   -0.3552    0.0000 C   0  0  0  0  0  0  0  0  0
    7.7536   -1.1802    0.0000 C   0  0  0  0  0  0  0  0  0
    7.0391   -1.5927    0.0000 C   0  0  0  0  0  0  0  0  0
    6.3246   -1.1802    0.0000 C   0  0  0  0  0  0  0  0  0
  1  2  1  0  0  0  0
  1  5  1  0  0  0  0
  2  3  4  0  0  0  0
  2 11  4  0  0  0  0
  3  4  1  0  0  0  0
  3  7  4  0  0  0  0
  4  5  1  0  0  0  0
  5  6  2  0  0  0  0
  7  8  1  0  0  0  0
  7  9  4  0  0  0  0
  9 10  4  0  0  0  0
 10 11  4  0  0  0  0
 11 12  1  0  0  0  0
 12 13  1  0  0  0  0
 12 14  1  0  0  0  0
 14 15  1  0  0  0  0
 15 16  1  0  0  0  0
 16 17  1  0  0  0  0
 17 18  1  0  0  0  0
 18 19  1  0  0  0  0
 19 20  1  0  0  0  0
 20 21  4  0  0  0  0
 20 25  4  0  0  0  0
 21 22  4  0  0  0  0
 22 23  4  0  0  0  0
 23 24  4  0  0  0  0
 24 25  4  0  0  0  0
M  END
>  <Name_Molregno>
688064

>  <Beta-1>
7.82

>  <Beta-2>
8.74

$$$$
688065
  Marvin  02231216192D 0   1.00000     0.00000     0

 27 30  0  0  1  0  0  0  0  0999 V2000
    1.1428   -0.4876    0.0000 S   0  0  0  0  0  0  0  0  0
    0.5297    0.0644    0.0000 C   0  0  0  0  0  0  0  0  0
   -0.1847   -0.3481    0.0000 C   0  0  0  0  0  0  0  0  0
   -0.0132   -1.1550    0.0000 N   0  0  0  0  0  0  0  0  0
    0.8073   -1.2413    0.0000 C   0  0  0  0  0  0  0  0  0
    1.2198   -1.9558    0.0000 O   0  0  0  0  0  0  0  0  0
   -0.8992    0.0644    0.0000 C   0  0  0  0  0  0  0  0  0
   -1.6137   -0.3481    0.0000 O   0  0  0  0  0  0  0  0  0
   -0.8992    0.8894    0.0000 C   0  0  0  0  0  0  0  0  0
   -0.1847    1.3019    0.0000 C   0  0  0  0  0  0  0  0  0
    0.5297    0.8894    0.0000 C   0  0  0  0  0  0  0  0  0
    1.2442    1.3019    0.0000 C   0  0  0  0  0  0  0  0  0
    1.2442    2.1269    0.0000 O   0  0  0  0  0  0  0  0  0
    1.9587    0.8894    0.0000 C   0  0  0  0  0  0  0  0  0
    2.6731    1.3019    0.0000 N   0  0  0  0  0  0  0  0  0
    3.3876    0.8894    0.0000 C   0  0  0  0  0  0  0  0  0
    3.3876    0.0644    0.0000 C   0  0  0  0  0  0  0  0  0
    4.1021    1.3019    0.0000 C   0  0  0  0  0  0  0  0  0
    4.8166    0.8894    0.0000 C   0  0  0  0  0  0  0  0  0
    5.5310    1.3019    0.0000 C   0  0  0  0  0  0  0  0  0
    5.5310    2.1269    0.0000 C   0  0  0  0  0  0  0  0  0
    4.8166    2.5394    0.0000 C   0  0  0  0  0  0  0  0  0
    4.1021    2.1269    0.0000 C   0  0  0  0  0  0  0  0  0
    6.2455    2.5394    0.0000 C   0  0  0  0  0  0  0  0  0
    6.9600    2.1269    0.0000 C   0  0  0  0  0  0  0  0  0
    6.9600    1.3019    0.0000 C   0  0  0  0  0  0  0  0  0
    6.2455    0.8894    0.0000 C   0  0  0  0  0  0  0  0  0
  1  2  1  0  0  0  0
  1  5  1  0  0  0  0
  2  3  4  0  0  0  0
  2 11  4  0  0  0  0
  3  4  1  0  0  0  0
  3  7  4  0  0  0  0
  4  5  1  0  0  0  0
  5  6  2  0  0  0  0
  7  8  1  0  0  0  0
  7  9  4  0  0  0  0
  9 10  4  0  0  0  0
 10 11  4  0  0  0  0
 11 12  1  0  0  0  0
 12 13  1  0  0  0  0
 12 14  1  0  0  0  0
 14 15  1  0  0  0  0
 15 16  1  0  0  0  0
 16 17  1  0  0  0  0
 16 18  1  0  0  0  0
 18 19  4  0  0  0  0
 18 23  4  0  0  0  0
 19 20  4  0  0  0  0
 20 21  4  0  0  0  0
 20 27  4  0  0  0  0
 21 22  4  0  0  0  0
 21 24  4  0  0  0  0
 22 23  4  0  0  0  0
 24 25  4  0  0  0  0
 25 26  4  0  0  0  0
 26 27  4  0  0  0  0
M  END
>  <Name_Molregno>
688065

>  <Beta-1>
8.16

>  <Beta-2>
7.94

$$$$
688108
  Marvin  02231216192D 0   1.00000     0.00000     0

 22 24  0  0  1  0  0  0  0  0999 V2000
    1.5257    1.4854    0.0000 S   0  0  0  0  0  0  0  0  0
    2.3103    1.7403    0.0000 C   0  0  0  0  0  0  0  0  0
    2.3103    2.5653    0.0000 C   0  0  0  0  0  0  0  0  0
    1.5257    2.8203    0.0000 N   0  0  0  0  0  0  0  0  0
    1.0408    2.1528    0.0000 C   0  0  0  0  0  0  0  0  0
    0.2158    2.1528    0.0000 O   0  0  0  0  0  0  0  0  0
    3.0248    2.9778    0.0000 C   0  0  0  0  0  0  0  0  0
    3.0248    3.8028    0.0000 O   0  0  0  0  0  0  0  0  0
    3.7393    2.5653    0.0000 C   0  0  0  0  0  0  0  0  0
    3.7393    1.7403    0.0000 C   0  0  0  0  0  0  0  0  0
    3.0248    1.3278    0.0000 C   0  0  0  0  0  0  0  0  0
    3.0248    0.5028    0.0000 C   0  0  0  0  0  0  0  0  0
    3.7393    0.0903    0.0000 O   0  0  0  0  0  0  0  0  0
    2.3103    0.0903    0.0000 C   0  0  0  0  0  0  0  0  0
    2.3103   -0.7347    0.0000 N   0  0  0  0  0  0  0  0  0
    1.5959   -1.1472    0.0000 C   0  0  0  0  0  0  0  0  0
    1.6575   -1.9698    0.0000 C   0  0  0  0  0  0  0  0  0
    1.0528   -2.5310    0.0000 C   0  0  0  0  0  0  0  0  0
    0.2370   -2.4080    0.0000 C   0  0  0  0  0  0  0  0  0
   -0.1755   -1.6936    0.0000 C   0  0  0  0  0  0  0  0  0
    0.1259   -0.9256    0.0000 C   0  0  0  0  0  0  0  0  0
    0.9142   -0.6824    0.0000 C   0  0  0  0  0  0  0  0  0
  1  2  1  0  0  0  0
  1  5  1  0  0  0  0
  2  3  4  0  0  0  0
  2 11  4  0  0  0  0
  3  4  1  0  0  0  0
  3  7  4  0  0  0  0
  4  5  1  0  0  0  0
  5  6  2  0  0  0  0
  7  8  1  0  0  0  0
  7  9  4  0  0  0  0
  9 10  4  0  0  0  0
 10 11  4  0  0  0  0
 11 12  1  0  0  0  0
 12 13  1  0  0  0  0
 12 14  1  0  0  0  0
 14 15  1  0  0  0  0
 15 16  1  0  0  0  0
 16 17  1  0  0  0  0
 16 22  1  0  0  0  0
 17 18  1  0  0  0  0
 18 19  1  0  0  0  0
 19 20  1  0  0  0  0
 20 21  1  0  0  0  0
 21 22  1  0  0  0  0
M  END
>  <Name_Molregno>
688108

>  <Beta-1>
7.1

>  <Beta-2>
7.93

$$$$
688109
  Marvin  02231216192D 0   1.00000     0.00000     0

 28 31  0  0  1  0  0  0  0  0999 V2000
    0.0178    0.7522    0.0000 S   0  0  0  0  0  0  0  0  0
    0.8024    1.0071    0.0000 C   0  0  0  0  0  0  0  0  0
    0.8024    1.8321    0.0000 C   0  0  0  0  0  0  0  0  0
    0.0178    2.0871    0.0000 N   0  0  0  0  0  0  0  0  0
   -0.4671    1.4196    0.0000 C   0  0  0  0  0  0  0  0  0
   -1.2921    1.4196    0.0000 O   0  0  0  0  0  0  0  0  0
    1.5169    2.2446    0.0000 C   0  0  0  0  0  0  0  0  0
    1.5169    3.0696    0.0000 O   0  0  0  0  0  0  0  0  0
    2.2313    1.8321    0.0000 C   0  0  0  0  0  0  0  0  0
    2.2313    1.0071    0.0000 C   0  0  0  0  0  0  0  0  0
    1.5169    0.5946    0.0000 C   0  0  0  0  0  0  0  0  0
    1.5169   -0.2304    0.0000 C   0  0  0  0  0  0  0  0  0
    0.8024   -0.6429    0.0000 O   0  0  0  0  0  0  0  0  0
    2.2313   -0.6429    0.0000 C   0  0  0  0  0  0  0  0  0
    2.2313   -1.4679    0.0000 N   0  0  0  0  0  0  0  0  0
    2.9458   -1.8804    0.0000 C   0  0  0  0  0  0  0  0  0
    3.6995   -1.5448    0.0000 C   0  0  0  0  0  0  0  0  0
    4.2515   -2.1579    0.0000 C   0  0  0  0  0  0  0  0  0
    3.8390   -2.8724    0.0000 C   0  0  0  0  0  0  0  0  0
    3.0320   -2.7009    0.0000 C   0  0  0  0  0  0  0  0  0
    2.4190   -3.2529    0.0000 O   0  0  0  0  0  0  0  0  0
    2.5905   -4.0599    0.0000 C   0  0  0  0  0  0  0  0  0
    3.3751   -4.3148    0.0000 C   0  0  0  0  0  0  0  0  0
    3.9882   -3.7628    0.0000 C   0  0  0  0  0  0  0  0  0
    4.7728   -4.0177    0.0000 C   0  0  0  0  0  0  0  0  0
    4.9443   -4.8247    0.0000 C   0  0  0  0  0  0  0  0  0
    4.3313   -5.3767    0.0000 C   0  0  0  0  0  0  0  0  0
    3.5466   -5.1218    0.0000 C   0  0  0  0  0  0  0  0  0
  1  2  1  0  0  0  0
  1  5  1  0  0  0  0
  2  3  4  0  0  0  0
  2 11  4  0  0  0  0
  3  4  1  0  0  0  0
  3  7  4  0  0  0  0
  4  5  1  0  0  0  0
  5  6  2  0  0  0  0
  7  8  1  0  0  0  0
  7  9  4  0  0  0  0
  9 10  4  0  0  0  0
 10 11  4  0  0  0  0
 11 12  1  0  0  0  0
 12 13  1  0  0  0  0
 12 14  1  0  0  0  0
 14 15  1  0  0  0  0
 15 16  1  0  0  0  0
 16 17  1  0  0  0  0
 16 20  1  0  0  0  0
 17 18  1  0  0  0  0
 18 19  1  0  0  0  0
 19 20  1  0  0  0  0
 20 21  1  0  0  0  0
 21 22  1  0  0  0  0
 22 23  1  0  0  0  0
 23 24  4  0  0  0  0
 23 28  4  0  0  0  0
 24 25  4  0  0  0  0
 25 26  4  0  0  0  0
 26 27  4  0  0  0  0
 27 28  4  0  0  0  0
M  END
>  <Name_Molregno>
688109

>  <Beta-1>
8.01

>  <Beta-2>
8.76

$$$$
688111
  Marvin  02231216192D 0   1.00000     0.00000     0

 25 28  0  0  1  0  0  0  0  0999 V2000
    0.1613    0.3409    0.0000 S   0  0  0  0  0  0  0  0  0
    0.9459    0.5958    0.0000 C   0  0  0  0  0  0  0  0  0
    0.9459    1.4208    0.0000 C   0  0  0  0  0  0  0  0  0
    0.1613    1.6758    0.0000 N   0  0  0  0  0  0  0  0  0
   -0.3236    1.0083    0.0000 C   0  0  0  0  0  0  0  0  0
   -1.1486    1.0083    0.0000 O   0  0  0  0  0  0  0  0  0
    1.6604    1.8333    0.0000 C   0  0  0  0  0  0  0  0  0
    1.6604    2.6583    0.0000 O   0  0  0  0  0  0  0  0  0
    2.3749    1.4208    0.0000 C   0  0  0  0  0  0  0  0  0
    2.3749    0.5958    0.0000 C   0  0  0  0  0  0  0  0  0
    1.6604    0.1833    0.0000 C   0  0  0  0  0  0  0  0  0
    1.6604   -0.6417    0.0000 C   0  0  0  0  0  0  0  0  0
    0.9459   -1.0542    0.0000 O   0  0  0  0  0  0  0  0  0
    2.3749   -1.0542    0.0000 C   0  0  0  0  0  0  0  0  0
    2.3749   -1.8792    0.0000 N   0  0  0  0  0  0  0  0  0
    3.0893   -2.2917    0.0000 C   0  0  0  0  0  0  0  0  0
    3.8430   -1.9561    0.0000 C   0  0  0  0  0  0  0  0  0
    4.3950   -2.5692    0.0000 C   0  0  0  0  0  0  0  0  0
    3.9825   -3.2837    0.0000 C   0  0  0  0  0  0  0  0  0
    3.1756   -3.1122    0.0000 C   0  0  0  0  0  0  0  0  0
    2.5625   -3.6642    0.0000 C   0  0  0  0  0  0  0  0  0
    2.6487   -4.4847    0.0000 C   0  0  0  0  0  0  0  0  0
    1.8950   -4.8202    0.0000 C   0  0  0  0  0  0  0  0  0
    1.3430   -4.2071    0.0000 C   0  0  0  0  0  0  0  0  0
    1.7555   -3.4927    0.0000 C   0  0  0  0  0  0  0  0  0
  1  2  1  0  0  0  0
  1  5  1  0  0  0  0
  2  3  4  0  0  0  0
  2 11  4  0  0  0  0
  3  4  1  0  0  0  0
  3  7  4  0  0  0  0
  4  5  1  0  0  0  0
  5  6  2  0  0  0  0
  7  8  1  0  0  0  0
  7  9  4  0  0  0  0
  9 10  4  0  0  0  0
 10 11  4  0  0  0  0
 11 12  1  0  0  0  0
 12 13  1  0  0  0  0
 12 14  1  0  0  0  0
 14 15  1  0  0  0  0
 15 16  1  0  0  0  0
 16 17  1  0  0  0  0
 16 20  1  0  0  0  0
 17 18  1  0  0  0  0
 18 19  1  0  0  0  0
 19 20  1  0  0  0  0
 20 21  1  0  0  0  0
 21 22  1  0  0  0  0
 21 25  1  0  0  0  0
 22 23  1  0  0  0  0
 23 24  1  0  0  0  0
 24 25  1  0  0  0  0
M  END
>  <Name_Molregno>
688111

>  <Beta-1>
7.95

>  <Beta-2>
9.16

$$$$
688161
  Marvin  02231216192D 0   1.00000     0.00000     0

 29 32  0  0  1  0  0  0  0  0999 V2000
   -0.0519    0.7345    0.0000 S   0  0  0  0  0  0  0  0  0
    0.7327    0.9894    0.0000 C   0  0  0  0  0  0  0  0  0
    0.7327    1.8144    0.0000 C   0  0  0  0  0  0  0  0  0
   -0.0519    2.0694    0.0000 N   0  0  0  0  0  0  0  0  0
   -0.5368    1.4019    0.0000 C   0  0  0  0  0  0  0  0  0
   -1.3618    1.4019    0.0000 O   0  0  0  0  0  0  0  0  0
    1.4472    2.2269    0.0000 C   0  0  0  0  0  0  0  0  0
    1.4472    3.0519    0.0000 O   0  0  0  0  0  0  0  0  0
    2.1617    1.8144    0.0000 C   0  0  0  0  0  0  0  0  0
    2.1617    0.9894    0.0000 C   0  0  0  0  0  0  0  0  0
    1.4472    0.5769    0.0000 C   0  0  0  0  0  0  0  0  0
    1.4472   -0.2481    0.0000 C   0  0  0  0  0  0  0  0  0
    0.7327   -0.6606    0.0000 O   0  0  0  0  0  0  0  0  0
    2.1617   -0.6606    0.0000 C   0  0  0  0  0  0  0  0  0
    2.1617   -1.4856    0.0000 N   0  0  0  0  0  0  0  0  0
    2.8761   -1.8981    0.0000 C   0  0  0  0  0  0  0  0  0
    3.5906   -1.4856    0.0000 C   0  0  0  0  0  0  0  0  0
    4.3051   -1.8981    0.0000 C   0  0  0  0  0  0  0  0  0
    4.3051   -2.7231    0.0000 C   0  0  0  0  0  0  0  0  0
    3.5906   -3.1356    0.0000 C   0  0  0  0  0  0  0  0  0
    2.8761   -2.7231    0.0000 C   0  0  0  0  0  0  0  0  0
    2.1617   -3.1356    0.0000 O   0  0  0  0  0  0  0  0  0
    2.1617   -3.9606    0.0000 C   0  0  0  0  0  0  0  0  0
    2.8761   -4.3731    0.0000 C   0  0  0  0  0  0  0  0  0
    3.5906   -3.9606    0.0000 C   0  0  0  0  0  0  0  0  0
    4.3051   -4.3731    0.0000 C   0  0  0  0  0  0  0  0  0
    4.3051   -5.1981    0.0000 C   0  0  0  0  0  0  0  0  0
    3.5906   -5.6106    0.0000 C   0  0  0  0  0  0  0  0  0
    2.8761   -5.1981    0.0000 C   0  0  0  0  0  0  0  0  0
  1  2  1  0  0  0  0
  1  5  1  0  0  0  0
  2  3  4  0  0  0  0
  2 11  4  0  0  0  0
  3  4  1  0  0  0  0
  3  7  4  0  0  0  0
  4  5  1  0  0  0  0
  5  6  2  0  0  0  0
  7  8  1  0  0  0  0
  7  9  4  0  0  0  0
  9 10  4  0  0  0  0
 10 11  4  0  0  0  0
 11 12  1  0  0  0  0
 12 13  1  0  0  0  0
 12 14  1  0  0  0  0
 14 15  1  0  0  0  0
 15 16  1  0  0  0  0
 16 17  1  0  0  0  0
 16 21  1  0  0  0  0
 17 18  1  0  0  0  0
 18 19  1  0  0  0  0
 19 20  1  0  0  0  0
 20 21  1  0  0  0  0
 21 22  1  0  0  0  0
 22 23  1  0  0  0  0
 23 24  1  0  0  0  0
 24 25  4  0  0  0  0
 24 29  4  0  0  0  0
 25 26  4  0  0  0  0
 26 27  4  0  0  0  0
 27 28  4  0  0  0  0
 28 29  4  0  0  0  0
M  END
>  <Name_Molregno>
688161

>  <Beta-1>
6.68

>  <Beta-2>
7.29

$$$$
688163
  Marvin  02231216192D 0   1.00000     0.00000     0

 25 28  0  0  1  0  0  0  0  0999 V2000
    1.2044   -0.1596    0.0000 S   0  0  0  0  0  0  0  0  0
    1.3759    0.6474    0.0000 C   0  0  0  0  0  0  0  0  0
    0.6615    1.0599    0.0000 C   0  0  0  0  0  0  0  0  0
    0.0484    0.5079    0.0000 N   0  0  0  0  0  0  0  0  0
    0.3839   -0.2458    0.0000 C   0  0  0  0  0  0  0  0  0
   -0.0286   -0.9603    0.0000 O   0  0  0  0  0  0  0  0  0
    0.6615    1.8849    0.0000 C   0  0  0  0  0  0  0  0  0
   -0.0530    2.2974    0.0000 O   0  0  0  0  0  0  0  0  0
    1.3759    2.2974    0.0000 C   0  0  0  0  0  0  0  0  0
    2.0904    1.8849    0.0000 C   0  0  0  0  0  0  0  0  0
    2.0904    1.0599    0.0000 C   0  0  0  0  0  0  0  0  0
    2.8049    0.6474    0.0000 C   0  0  0  0  0  0  0  0  0
    3.5193    1.0599    0.0000 O   0  0  0  0  0  0  0  0  0
    2.8049   -0.1776    0.0000 C   0  0  0  0  0  0  0  0  0
    3.5193   -0.5901    0.0000 N   0  0  0  0  0  0  0  0  0
    3.5193   -1.4151    0.0000 C   0  0  0  0  0  0  0  0  0
    3.7422   -2.1363    0.0000 C   0  0  0  0  0  0  0  0  0
    3.6228   -2.9098    0.0000 C   0  0  0  0  0  0  0  0  0
    2.7360   -3.1606    0.0000 C   0  0  0  0  0  0  0  0  0
    2.4898   -2.5144    0.0000 C   0  0  0  0  0  0  0  0  0
    3.2631   -2.2446    0.0000 C   0  0  0  0  0  0  0  0  0
    2.6693   -1.6718    0.0000 C   0  0  0  0  0  0  0  0  0
    4.3214   -3.3598    0.0000 C   0  0  0  0  0  0  0  0  0
    4.4640   -4.1723    0.0000 C   0  0  0  0  0  0  0  0  0
    5.1463   -3.3488    0.0000 C   0  0  0  0  0  0  0  0  0
  1  2  1  0  0  0  0
  1  5  1  0  0  0  0
  2  3  4  0  0  0  0
  2 11  4  0  0  0  0
  3  4  1  0  0  0  0
  3  7  4  0  0  0  0
  4  5  1  0  0  0  0
  5  6  2  0  0  0  0
  7  8  1  0  0  0  0
  7  9  4  0  0  0  0
  9 10  4  0  0  0  0
 10 11  4  0  0  0  0
 11 12  1  0  0  0  0
 12 13  1  0  0  0  0
 12 14  1  0  0  0  0
 14 15  1  0  0  0  0
 15 16  1  0  0  0  0
 16 17  1  0  0  0  0
 16 21  1  0  0  0  0
 17 18  1  0  0  0  0
 18 19  1  0  0  0  0
 18 23  1  0  0  0  0
 19 20  1  0  0  0  0
 20 21  1  0  0  0  0
 21 22  1  0  0  0  0
 21 23  1  0  0  0  0
 23 24  1  0  0  0  0
 23 25  1  0  0  0  0
M  END
>  <Name_Molregno>
688163

>  <Beta-1>
6.09

>  <Beta-2>
7.91

$$$$
688165
  Marvin  02231216192D 0   1.00000     0.00000     0

 26 29  0  0  1  0  0  0  0  0999 V2000
    0.3208    0.5972    0.0000 S   0  0  0  0  0  0  0  0  0
    1.1054    0.8521    0.0000 C   0  0  0  0  0  0  0  0  0
    1.1054    1.6771    0.0000 C   0  0  0  0  0  0  0  0  0
    0.3208    1.9320    0.0000 N   0  0  0  0  0  0  0  0  0
   -0.1641    1.2646    0.0000 C   0  0  0  0  0  0  0  0  0
   -0.9891    1.2646    0.0000 O   0  0  0  0  0  0  0  0  0
    1.8199    2.0896    0.0000 C   0  0  0  0  0  0  0  0  0
    1.8199    2.9146    0.0000 O   0  0  0  0  0  0  0  0  0
    2.5344    1.6771    0.0000 C   0  0  0  0  0  0  0  0  0
    2.5344    0.8521    0.0000 C   0  0  0  0  0  0  0  0  0
    1.8199    0.4396    0.0000 C   0  0  0  0  0  0  0  0  0
    1.8199   -0.3854    0.0000 C   0  0  0  0  0  0  0  0  0
    1.1054   -0.7979    0.0000 O   0  0  0  0  0  0  0  0  0
    2.5344   -0.7979    0.0000 C   0  0  0  0  0  0  0  0  0
    2.5344   -1.6229    0.0000 N   0  0  0  0  0  0  0  0  0
    3.2488   -2.0354    0.0000 C   0  0  0  0  0  0  0  0  0
    4.0025   -1.6998    0.0000 C   0  0  0  0  0  0  0  0  0
    4.5546   -2.3129    0.0000 C   0  0  0  0  0  0  0  0  0
    4.1421   -3.0274    0.0000 C   0  0  0  0  0  0  0  0  0
    3.3351   -2.8559    0.0000 C   0  0  0  0  0  0  0  0  0
    2.7220   -3.4079    0.0000 C   0  0  0  0  0  0  0  0  0
    2.8935   -4.2149    0.0000 C   0  0  0  0  0  0  0  0  0
    2.2804   -4.7669    0.0000 C   0  0  0  0  0  0  0  0  0
    1.4958   -4.5120    0.0000 C   0  0  0  0  0  0  0  0  0
    1.3243   -3.7050    0.0000 C   0  0  0  0  0  0  0  0  0
    1.9374   -3.1530    0.0000 C   0  0  0  0  0  0  0  0  0
  1  2  1  0  0  0  0
  1  5  1  0  0  0  0
  2  3  4  0  0  0  0
  2 11  4  0  0  0  0
  3  4  1  0  0  0  0
  3  7  4  0  0  0  0
  4  5  1  0  0  0  0
  5  6  2  0  0  0  0
  7  8  1  0  0  0  0
  7  9  4  0  0  0  0
  9 10  4  0  0  0  0
 10 11  4  0  0  0  0
 11 12  1  0  0  0  0
 12 13  1  0  0  0  0
 12 14  1  0  0  0  0
 14 15  1  0  0  0  0
 15 16  1  0  0  0  0
 16 17  1  0  0  0  0
 16 20  1  0  0  0  0
 17 18  1  0  0  0  0
 18 19  1  0  0  0  0
 19 20  1  0  0  0  0
 20 21  1  0  0  0  0
 21 22  1  0  0  0  0
 21 26  1  0  0  0  0
 22 23  1  0  0  0  0
 23 24  1  0  0  0  0
 24 25  1  0  0  0  0
 25 26  1  0  0  0  0
M  END
>  <Name_Molregno>
688165

>  <Beta-1>
6.91

>  <Beta-2>
8.4

$$$$
688231
  Marvin  02231216192D 0   1.00000     0.00000     0

 27 30  0  0  1  0  0  0  0  0999 V2000
    0.3232    0.6109    0.0000 S   0  0  0  0  0  0  0  0  0
    1.1078    0.8658    0.0000 C   0  0  0  0  0  0  0  0  0
    1.1078    1.6908    0.0000 C   0  0  0  0  0  0  0  0  0
    0.3232    1.9457    0.0000 N   0  0  0  0  0  0  0  0  0
   -0.1617    1.2783    0.0000 C   0  0  0  0  0  0  0  0  0
   -0.9867    1.2783    0.0000 O   0  0  0  0  0  0  0  0  0
    1.8223    2.1033    0.0000 C   0  0  0  0  0  0  0  0  0
    1.8223    2.9283    0.0000 O   0  0  0  0  0  0  0  0  0
    2.5368    1.6908    0.0000 C   0  0  0  0  0  0  0  0  0
    2.5368    0.8658    0.0000 C   0  0  0  0  0  0  0  0  0
    1.8223    0.4533    0.0000 C   0  0  0  0  0  0  0  0  0
    1.8223   -0.3717    0.0000 C   0  0  0  0  0  0  0  0  0
    1.1078   -0.7842    0.0000 O   0  0  0  0  0  0  0  0  0
    2.5368   -0.7842    0.0000 C   0  0  0  0  0  0  0  0  0
    2.5368   -1.6092    0.0000 N   0  0  0  0  0  0  0  0  0
    3.2513   -2.0217    0.0000 C   0  0  0  0  0  0  0  0  0
    3.9657   -1.6092    0.0000 C   0  0  0  0  0  0  0  0  0
    4.6802   -2.0217    0.0000 C   0  0  0  0  0  0  0  0  0
    4.6802   -2.8467    0.0000 C   0  0  0  0  0  0  0  0  0
    3.9657   -3.2592    0.0000 C   0  0  0  0  0  0  0  0  0
    3.2513   -2.8467    0.0000 C   0  0  0  0  0  0  0  0  0
    2.5368   -3.2592    0.0000 C   0  0  0  0  0  0  0  0  0
    2.5368   -4.0842    0.0000 C   0  0  0  0  0  0  0  0  0
    1.8223   -4.4967    0.0000 C   0  0  0  0  0  0  0  0  0
    1.1078   -4.0842    0.0000 C   0  0  0  0  0  0  0  0  0
    1.1078   -3.2592    0.0000 C   0  0  0  0  0  0  0  0  0
    1.8223   -2.8467    0.0000 C   0  0  0  0  0  0  0  0  0
  1  2  1  0  0  0  0
  1  5  1  0  0  0  0
  2  3  4  0  0  0  0
  2 11  4  0  0  0  0
  3  4  1  0  0  0  0
  3  7  4  0  0  0  0
  4  5  1  0  0  0  0
  5  6  2  0  0  0  0
  7  8  1  0  0  0  0
  7  9  4  0  0  0  0
  9 10  4  0  0  0  0
 10 11  4  0  0  0  0
 11 12  1  0  0  0  0
 12 13  1  0  0  0  0
 12 14  1  0  0  0  0
 14 15  1  0  0  0  0
 15 16  1  0  0  0  0
 16 17  1  0  0  0  0
 16 21  1  0  0  0  0
 17 18  1  0  0  0  0
 18 19  1  0  0  0  0
 19 20  1  0  0  0  0
 20 21  1  0  0  0  0
 21 22  1  0  0  0  0
 22 23  1  0  0  0  0
 22 27  1  0  0  0  0
 23 24  1  0  0  0  0
 24 25  1  0  0  0  0
 25 26  1  0  0  0  0
 26 27  1  0  0  0  0
M  END
>  <Name_Molregno>
688231

>  <Beta-1>
6.18

>  <Beta-2>
6.82

$$$$
688232
  Marvin  02231216192D 0   1.00000     0.00000     0

 30 33  0  0  1  0  0  0  0  0999 V2000
    4.2704    1.5783    0.0000 S   0  0  0  0  0  0  0  0  0
    5.0550    1.8333    0.0000 C   0  0  0  0  0  0  0  0  0
    5.0550    2.6583    0.0000 C   0  0  0  0  0  0  0  0  0
    4.2704    2.9132    0.0000 N   0  0  0  0  0  0  0  0  0
    3.7854    2.2458    0.0000 C   0  0  0  0  0  0  0  0  0
    2.9604    2.2458    0.0000 O   0  0  0  0  0  0  0  0  0
    5.7694    3.0708    0.0000 C   0  0  0  0  0  0  0  0  0
    5.7694    3.8958    0.0000 O   0  0  0  0  0  0  0  0  0
    6.4839    2.6583    0.0000 C   0  0  0  0  0  0  0  0  0
    6.4839    1.8333    0.0000 C   0  0  0  0  0  0  0  0  0
    5.7694    1.4208    0.0000 C   0  0  0  0  0  0  0  0  0
    5.7694    0.5958    0.0000 C   0  0  0  0  0  0  0  0  0
    6.4839    0.1833    0.0000 O   0  0  0  0  0  0  0  0  0
    5.0550    0.1833    0.0000 C   0  0  0  0  0  0  0  0  0
    5.0550   -0.6417    0.0000 N   0  0  0  0  0  0  0  0  0
    4.3405   -1.0542    0.0000 C   0  0  0  0  0  0  0  0  0
    4.3405   -1.8792    0.0000 C   0  0  0  0  0  0  0  0  0
    3.6260   -2.2917    0.0000 C   0  0  0  0  0  0  0  0  0
    2.9116   -1.8792    0.0000 N   0  0  0  0  0  0  0  0  0
    2.9116   -1.0542    0.0000 C   0  0  0  0  0  0  0  0  0
    3.6260   -0.6417    0.0000 C   0  0  0  0  0  0  0  0  0
    2.1971   -2.2917    0.0000 C   0  0  0  0  0  0  0  0  0
    2.1971   -3.1167    0.0000 C   0  0  0  0  0  0  0  0  0
    1.4826   -3.5292    0.0000 N   0  0  0  0  0  0  0  0  0
    1.5443   -4.3519    0.0000 C   0  0  0  0  0  0  0  0  0
    0.9395   -4.9131    0.0000 C   0  0  0  0  0  0  0  0  0
    0.1237   -4.7901    0.0000 C   0  0  0  0  0  0  0  0  0
   -0.2888   -4.0756    0.0000 C   0  0  0  0  0  0  0  0  0
    0.0126   -3.3077    0.0000 C   0  0  0  0  0  0  0  0  0
    0.8010   -3.0645    0.0000 C   0  0  0  0  0  0  0  0  0
  1  2  1  0  0  0  0
  1  5  1  0  0  0  0
  2  3  4  0  0  0  0
  2 11  4  0  0  0  0
  3  4  1  0  0  0  0
  3  7  4  0  0  0  0
  4  5  1  0  0  0  0
  5  6  2  0  0  0  0
  7  8  1  0  0  0  0
  7  9  4  0  0  0  0
  9 10  4  0  0  0  0
 10 11  4  0  0  0  0
 11 12  1  0  0  0  0
 12 13  1  0  0  0  0
 12 14  1  0  0  0  0
 14 15  1  0  0  0  0
 15 16  1  0  0  0  0
 16 17  1  0  0  0  0
 16 21  1  0  0  0  0
 17 18  1  0  0  0  0
 18 19  1  0  0  0  0
 19 20  1  0  0  0  0
 19 22  1  0  0  0  0
 20 21  1  0  0  0  0
 22 23  1  0  0  0  0
 23 24  1  0  0  0  0
 24 25  1  0  0  0  0
 24 30  1  0  0  0  0
 25 26  1  0  0  0  0
 26 27  1  0  0  0  0
 27 28  1  0  0  0  0
 28 29  1  0  0  0  0
 29 30  1  0  0  0  0
M  END
>  <Name_Molregno>
688232

>  <Beta-1>
6.73

>  <Beta-2>
8.2

$$$$
688233
  Marvin  02231216192D 0   1.00000     0.00000     0

 24 26  0  0  1  0  0  0  0  0999 V2000
   -0.1287   -1.8500    0.0000 S   0  0  0  0  0  0  0  0  0
    0.0429   -1.0430    0.0000 C   0  0  0  0  0  0  0  0  0
   -0.6716   -0.6305    0.0000 C   0  0  0  0  0  0  0  0  0
   -1.2847   -1.1825    0.0000 N   0  0  0  0  0  0  0  0  0
   -0.9491   -1.9362    0.0000 C   0  0  0  0  0  0  0  0  0
   -1.3616   -2.6507    0.0000 O   0  0  0  0  0  0  0  0  0
   -0.6716    0.1945    0.0000 C   0  0  0  0  0  0  0  0  0
   -1.3861    0.6070    0.0000 O   0  0  0  0  0  0  0  0  0
    0.0429    0.6070    0.0000 C   0  0  0  0  0  0  0  0  0
    0.7573    0.1945    0.0000 C   0  0  0  0  0  0  0  0  0
    0.7573   -0.6305    0.0000 C   0  0  0  0  0  0  0  0  0
    1.4718   -1.0430    0.0000 C   0  0  0  0  0  0  0  0  0
    1.4718   -1.8680    0.0000 O   0  0  0  0  0  0  0  0  0
    2.1863   -0.6305    0.0000 C   0  0  0  0  0  0  0  0  0
    2.9008   -1.0430    0.0000 N   0  0  0  0  0  0  0  0  0
    3.6152   -0.6305    0.0000 C   0  0  0  0  0  0  0  0  0
    4.3297   -1.0430    0.0000 C   0  0  0  0  0  0  0  0  0
    5.0442   -0.6305    0.0000 O   0  0  0  0  0  0  0  0  0
    5.7586   -1.0430    0.0000 C   0  0  0  0  0  0  0  0  0
    6.4731   -0.6305    0.0000 C   0  0  0  0  0  0  0  0  0
    7.1876   -1.0430    0.0000 C   0  0  0  0  0  0  0  0  0
    7.1876   -1.8680    0.0000 C   0  0  0  0  0  0  0  0  0
    6.4731   -2.2805    0.0000 C   0  0  0  0  0  0  0  0  0
    5.7586   -1.8680    0.0000 C   0  0  0  0  0  0  0  0  0
  1  2  1  0  0  0  0
  1  5  1  0  0  0  0
  2  3  4  0  0  0  0
  2 11  4  0  0  0  0
  3  4  1  0  0  0  0
  3  7  4  0  0  0  0
  4  5  1  0  0  0  0
  5  6  2  0  0  0  0
  7  8  1  0  0  0  0
  7  9  4  0  0  0  0
  9 10  4  0  0  0  0
 10 11  4  0  0  0  0
 11 12  1  0  0  0  0
 12 13  1  0  0  0  0
 12 14  1  0  0  0  0
 14 15  1  0  0  0  0
 15 16  1  0  0  0  0
 16 17  1  0  0  0  0
 17 18  1  0  0  0  0
 18 19  1  0  0  0  0
 19 20  4  0  0  0  0
 19 24  4  0  0  0  0
 20 21  4  0  0  0  0
 21 22  4  0  0  0  0
 22 23  4  0  0  0  0
 23 24  4  0  0  0  0
M  END
>  <Name_Molregno>
688233

>  <Beta-1>
7.75

>  <Beta-2>
8.36

$$$$
688234
  Marvin  02231216192D 0   1.00000     0.00000     0

 26 28  0  0  1  0  0  0  0  0999 V2000
    1.2262   -1.7384    0.0000 S   0  0  0  0  0  0  0  0  0
    0.6131   -1.1863    0.0000 C   0  0  0  0  0  0  0  0  0
   -0.1014   -1.5988    0.0000 C   0  0  0  0  0  0  0  0  0
    0.0702   -2.4058    0.0000 N   0  0  0  0  0  0  0  0  0
    0.8906   -2.4920    0.0000 C   0  0  0  0  0  0  0  0  0
    1.3031   -3.2065    0.0000 O   0  0  0  0  0  0  0  0  0
   -0.8158   -1.1863    0.0000 C   0  0  0  0  0  0  0  0  0
   -1.5303   -1.5988    0.0000 O   0  0  0  0  0  0  0  0  0
   -0.8158   -0.3613    0.0000 C   0  0  0  0  0  0  0  0  0
   -0.1014    0.0512    0.0000 C   0  0  0  0  0  0  0  0  0
    0.6131   -0.3613    0.0000 C   0  0  0  0  0  0  0  0  0
    1.3276    0.0512    0.0000 C   0  0  0  0  0  0  0  0  0
    1.3276    0.8762    0.0000 O   0  0  0  0  0  0  0  0  0
    2.0420   -0.3613    0.0000 C   0  0  0  0  0  0  0  0  0
    2.7565    0.0512    0.0000 N   0  0  0  0  0  0  0  0  0
    3.4710   -0.3613    0.0000 C   0  0  0  0  0  0  0  0  0
    4.1855    0.0512    0.0000 C   0  0  0  0  0  0  0  0  0
    4.8999   -0.3613    0.0000 C   0  0  0  0  0  0  0  0  0
    5.6144    0.0512    0.0000 N   0  0  0  0  0  0  0  0  0
    5.6144    0.8762    0.0000 C   0  0  0  0  0  0  0  0  0
    6.3289   -0.3613    0.0000 C   0  0  0  0  0  0  0  0  0
    7.0433    0.0512    0.0000 C   0  0  0  0  0  0  0  0  0
    7.7578   -0.3613    0.0000 C   0  0  0  0  0  0  0  0  0
    7.7578   -1.1863    0.0000 C   0  0  0  0  0  0  0  0  0
    7.0433   -1.5988    0.0000 C   0  0  0  0  0  0  0  0  0
    6.3289   -1.1863    0.0000 C   0  0  0  0  0  0  0  0  0
  1  2  1  0  0  0  0
  1  5  1  0  0  0  0
  2  3  4  0  0  0  0
  2 11  4  0  0  0  0
  3  4  1  0  0  0  0
  3  7  4  0  0  0  0
  4  5  1  0  0  0  0
  5  6  2  0  0  0  0
  7  8  1  0  0  0  0
  7  9  4  0  0  0  0
  9 10  4  0  0  0  0
 10 11  4  0  0  0  0
 11 12  1  0  0  0  0
 12 13  1  0  0  0  0
 12 14  1  0  0  0  0
 14 15  1  0  0  0  0
 15 16  1  0  0  0  0
 16 17  1  0  0  0  0
 17 18  1  0  0  0  0
 18 19  1  0  0  0  0
 19 20  1  0  0  0  0
 19 21  1  0  0  0  0
 21 22  4  0  0  0  0
 21 26  4  0  0  0  0
 22 23  4  0  0  0  0
 23 24  4  0  0  0  0
 24 25  4  0  0  0  0
 25 26  4  0  0  0  0
M  END
>  <Name_Molregno>
688234

>  <Beta-1>
8.08

>  <Beta-2>
9.52

$$$$
688235
  Marvin  02231216192D 0   1.00000     0.00000     0

 32 35  0  0  1  0  0  0  0  0999 V2000
   -0.3768   -0.7042    0.0000 S   0  0  0  0  0  0  0  0  0
   -0.2053    0.1028    0.0000 C   0  0  0  0  0  0  0  0  0
   -0.9198    0.5153    0.0000 C   0  0  0  0  0  0  0  0  0
   -1.5329   -0.0367    0.0000 N   0  0  0  0  0  0  0  0  0
   -1.1973   -0.7904    0.0000 C   0  0  0  0  0  0  0  0  0
   -1.6098   -1.5049    0.0000 O   0  0  0  0  0  0  0  0  0
   -0.9198    1.3403    0.0000 C   0  0  0  0  0  0  0  0  0
   -1.6342    1.7528    0.0000 O   0  0  0  0  0  0  0  0  0
   -0.2053    1.7528    0.0000 C   0  0  0  0  0  0  0  0  0
    0.5092    1.3403    0.0000 C   0  0  0  0  0  0  0  0  0
    0.5092    0.5153    0.0000 C   0  0  0  0  0  0  0  0  0
    1.2236    0.1028    0.0000 C   0  0  0  0  0  0  0  0  0
    1.2236   -0.7222    0.0000 O   0  0  0  0  0  0  0  0  0
    1.9381    0.5153    0.0000 C   0  0  0  0  0  0  0  0  0
    2.6526    0.1028    0.0000 N   0  0  0  0  0  0  0  0  0
    3.3671    0.5153    0.0000 C   0  0  0  0  0  0  0  0  0
    3.3671    1.3403    0.0000 C   0  0  0  0  0  0  0  0  0
    4.0815    1.7528    0.0000 C   0  0  0  0  0  0  0  0  0
    4.0815    2.5778    0.0000 C   0  0  0  0  0  0  0  0  0
    4.7960    2.9903    0.0000 C   0  0  0  0  0  0  0  0  0
    5.5105    2.5778    0.0000 C   0  0  0  0  0  0  0  0  0
    5.5105    1.7528    0.0000 C   0  0  0  0  0  0  0  0  0
    4.7960    1.3403    0.0000 C   0  0  0  0  0  0  0  0  0
    4.0815    0.1028    0.0000 C   0  0  0  0  0  0  0  0  0
    4.0815   -0.7222    0.0000 O   0  0  0  0  0  0  0  0  0
    4.7960    0.5153    0.0000 N   0  0  0  0  0  0  0  0  0
    5.5105    0.1028    0.0000 C   0  0  0  0  0  0  0  0  0
    6.2249    0.5153    0.0000 C   0  0  0  0  0  0  0  0  0
    6.9394    0.1028    0.0000 C   0  0  0  0  0  0  0  0  0
    6.9394   -0.7222    0.0000 C   0  0  0  0  0  0  0  0  0
    6.2249   -1.1347    0.0000 C   0  0  0  0  0  0  0  0  0
    5.5105   -0.7222    0.0000 C   0  0  0  0  0  0  0  0  0
  1  2  1  0  0  0  0
  1  5  1  0  0  0  0
  2  3  4  0  0  0  0
  2 11  4  0  0  0  0
  3  4  1  0  0  0  0
  3  7  4  0  0  0  0
  4  5  1  0  0  0  0
  5  6  2  0  0  0  0
  7  8  1  0  0  0  0
  7  9  4  0  0  0  0
  9 10  4  0  0  0  0
 10 11  4  0  0  0  0
 11 12  1  0  0  0  0
 12 13  1  0  0  0  0
 12 14  1  0  0  0  0
 14 15  1  0  0  0  0
 15 16  1  0  0  0  0
 16 17  1  0  0  0  0
 16 24  1  0  0  0  0
 17 18  1  0  0  0  0
 18 19  4  0  0  0  0
 18 23  4  0  0  0  0
 19 20  4  0  0  0  0
 20 21  4  0  0  0  0
 21 22  4  0  0  0  0
 22 23  4  0  0  0  0
 24 25  2  0  0  0  0
 24 26  1  0  0  0  0
 26 27  1  0  0  0  0
 27 28  1  0  0  0  0
 27 32  1  0  0  0  0
 28 29  1  0  0  0  0
 29 30  1  0  0  0  0
 30 31  1  0  0  0  0
 31 32  1  0  0  0  0
M  END
>  <Name_Molregno>
688235

>  <Beta-1>
6

>  <Beta-2>
6

$$$$
688291
  Marvin  02231216192D 0   1.00000     0.00000     0

 25 27  0  0  1  0  0  0  0  0999 V2000
   -0.0064    1.3767    0.0000 Cl  0  0  0  0  0  0  0  0  0
    0.7080    0.9642    0.0000 C   0  0  0  0  0  0  0  0  0
    1.4225    1.3767    0.0000 C   0  0  0  0  0  0  0  0  0
    2.1370    0.9642    0.0000 C   0  0  0  0  0  0  0  0  0
    2.1370    0.1392    0.0000 C   0  0  0  0  0  0  0  0  0
    2.8515   -0.2733    0.0000 S   0  0  0  0  0  0  0  0  0
    3.5659    0.1392    0.0000 C   0  0  0  0  0  0  0  0  0
    4.2804   -0.2733    0.0000 C   0  0  0  0  0  0  0  0  0
    4.9949    0.1392    0.0000 N   0  0  0  0  0  0  0  0  0
    5.7093   -0.2733    0.0000 C   0  0  0  0  0  0  0  0  0
    6.4238    0.1392    0.0000 C   0  0  0  0  0  0  0  0  0
    6.4238    0.9642    0.0000 O   0  0  0  0  0  0  0  0  0
    7.1383   -0.2733    0.0000 C   0  0  0  0  0  0  0  0  0
    7.8528    0.1392    0.0000 C   0  0  0  0  0  0  0  0  0
    8.0243    0.9462    0.0000 S   0  0  0  0  0  0  0  0  0
    8.8448    1.0324    0.0000 C   0  0  0  0  0  0  0  0  0
    9.2573    1.7469    0.0000 O   0  0  0  0  0  0  0  0  0
    9.1803    0.2788    0.0000 N   0  0  0  0  0  0  0  0  0
    8.5672   -0.2733    0.0000 C   0  0  0  0  0  0  0  0  0
    8.5672   -1.0983    0.0000 C   0  0  0  0  0  0  0  0  0
    9.2817   -1.5108    0.0000 O   0  0  0  0  0  0  0  0  0
    7.8528   -1.5108    0.0000 C   0  0  0  0  0  0  0  0  0
    7.1383   -1.0983    0.0000 C   0  0  0  0  0  0  0  0  0
    1.4225   -0.2733    0.0000 C   0  0  0  0  0  0  0  0  0
    0.7080    0.1392    0.0000 C   0  0  0  0  0  0  0  0  0
  1  2  1  0  0  0  0
  2  3  4  0  0  0  0
  2 25  4  0  0  0  0
  3  4  4  0  0  0  0
  4  5  4  0  0  0  0
  5  6  1  0  0  0  0
  5 24  4  0  0  0  0
  6  7  1  0  0  0  0
  7  8  1  0  0  0  0
  8  9  1  0  0  0  0
  9 10  1  0  0  0  0
 10 11  1  0  0  0  0
 11 12  1  0  0  0  0
 11 13  1  0  0  0  0
 13 14  4  0  0  0  0
 13 23  4  0  0  0  0
 14 15  1  0  0  0  0
 14 19  4  0  0  0  0
 15 16  1  0  0  0  0
 16 17  2  0  0  0  0
 16 18  1  0  0  0  0
 18 19  1  0  0  0  0
 19 20  4  0  0  0  0
 20 21  1  0  0  0  0
 20 22  4  0  0  0  0
 22 23  4  0  0  0  0
 24 25  4  0  0  0  0
M  END
>  <Name_Molregno>
688291

>  <Beta-1>
8.77

>  <Beta-2>
8.52

$$$$
688292
  Marvin  02231216192D 0   1.00000     0.00000     0

 26 27  0  0  1  0  0  0  0  0999 V2000
   -0.4689   -0.8632    0.0000 S   0  0  0  0  0  0  0  0  0
    0.0831   -0.2501    0.0000 C   0  0  0  0  0  0  0  0  0
   -0.3294    0.4644    0.0000 C   0  0  0  0  0  0  0  0  0
   -1.1363    0.2928    0.0000 N   0  0  0  0  0  0  0  0  0
   -1.2226   -0.5276    0.0000 C   0  0  0  0  0  0  0  0  0
   -1.9370   -0.9401    0.0000 O   0  0  0  0  0  0  0  0  0
    0.0831    1.1788    0.0000 C   0  0  0  0  0  0  0  0  0
   -0.3294    1.8933    0.0000 O   0  0  0  0  0  0  0  0  0
    0.9081    1.1788    0.0000 C   0  0  0  0  0  0  0  0  0
    1.3206    0.4644    0.0000 C   0  0  0  0  0  0  0  0  0
    0.9081   -0.2501    0.0000 C   0  0  0  0  0  0  0  0  0
    1.3206   -0.9646    0.0000 C   0  0  0  0  0  0  0  0  0
    0.9081   -1.6790    0.0000 O   0  0  0  0  0  0  0  0  0
    2.1456   -0.9646    0.0000 C   0  0  0  0  0  0  0  0  0
    2.5581   -1.6790    0.0000 N   0  0  0  0  0  0  0  0  0
    3.3831   -1.6790    0.0000 C   0  0  0  0  0  0  0  0  0
    3.7956   -2.3935    0.0000 C   0  0  0  0  0  0  0  0  0
    4.6206   -2.3935    0.0000 N   0  0  0  0  0  0  0  0  0
    5.0331   -3.1080    0.0000 C   0  0  0  0  0  0  0  0  0
    5.8581   -3.1080    0.0000 C   0  0  0  0  0  0  0  0  0
    6.2706   -3.8225    0.0000 C   0  0  0  0  0  0  0  0  0
    7.0956   -3.8225    0.0000 C   0  0  0  0  0  0  0  0  0
    5.0331   -1.6790    0.0000 C   0  0  0  0  0  0  0  0  0
    5.8581   -1.6790    0.0000 C   0  0  0  0  0  0  0  0  0
    6.2706   -0.9646    0.0000 C   0  0  0  0  0  0  0  0  0
    7.0956   -0.9646    0.0000 C   0  0  0  0  0  0  0  0  0
  1  2  1  0  0  0  0
  1  5  1  0  0  0  0
  2  3  4  0  0  0  0
  2 11  4  0  0  0  0
  3  4  1  0  0  0  0
  3  7  4  0  0  0  0
  4  5  1  0  0  0  0
  5  6  2  0  0  0  0
  7  8  1  0  0  0  0
  7  9  4  0  0  0  0
  9 10  4  0  0  0  0
 10 11  4  0  0  0  0
 11 12  1  0  0  0  0
 12 13  1  0  0  0  0
 12 14  1  0  0  0  0
 14 15  1  0  0  0  0
 15 16  1  0  0  0  0
 16 17  1  0  0  0  0
 17 18  1  0  0  0  0
 18 19  1  0  0  0  0
 18 23  1  0  0  0  0
 19 20  1  0  0  0  0
 20 21  1  0  0  0  0
 21 22  1  0  0  0  0
 23 24  1  0  0  0  0
 24 25  1  0  0  0  0
 25 26  1  0  0  0  0
M  END
>  <Name_Molregno>
688292

>  <Beta-1>
7.5

>  <Beta-2>
7.74

$$$$
8-Fluoro-TMQ
  Marvin  02231216192D 0   1.00000     0.00000     0

 26 28  0  0  1  0  0  0  0  0999 V2000
   -3.1220   -1.2928    0.0000 F   0  0  0  0  0  0  0  0  0
   -3.1220   -0.4678    0.0000 C   0  0  0  0  0  0  0  0  0
   -2.4075   -0.0553    0.0000 C   0  0  0  0  0  0  0  0  0
   -2.4075    0.7697    0.0000 C   0  0  0  0  0  0  0  0  0
   -3.1220    1.1822    0.0000 C   0  0  0  0  0  0  0  0  0
   -3.8365    0.7697    0.0000 C   0  0  0  0  0  0  0  0  0
   -4.5509    1.1822    0.0000 O   0  0  0  0  0  0  0  0  0
   -3.8365   -0.0553    0.0000 C   0  0  0  0  0  0  0  0  0
   -4.5509   -0.4678    0.0000 O   0  0  0  0  0  0  0  0  0
   -1.6930    1.1822    0.0000 C   0  0  0  0  0  0  0  0  0
   -0.9786    0.7697    0.0000 C   0  0  0  0  0  0  0  0  0
   -0.9786   -0.0553    0.0000 N   0  0  0  0  0  0  0  0  0
   -1.6930   -0.4678    0.0000 C   0  0  0  0  0  0  0  0  0
   -1.6930   -1.2928    0.0000 C   0  0  0  0  0  0  0  0  0
   -0.9786   -1.7053    0.0000 C   0  0  0  0  0  0  0  0  0
   -0.2641   -1.2928    0.0000 C   0  0  0  0  0  0  0  0  0
    0.4504   -1.7053    0.0000 C   0  0  0  0  0  0  0  0  0
    1.1648   -1.2928    0.0000 O   0  0  0  0  0  0  0  0  0
    1.8793   -1.7053    0.0000 C   0  0  0  0  0  0  0  0  0
    0.4504   -2.5303    0.0000 C   0  0  0  0  0  0  0  0  0
    1.1648   -2.9428    0.0000 O   0  0  0  0  0  0  0  0  0
    1.8793   -2.5303    0.0000 C   0  0  0  0  0  0  0  0  0
   -0.2641   -2.9428    0.0000 C   0  0  0  0  0  0  0  0  0
   -0.2641   -3.7678    0.0000 O   0  0  0  0  0  0  0  0  0
   -0.9786   -4.1803    0.0000 C   0  0  0  0  0  0  0  0  0
   -0.9786   -2.5303    0.0000 C   0  0  0  0  0  0  0  0  0
  1  2  1  0  0  0  0
  2  3  4  0  0  0  0
  2  8  4  0  0  0  0
  3  4  4  0  0  0  0
  3 13  1  0  0  0  0
  4  5  4  0  0  0  0
  4 10  1  0  0  0  0
  5  6  4  0  0  0  0
  6  7  1  0  0  0  0
  6  8  4  0  0  0  0
  8  9  1  0  0  0  0
 10 11  1  0  0  0  0
 11 12  1  0  0  0  0
 12 13  1  0  0  0  0
 13 14  1  0  0  0  0
 14 15  1  0  0  0  0
 15 16  4  0  0  0  0
 15 26  4  0  0  0  0
 16 17  4  0  0  0  0
 17 18  1  0  0  0  0
 17 20  4  0  0  0  0
 18 19  1  0  0  0  0
 20 21  1  0  0  0  0
 20 23  4  0  0  0  0
 21 22  1  0  0  0  0
 23 24  1  0  0  0  0
 23 26  4  0  0  0  0
 24 25  1  0  0  0  0
M  END
>  <Name_Molregno>
8-Fluoro-TMQ

>  <Beta-1>
7.43

>  <Beta-2>
8.06

$$$$
9-OH-risperidone
  Marvin  02231216192D 0   1.00000     0.00000     0

 31 35  0  0  1  0  0  0  0  0999 V2000
    1.7758   -2.6889    0.0000 F   0  0  0  0  0  0  0  0  0
    2.0308   -1.9043    0.0000 C   0  0  0  0  0  0  0  0  0
    1.4788   -1.2912    0.0000 C   0  0  0  0  0  0  0  0  0
    1.7337   -0.5066    0.0000 C   0  0  0  0  0  0  0  0  0
    1.3212    0.2079    0.0000 O   0  0  0  0  0  0  0  0  0
    1.8732    0.8210    0.0000 N   0  0  0  0  0  0  0  0  0
    2.6269    0.4854    0.0000 C   0  0  0  0  0  0  0  0  0
    2.5407   -0.3350    0.0000 C   0  0  0  0  0  0  0  0  0
    3.0927   -0.9481    0.0000 C   0  0  0  0  0  0  0  0  0
    2.8378   -1.7327    0.0000 C   0  0  0  0  0  0  0  0  0
    3.3414    0.8979    0.0000 C   0  0  0  0  0  0  0  0  0
    3.3414    1.7229    0.0000 C   0  0  0  0  0  0  0  0  0
    4.0558    2.1354    0.0000 C   0  0  0  0  0  0  0  0  0
    4.7703    1.7229    0.0000 N   0  0  0  0  0  0  0  0  0
    4.7703    0.8979    0.0000 C   0  0  0  0  0  0  0  0  0
    4.0558    0.4854    0.0000 C   0  0  0  0  0  0  0  0  0
    5.4848    2.1354    0.0000 C   0  0  0  0  0  0  0  0  0
    6.1993    1.7229    0.0000 C   0  0  0  0  0  0  0  0  0
    6.9137    2.1354    0.0000 C   0  0  0  0  0  0  0  0  0
    7.6282    1.7229    0.0000 C   0  0  0  0  0  0  0  0  0
    7.6282    0.8979    0.0000 O   0  0  0  0  0  0  0  0  0
    8.3427    2.1354    0.0000 N   0  0  0  0  0  0  0  0  0
    8.3427    2.9604    0.0000 C   0  0  0  0  0  0  0  0  0
    7.6282    3.3729    0.0000 N   0  0  0  0  0  0  0  0  0
    6.9137    2.9604    0.0000 C   0  0  0  0  0  0  0  0  0
    6.1993    3.3729    0.0000 C   0  0  0  0  0  0  0  0  0
    9.0571    3.3729    0.0000 C   0  0  0  0  0  0  0  0  0
    9.0571    4.1979    0.0000 O   0  0  0  0  0  0  0  0  0
    9.7716    2.9604    0.0000 C   0  0  0  0  0  0  0  0  0
    9.7716    2.1354    0.0000 C   0  0  0  0  0  0  0  0  0
    9.0571    1.7229    0.0000 C   0  0  0  0  0  0  0  0  0
  1  2  1  0  0  0  0
  2  3  4  0  0  0  0
  2 10  4  0  0  0  0
  3  4  4  0  0  0  0
  4  5  4  0  0  0  0
  4  8  4  0  0  0  0
  5  6  4  0  0  0  0
  6  7  4  0  0  0  0
  7  8  4  0  0  0  0
  7 11  1  0  0  0  0
  8  9  4  0  0  0  0
  9 10  4  0  0  0  0
 11 12  1  0  0  0  0
 11 16  1  0  0  0  0
 12 13  1  0  0  0  0
 13 14  1  0  0  0  0
 14 15  1  0  0  0  0
 14 17  1  0  0  0  0
 15 16  1  0  0  0  0
 17 18  1  0  0  0  0
 18 19  1  0  0  0  0
 19 20  1  0  0  0  0
 19 25  2  0  0  0  0
 20 21  2  0  0  0  0
 20 22  1  0  0  0  0
 22 23  1  0  0  0  0
 22 31  1  0  0  0  0
 23 24  2  0  0  0  0
 23 27  1  0  0  0  0
 24 25  1  0  0  0  0
 25 26  1  0  0  0  0
 27 28  1  0  0  0  0
 27 29  1  0  0  0  0
 29 30  1  0  0  0  0
 30 31  1  0  0  0  0
M  END
>  <Name_Molregno>
9-OH-risperidone

>  <5-HT1A>
6.24

>  <5-HT1B>
7.51

>  <5-HT1D>
7.44

>  <5-HT1E>
5.49

>  <5-HT2A>
9

>  <5-HT2C>
7.32

>  <5-HT3>
5

>  <5-HT5>
6.56

>  <5-HT6>
5.62

>  <5-HT7>
8.57

>  <Alpha-1A>
8.6

>  <Alpha-1B>
9.15

>  <Alpha-2A>
7.92

>  <Alpha-2B>
7.63

>  <Alpha-2C>
8.2

>  <Beta-1>
5.15

>  <Beta-2>
5.15

>  <DOPAMINE D1>
7.39

>  <DOPAMINE D2>
8.61

>  <DOPAMINE D3>
9.07

>  <DOPAMINE D4>
7.4

>  <DOPAMINE D5>
7.54

>  <Dopamine transporter>
5

>  <HISTAMINE H1>
8.07

>  <HISTAMINE H2>
6.92

>  <HISTAMINE H4>
5.06

>  <Muscarinic acetylcholine receptor M1>
5

>  <Muscarinic acetylcholine receptor M2>
5

>  <Muscarinic acetylcholine receptor M3>
5

>  <Muscarinic acetylcholine receptor M4>
5

>  <Muscarinic acetylcholine receptor M5>
5

>  <Norepinephrine transporter>
5

>  <Serotonin transporter>
5.71

$$$$
ALBUTEROL
  Marvin  02231216192D 0   1.00000     0.00000     0

 17 17  0  0  1  0  0  0  0  0999 V2000
    0.1947    0.9885    0.0000 O   0  0  0  0  0  0  0  0  0
    0.9092    0.5760    0.0000 C   0  0  0  0  0  0  0  0  0
    1.6236    0.9885    0.0000 C   0  0  0  0  0  0  0  0  0
    2.3381    0.5760    0.0000 C   0  0  0  0  0  0  0  0  0
    2.3381   -0.2490    0.0000 C   0  0  0  0  0  0  0  0  0
    1.6236   -0.6615    0.0000 C   0  0  0  0  0  0  0  0  0
    0.9092   -0.2490    0.0000 C   0  0  0  0  0  0  0  0  0
    0.1947   -0.6615    0.0000 C   0  0  0  0  0  0  0  0  0
    0.1947   -1.4865    0.0000 O   0  0  0  0  0  0  0  0  0
    3.0526   -0.6615    0.0000 C   0  0  0  0  0  0  0  0  0
    3.0526   -1.4865    0.0000 O   0  0  0  0  0  0  0  0  0
    3.7670   -0.2490    0.0000 C   0  0  0  0  0  0  0  0  0
    4.4815   -0.6615    0.0000 N   0  0  0  0  0  0  0  0  0
    5.1960   -0.2490    0.0000 C   0  0  0  0  0  0  0  0  0
    5.9105    0.1635    0.0000 C   0  0  0  0  0  0  0  0  0
    5.6085   -0.9635    0.0000 C   0  0  0  0  0  0  0  0  0
    4.7835    0.4654    0.0000 C   0  0  0  0  0  0  0  0  0
  1  2  1  0  0  0  0
  2  3  4  0  0  0  0
  2  7  4  0  0  0  0
  3  4  4  0  0  0  0
  4  5  4  0  0  0  0
  5  6  4  0  0  0  0
  5 10  1  0  0  0  0
  6  7  4  0  0  0  0
  7  8  1  0  0  0  0
  8  9  1  0  0  0  0
 10 11  1  0  0  0  0
 10 12  1  0  0  0  0
 12 13  1  0  0  0  0
 13 14  1  0  0  0  0
 14 15  1  0  0  0  0
 14 16  1  0  0  0  0
 14 17  1  0  0  0  0
M  END
>  <Name_Molregno>
ALBUTEROL

>  <Beta-1>
5.61

>  <Beta-2>
6

$$$$
ALPRENOLOL
  Marvin  02231216192D 0   1.00000     0.00000     0

 18 18  0  0  1  0  0  0  0  0999 V2000
    0.0569    0.1671    0.0000 O   0  0  0  0  0  0  0  0  0
    0.7714   -0.2454    0.0000 C   0  0  0  0  0  0  0  0  0
    1.4859    0.1671    0.0000 C   0  0  0  0  0  0  0  0  0
    1.4859    0.9921    0.0000 O   0  0  0  0  0  0  0  0  0
    2.2003   -0.2454    0.0000 C   0  0  0  0  0  0  0  0  0
    2.9148    0.1671    0.0000 N   0  0  0  0  0  0  0  0  0
    3.6293   -0.2454    0.0000 C   0  0  0  0  0  0  0  0  0
    4.3437    0.1671    0.0000 C   0  0  0  0  0  0  0  0  0
    3.6293   -1.0704    0.0000 C   0  0  0  0  0  0  0  0  0
   -0.6576   -0.2454    0.0000 C   0  0  0  0  0  0  0  0  0
   -0.6576   -1.0704    0.0000 C   0  0  0  0  0  0  0  0  0
   -1.3720   -1.4829    0.0000 C   0  0  0  0  0  0  0  0  0
   -2.0865   -1.0704    0.0000 C   0  0  0  0  0  0  0  0  0
   -2.0865   -0.2454    0.0000 C   0  0  0  0  0  0  0  0  0
   -1.3720    0.1671    0.0000 C   0  0  0  0  0  0  0  0  0
   -1.3720    0.9921    0.0000 C   0  0  0  0  0  0  0  0  0
   -2.0865    1.4046    0.0000 C   0  0  0  0  0  0  0  0  0
   -2.8010    0.9921    0.0000 C   0  0  0  0  0  0  0  0  0
  1  2  1  0  0  0  0
  1 10  1  0  0  0  0
  2  3  1  0  0  0  0
  3  4  1  0  0  0  0
  3  5  1  0  0  0  0
  5  6  1  0  0  0  0
  6  7  1  0  0  0  0
  7  8  1  0  0  0  0
  7  9  1  0  0  0  0
 10 11  4  0  0  0  0
 10 15  4  0  0  0  0
 11 12  4  0  0  0  0
 12 13  4  0  0  0  0
 13 14  4  0  0  0  0
 14 15  4  0  0  0  0
 15 16  1  0  0  0  0
 16 17  1  0  0  0  0
 17 18  2  0  0  0  0
M  END
>  <Name_Molregno>
ALPRENOLOL

>  <5-HT2A>
5.29

>  <Beta-1>
8.24

>  <Beta-2>
8.92

$$$$
APOMORPHINE
  Marvin  02231216192D 0   1.00000     0.00000     0

 20 23  0  0  1  0  0  0  0  0999 V2000
    3.2214   -1.7908    0.0000 O   0  0  0  0  0  0  0  0  0
    3.2214   -0.9658    0.0000 C   0  0  0  0  0  0  0  0  0
    2.5070   -0.5533    0.0000 C   0  0  0  0  0  0  0  0  0
    2.5070    0.2717    0.0000 C   0  0  0  0  0  0  0  0  0
    1.7925    0.6842    0.0000 C   0  0  0  0  0  0  0  0  0
    1.0780    0.2717    0.0000 C   0  0  0  0  0  0  0  0  0
    0.3635    0.6842    0.0000 N   0  0  0  0  0  0  0  0  0
   -0.3509    0.2717    0.0000 C   0  0  0  0  0  0  0  0  0
   -0.3509   -0.5533    0.0000 C   0  0  0  0  0  0  0  0  0
    0.3635   -0.9658    0.0000 C   0  0  0  0  0  0  0  0  0
    1.0780   -0.5533    0.0000 C   0  0  0  0  0  0  0  0  0
    1.7925   -0.9658    0.0000 C   0  0  0  0  0  0  0  0  0
    1.7925   -1.7908    0.0000 C   0  0  0  0  0  0  0  0  0
    1.0780   -2.2033    0.0000 C   0  0  0  0  0  0  0  0  0
    0.3635   -1.7908    0.0000 C   0  0  0  0  0  0  0  0  0
    0.3635    1.5092    0.0000 C   0  0  0  0  0  0  0  0  0
    3.2214    0.6842    0.0000 C   0  0  0  0  0  0  0  0  0
    3.9359    0.2717    0.0000 C   0  0  0  0  0  0  0  0  0
    3.9359   -0.5533    0.0000 C   0  0  0  0  0  0  0  0  0
    4.6504   -0.9658    0.0000 O   0  0  0  0  0  0  0  0  0
  1  2  1  0  0  0  0
  2  3  4  0  0  0  0
  2 19  4  0  0  0  0
  3  4  4  0  0  0  0
  3 12  1  0  0  0  0
  4  5  1  0  0  0  0
  4 17  4  0  0  0  0
  5  6  1  0  0  0  0
  6  7  1  0  0  0  0
  6 11  1  0  0  0  0
  7  8  1  0  0  0  0
  7 16  1  0  0  0  0
  8  9  1  0  0  0  0
  9 10  1  0  0  0  0
 10 11  4  0  0  0  0
 10 15  4  0  0  0  0
 11 12  4  0  0  0  0
 12 13  4  0  0  0  0
 13 14  4  0  0  0  0
 14 15  4  0  0  0  0
 17 18  4  0  0  0  0
 18 19  4  0  0  0  0
 19 20  1  0  0  0  0
M  END
>  <Name_Molregno>
APOMORPHINE

>  <5-HT1A>
6.12

>  <5-HT1B>
5.53

>  <5-HT1D>
5.91

>  <5-HT2A>
6.63

>  <5-HT2C>
6.99

>  <Alpha-1A>
5.7

>  <Alpha-1B>
6.17

>  <Alpha-2A>
6.85

>  <Alpha-2B>
7.18

>  <Alpha-2C>
7.44

>  <Beta-1>
5

>  <Beta-2>
5

>  <DOPAMINE D1>
6.4

>  <DOPAMINE D2>
7.34

>  <DOPAMINE D3>
7.65

>  <DOPAMINE D4>
7.92

>  <DOPAMINE D5>
7.14

$$$$
ARIPIPRAZOLE
  Marvin  02231216192D 0   1.00000     0.00000     0

 30 33  0  0  0  0  0  0  0  0999 V2000
   -8.7485    0.0493    0.0000 Cl  0  0  0  0  0  0  0  0  0
   -8.7485   -0.7757    0.0000 C   0  0  0  0  0  0  0  0  0
   -8.0340   -1.1882    0.0000 C   0  0  0  0  0  0  0  0  0
   -7.3195   -0.7757    0.0000 N   0  0  0  0  0  0  0  0  0
   -7.3195    0.0493    0.0000 C   0  0  0  0  0  0  0  0  0
   -6.6051    0.4618    0.0000 C   0  0  0  0  0  0  0  0  0
   -5.8906    0.0493    0.0000 N   0  0  0  0  0  0  0  0  0
   -5.8906   -0.7757    0.0000 C   0  0  0  0  0  0  0  0  0
   -6.6051   -1.1882    0.0000 C   0  0  0  0  0  0  0  0  0
   -5.1761    0.4618    0.0000 C   0  0  0  0  0  0  0  0  0
   -4.4616    0.0493    0.0000 C   0  0  0  0  0  0  0  0  0
   -3.7472    0.4618    0.0000 C   0  0  0  0  0  0  0  0  0
   -3.0327    0.0493    0.0000 C   0  0  0  0  0  0  0  0  0
   -2.3182    0.4618    0.0000 O   0  0  0  0  0  0  0  0  0
   -1.6038    0.0493    0.0000 C   0  0  0  0  0  0  0  0  0
   -0.8893    0.4618    0.0000 C   0  0  0  0  0  0  0  0  0
   -0.1748    0.0493    0.0000 C   0  0  0  0  0  0  0  0  0
    0.5397    0.4618    0.0000 N   0  0  0  0  0  0  0  0  0
    1.2541    0.0493    0.0000 C   0  0  0  0  0  0  0  0  0
    1.9686    0.4618    0.0000 O   0  0  0  0  0  0  0  0  0
    1.2541   -0.7757    0.0000 C   0  0  0  0  0  0  0  0  0
    0.5397   -1.1882    0.0000 C   0  0  0  0  0  0  0  0  0
   -0.1748   -0.7757    0.0000 C   0  0  0  0  0  0  0  0  0
   -0.8893   -1.1882    0.0000 C   0  0  0  0  0  0  0  0  0
   -1.6038   -0.7757    0.0000 C   0  0  0  0  0  0  0  0  0
   -8.0340   -2.0132    0.0000 C   0  0  0  0  0  0  0  0  0
   -8.7485   -2.4257    0.0000 C   0  0  0  0  0  0  0  0  0
   -9.4629   -2.0132    0.0000 C   0  0  0  0  0  0  0  0  0
   -9.4629   -1.1882    0.0000 C   0  0  0  0  0  0  0  0  0
  -10.1774   -0.7757    0.0000 Cl  0  0  0  0  0  0  0  0  0
  1  2  1  0  0  0  0
  2  3  4  0  0  0  0
  2 29  4  0  0  0  0
  3  4  1  0  0  0  0
  3 26  4  0  0  0  0
  4  5  1  0  0  0  0
  4  9  1  0  0  0  0
  5  6  1  0  0  0  0
  6  7  1  0  0  0  0
  7  8  1  0  0  0  0
  7 10  1  0  0  0  0
  8  9  1  0  0  0  0
 10 11  1  0  0  0  0
 11 12  1  0  0  0  0
 12 13  1  0  0  0  0
 13 14  1  0  0  0  0
 14 15  1  0  0  0  0
 15 16  4  0  0  0  0
 15 25  4  0  0  0  0
 16 17  4  0  0  0  0
 17 18  1  0  0  0  0
 17 23  4  0  0  0  0
 18 19  1  0  0  0  0
 19 20  2  0  0  0  0
 19 21  1  0  0  0  0
 21 22  1  0  0  0  0
 22 23  1  0  0  0  0
 23 24  4  0  0  0  0
 24 25  4  0  0  0  0
 26 27  4  0  0  0  0
 27 28  4  0  0  0  0
 28 29  4  0  0  0  0
 29 30  1  0  0  0  0
M  END
>  <Name_Molregno>
ARIPIPRAZOLE

>  <5-HT1A>
8.21

>  <5-HT1B>
6.08

>  <5-HT1D>
7.18

>  <5-HT1E>
5.1

>  <5-HT2A>
7.85

>  <5-HT2C>
7.48

>  <5-HT3>
6.25

>  <5-HT5>
5.91

>  <5-HT6>
6.32

>  <5-HT7>
7.81

>  <Alpha-1A>
7.59

>  <Alpha-1B>
7.46

>  <Alpha-2A>
7.13

>  <Alpha-2B>
6.99

>  <Alpha-2C>
7.42

>  <Beta-1>
6.85

>  <Beta-2>
6.79

>  <DOPAMINE D1>
6.06

>  <DOPAMINE D2>
8.72

>  <DOPAMINE D3>
8.45

>  <DOPAMINE D4>
6.51

>  <DOPAMINE D5>
5.69

>  <Dopamine transporter>
5.49

>  <HISTAMINE H1>
7.56

>  <HISTAMINE H2>
5

>  <HISTAMINE H4>
5

>  <Muscarinic acetylcholine receptor M1>
5.17

>  <Muscarinic acetylcholine receptor M2>
5.45

>  <Muscarinic acetylcholine receptor M3>
5.33

>  <Muscarinic acetylcholine receptor M4>
5.82

>  <Muscarinic acetylcholine receptor M5>
5.63

>  <Norepinephrine transporter>
5.68

>  <Serotonin transporter>
6.48

$$$$
ATENOLOL
  Marvin  02231216192D 0   1.00000     0.00000     0

 19 19  0  0  1  0  0  0  0  0999 V2000
   -0.1473   -1.4603    0.0000 O   0  0  0  0  0  0  0  0  0
    0.5672   -1.0478    0.0000 C   0  0  0  0  0  0  0  0  0
    1.2816   -1.4603    0.0000 C   0  0  0  0  0  0  0  0  0
    1.2816   -2.2853    0.0000 O   0  0  0  0  0  0  0  0  0
    1.9961   -1.0478    0.0000 C   0  0  0  0  0  0  0  0  0
    2.7106   -1.4603    0.0000 N   0  0  0  0  0  0  0  0  0
    3.4251   -1.0478    0.0000 C   0  0  0  0  0  0  0  0  0
    4.1395   -1.4603    0.0000 C   0  0  0  0  0  0  0  0  0
    3.4251   -0.2228    0.0000 C   0  0  0  0  0  0  0  0  0
   -0.8618   -1.0478    0.0000 C   0  0  0  0  0  0  0  0  0
   -1.5762   -1.4603    0.0000 C   0  0  0  0  0  0  0  0  0
   -2.2907   -1.0478    0.0000 C   0  0  0  0  0  0  0  0  0
   -2.2907   -0.2228    0.0000 C   0  0  0  0  0  0  0  0  0
   -1.5762    0.1897    0.0000 C   0  0  0  0  0  0  0  0  0
   -0.8618   -0.2228    0.0000 C   0  0  0  0  0  0  0  0  0
   -3.0052    0.1897    0.0000 C   0  0  0  0  0  0  0  0  0
   -3.0052    1.0147    0.0000 C   0  0  0  0  0  0  0  0  0
   -3.7196    1.4272    0.0000 O   0  0  0  0  0  0  0  0  0
   -2.2907    1.4272    0.0000 N   0  0  0  0  0  0  0  0  0
  1  2  1  0  0  0  0
  1 10  1  0  0  0  0
  2  3  1  0  0  0  0
  3  4  1  0  0  0  0
  3  5  1  0  0  0  0
  5  6  1  0  0  0  0
  6  7  1  0  0  0  0
  7  8  1  0  0  0  0
  7  9  1  0  0  0  0
 10 11  4  0  0  0  0
 10 15  4  0  0  0  0
 11 12  4  0  0  0  0
 12 13  4  0  0  0  0
 13 14  4  0  0  0  0
 13 16  1  0  0  0  0
 14 15  4  0  0  0  0
 16 17  1  0  0  0  0
 17 18  2  0  0  0  0
 17 19  1  0  0  0  0
M  END
>  <Name_Molregno>
ATENOLOL

>  <5-HT2A>
5

>  <Beta-1>
6.41

>  <Beta-2>
5.09

$$$$
B-HT920
  Marvin  02231216192D 0   1.00000     0.00000     0

 14 15  0  0  0  0  0  0  0  0999 V2000
   -3.1193    0.1933    0.0000 S   0  0  0  0  0  0  0  0  0
   -2.3347   -0.0617    0.0000 C   0  0  0  0  0  0  0  0  0
   -1.6896    0.4527    0.0000 C   0  0  0  0  0  0  0  0  0
   -0.8853    0.2691    0.0000 C   0  0  0  0  0  0  0  0  0
   -0.5274   -0.4742    0.0000 N   0  0  0  0  0  0  0  0  0
   -0.8853   -1.2175    0.0000 C   0  0  0  0  0  0  0  0  0
   -1.6896   -1.4010    0.0000 C   0  0  0  0  0  0  0  0  0
   -2.3347   -0.8867    0.0000 C   0  0  0  0  0  0  0  0  0
   -3.1193   -1.1416    0.0000 N   0  0  0  0  0  0  0  0  0
   -3.6042   -0.4742    0.0000 C   0  0  0  0  0  0  0  0  0
   -4.4292   -0.4742    0.0000 N   0  0  0  0  0  0  0  0  0
    0.2976   -0.4742    0.0000 C   0  0  0  0  0  0  0  0  0
    0.7101   -1.1886    0.0000 C   0  0  0  0  0  0  0  0  0
    1.5351   -1.1886    0.0000 C   0  0  0  0  0  0  0  0  0
  1  2  4  0  0  0  0
  1 10  4  0  0  0  0
  2  3  1  0  0  0  0
  2  8  4  0  0  0  0
  3  4  1  0  0  0  0
  4  5  1  0  0  0  0
  5  6  1  0  0  0  0
  5 12  1  0  0  0  0
  6  7  1  0  0  0  0
  7  8  1  0  0  0  0
  8  9  4  0  0  0  0
  9 10  4  0  0  0  0
 10 11  1  0  0  0  0
 12 13  1  0  0  0  0
 13 14  2  0  0  0  0
M  END
>  <Name_Molregno>
B-HT920

>  <5-HT1A>
5.77

>  <5-HT1B>
5

>  <5-HT1D>
5

>  <5-HT2A>
5

>  <5-HT2C>
5

>  <Alpha-1A>
5

>  <Alpha-1B>
5.41

>  <Alpha-2A>
6.91

>  <Alpha-2B>
6.69

>  <Alpha-2C>
6.69

>  <Beta-1>
5

>  <Beta-2>
5

>  <DOPAMINE D1>
5

>  <DOPAMINE D2>
6.88

>  <DOPAMINE D3>
7.8

>  <DOPAMINE D4>
6.48

>  <DOPAMINE D5>
5.46

$$$$
Bisoprolol
  Marvin  02231216192D 0   1.00000     0.00000     0

 23 23  0  0  1  0  0  0  0  0999 V2000
   -3.0750   -0.6218    0.0000 O   0  0  0  0  0  0  0  0  0
   -3.0750   -1.4468    0.0000 C   0  0  0  0  0  0  0  0  0
   -3.7895   -1.8593    0.0000 C   0  0  0  0  0  0  0  0  0
   -4.5040   -1.4468    0.0000 O   0  0  0  0  0  0  0  0  0
   -3.7895   -2.6843    0.0000 C   0  0  0  0  0  0  0  0  0
   -4.5040   -3.0968    0.0000 N   0  0  0  0  0  0  0  0  0
   -4.5040   -3.9218    0.0000 C   0  0  0  0  0  0  0  0  0
   -5.2184   -4.3343    0.0000 C   0  0  0  0  0  0  0  0  0
   -3.7895   -4.3343    0.0000 C   0  0  0  0  0  0  0  0  0
   -2.3606   -0.2093    0.0000 C   0  0  0  0  0  0  0  0  0
   -2.3606    0.6157    0.0000 C   0  0  0  0  0  0  0  0  0
   -1.6461    1.0282    0.0000 C   0  0  0  0  0  0  0  0  0
   -0.9316    0.6157    0.0000 C   0  0  0  0  0  0  0  0  0
   -0.9316   -0.2093    0.0000 C   0  0  0  0  0  0  0  0  0
   -1.6461   -0.6218    0.0000 C   0  0  0  0  0  0  0  0  0
   -0.2171    1.0282    0.0000 C   0  0  0  0  0  0  0  0  0
    0.4973    0.6157    0.0000 O   0  0  0  0  0  0  0  0  0
    1.2118    1.0282    0.0000 C   0  0  0  0  0  0  0  0  0
    1.9263    0.6157    0.0000 C   0  0  0  0  0  0  0  0  0
    2.6407    1.0282    0.0000 O   0  0  0  0  0  0  0  0  0
    3.3552    0.6157    0.0000 C   0  0  0  0  0  0  0  0  0
    4.0697    1.0282    0.0000 C   0  0  0  0  0  0  0  0  0
    3.3552   -0.2093    0.0000 C   0  0  0  0  0  0  0  0  0
  1  2  1  0  0  0  0
  1 10  1  0  0  0  0
  2  3  1  0  0  0  0
  3  4  1  0  0  0  0
  3  5  1  0  0  0  0
  5  6  1  0  0  0  0
  6  7  1  0  0  0  0
  7  8  1  0  0  0  0
  7  9  1  0  0  0  0
 10 11  4  0  0  0  0
 10 15  4  0  0  0  0
 11 12  4  0  0  0  0
 12 13  4  0  0  0  0
 13 14  4  0  0  0  0
 13 16  1  0  0  0  0
 14 15  4  0  0  0  0
 16 17  1  0  0  0  0
 17 18  1  0  0  0  0
 18 19  1  0  0  0  0
 19 20  1  0  0  0  0
 20 21  1  0  0  0  0
 21 22  1  0  0  0  0
 21 23  1  0  0  0  0
M  END
>  <Name_Molregno>
Bisoprolol

>  <Beta-1>
7.65

>  <Beta-2>
5.94

$$$$
BROMOCRIPTINE
  Marvin  02231216192D 0   1.00000     0.00000     0

 43 49  0  0  1  0  0  0  0  0999 V2000
    6.2699    4.4922    0.0000 Br  0  0  0  0  0  0  0  0  0
    6.7473    3.8193    0.0000 C   0  0  0  0  0  0  0  0  0
    7.5723    3.8193    0.0000 N   0  0  0  0  0  0  0  0  0
    7.8776    2.9622    0.0000 C   0  0  0  0  0  0  0  0  0
    7.1598    2.5497    0.0000 C   0  0  0  0  0  0  0  0  0
    6.4473    2.9622    0.0000 C   0  0  0  0  0  0  0  0  0
    5.7348    2.5497    0.0000 C   0  0  0  0  0  0  0  0  0
    5.7348    1.7247    0.0000 C   0  0  0  0  0  0  0  0  0
    5.0198    1.3130    0.0000 N   0  0  0  0  0  0  0  0  0
    5.0188    0.4880    0.0000 C   0  0  0  0  0  0  0  0  0
    5.7328    0.0747    0.0000 C   0  0  0  0  0  0  0  0  0
    6.4478    0.4863    0.0000 C   0  0  0  0  0  0  0  0  0
    6.4488    1.3113    0.0000 C   0  0  0  0  0  0  0  0  0
    7.1598    1.7247    0.0000 C   0  0  0  0  0  0  0  0  0
    7.8776    1.3122    0.0000 C   0  0  0  0  0  0  0  0  0
    8.5901    1.7247    0.0000 C   0  0  0  0  0  0  0  0  0
    8.5901    2.5497    0.0000 C   0  0  0  0  0  0  0  0  0
    5.7318   -0.7503    0.0000 C   0  0  0  0  0  0  0  0  0
    6.4458   -1.1637    0.0000 O   0  0  0  0  0  0  0  0  0
    5.0168   -1.1620    0.0000 N   0  0  0  0  0  0  0  0  0
    5.0159   -1.9870    0.0000 C   0  0  0  0  0  0  0  0  0
    5.1864   -2.7941    0.0000 O   0  0  0  0  0  0  0  0  0
    4.4715   -3.2058    0.0000 C   0  0  0  0  0  0  0  0  0
    5.1383   -3.6915    0.0000 O   0  0  0  0  0  0  0  0  0
    3.8590   -2.6530    0.0000 N   0  0  0  0  0  0  0  0  0
    3.0741   -2.9070    0.0000 C   0  0  0  0  0  0  0  0  0
    2.4617   -2.3543    0.0000 C   0  0  0  0  0  0  0  0  0
    1.6767   -2.6083    0.0000 C   0  0  0  0  0  0  0  0  0
    1.0643   -2.0555    0.0000 C   0  0  0  0  0  0  0  0  0
    1.5042   -3.4150    0.0000 C   0  0  0  0  0  0  0  0  0
    2.9016   -3.7138    0.0000 C   0  0  0  0  0  0  0  0  0
    2.1167   -3.9678    0.0000 O   0  0  0  0  0  0  0  0  0
    3.5140   -4.2665    0.0000 N   0  0  0  0  0  0  0  0  0
    4.2990   -4.0125    0.0000 C   0  0  0  0  0  0  0  0  0
    4.7831   -4.6806    0.0000 C   0  0  0  0  0  0  0  0  0
    4.2974   -5.3474    0.0000 C   0  0  0  0  0  0  0  0  0
    3.5131   -5.0915    0.0000 C   0  0  0  0  0  0  0  0  0
    4.1955   -1.8997    0.0000 C   0  0  0  0  0  0  0  0  0
    3.7838   -1.1848    0.0000 O   0  0  0  0  0  0  0  0  0
    5.8364   -1.9017    0.0000 C   0  0  0  0  0  0  0  0  0
    6.5514   -1.4901    0.0000 C   0  0  0  0  0  0  0  0  0
    6.3206   -2.5697    0.0000 C   0  0  0  0  0  0  0  0  0
    4.3058    1.7264    0.0000 C   0  0  0  0  0  0  0  0  0
  1  2  1  0  0  0  0
  2  3  4  0  0  0  0
  2  6  4  0  0  0  0
  3  4  4  0  0  0  0
  4  5  4  0  0  0  0
  4 17  4  0  0  0  0
  5  6  4  0  0  0  0
  5 14  4  0  0  0  0
  6  7  1  0  0  0  0
  7  8  1  0  0  0  0
  8  9  1  0  0  0  0
  8 13  1  0  0  0  0
  9 10  1  0  0  0  0
  9 43  1  0  0  0  0
 10 11  1  0  0  0  0
 11 12  1  0  0  0  0
 11 18  1  0  0  0  0
 12 13  2  0  0  0  0
 13 14  1  0  0  0  0
 14 15  4  0  0  0  0
 15 16  4  0  0  0  0
 16 17  4  0  0  0  0
 18 19  2  0  0  0  0
 18 20  1  0  0  0  0
 20 21  1  0  0  0  0
 21 22  1  0  0  0  0
 21 38  1  0  0  0  0
 21 40  1  0  0  0  0
 22 23  1  0  0  0  0
 23 24  1  0  0  0  0
 23 25  1  0  0  0  0
 23 34  1  0  0  0  0
 25 26  1  0  0  0  0
 25 38  1  0  0  0  0
 26 27  1  0  0  0  0
 26 31  1  0  0  0  0
 27 28  1  0  0  0  0
 28 29  1  0  0  0  0
 28 30  1  0  0  0  0
 31 32  2  0  0  0  0
 31 33  1  0  0  0  0
 33 34  1  0  0  0  0
 33 37  1  0  0  0  0
 34 35  1  0  0  0  0
 35 36  1  0  0  0  0
 36 37  1  0  0  0  0
 38 39  2  0  0  0  0
 40 41  1  0  0  0  0
 40 42  1  0  0  0  0
M  STY  1   1 DAT
M  SAL   1  1   3
M  SDT   1 MRV_IMPLICIT_H                                        
M  SDD   1     0.0000    0.0000    DR    ALL  0       0  
M  SED   1 IMPL_H1
M  END
>  <Name_Molregno>
BROMOCRIPTINE

>  <5-HT1A>
7.7

>  <5-HT1B>
6.45

>  <5-HT1D>
7.97

>  <5-HT2A>
6.97

>  <5-HT2C>
6.13

>  <5-HT6>
7.39

>  <Alpha-1A>
8.38

>  <Alpha-1B>
8.86

>  <Alpha-2A>
7.96

>  <Alpha-2B>
7.46

>  <Alpha-2C>
7.55

>  <Beta-1>
6.23

>  <Beta-2>
6.13

>  <DOPAMINE D1>
6

>  <DOPAMINE D2>
8.31

>  <DOPAMINE D3>
8.02

>  <DOPAMINE D4>
6.33

>  <DOPAMINE D5>
6.31

$$$$
Broxaterol
  Marvin  02231216192D 0   1.00000     0.00000     0

 14 14  0  0  1  0  0  0  0  0999 V2000
   -0.0733    0.1134    0.0000 Br  0  0  0  0  0  0  0  0  0
    0.7472    0.1996    0.0000 C   0  0  0  0  0  0  0  0  0
    1.1597    0.9141    0.0000 N   0  0  0  0  0  0  0  0  0
    1.9667    0.7426    0.0000 O   0  0  0  0  0  0  0  0  0
    2.0529   -0.0779    0.0000 C   0  0  0  0  0  0  0  0  0
    1.2992   -0.4135    0.0000 C   0  0  0  0  0  0  0  0  0
    2.7674   -0.4904    0.0000 C   0  0  0  0  0  0  0  0  0
    2.7674   -1.3154    0.0000 O   0  0  0  0  0  0  0  0  0
    3.4818   -0.0779    0.0000 C   0  0  0  0  0  0  0  0  0
    4.1963   -0.4904    0.0000 N   0  0  0  0  0  0  0  0  0
    4.9108   -0.0779    0.0000 C   0  0  0  0  0  0  0  0  0
    5.6253    0.3346    0.0000 C   0  0  0  0  0  0  0  0  0
    5.3233   -0.7924    0.0000 C   0  0  0  0  0  0  0  0  0
    4.4983    0.6366    0.0000 C   0  0  0  0  0  0  0  0  0
  1  2  1  0  0  0  0
  2  3  4  0  0  0  0
  2  6  4  0  0  0  0
  3  4  4  0  0  0  0
  4  5  4  0  0  0  0
  5  6  4  0  0  0  0
  5  7  1  0  0  0  0
  7  8  1  0  0  0  0
  7  9  1  0  0  0  0
  9 10  1  0  0  0  0
 10 11  1  0  0  0  0
 11 12  1  0  0  0  0
 11 13  1  0  0  0  0
 11 14  1  0  0  0  0
M  END
>  <Name_Molregno>
Broxaterol

>  <Beta-1>
5.88

>  <Beta-2>
5.89

$$$$
Cabergoline
  Marvin  02231216192D 0   1.00000     0.00000     0

 33 36  0  0  1  0  0  0  0  0999 V2000
    0.1488   -3.1643    0.0000 O   0  0  0  0  0  0  0  0  0
   -0.5651   -2.7509    0.0000 C   0  0  0  0  0  0  0  0  0
   -1.2801   -3.1625    0.0000 N   0  0  0  0  0  0  0  0  0
   -1.2811   -3.9875    0.0000 C   0  0  0  0  0  0  0  0  0
   -1.9961   -4.3992    0.0000 C   0  0  0  0  0  0  0  0  0
   -1.9970   -5.2242    0.0000 C   0  0  0  0  0  0  0  0  0
   -2.7120   -5.6358    0.0000 N   0  0  0  0  0  0  0  0  0
   -2.7130   -6.4608    0.0000 C   0  0  0  0  0  0  0  0  0
   -3.4260   -5.2225    0.0000 C   0  0  0  0  0  0  0  0  0
   -1.9941   -2.7492    0.0000 C   0  0  0  0  0  0  0  0  0
   -2.7090   -3.1608    0.0000 O   0  0  0  0  0  0  0  0  0
   -1.9931   -1.9242    0.0000 N   0  0  0  0  0  0  0  0  0
   -2.7071   -1.5108    0.0000 C   0  0  0  0  0  0  0  0  0
   -3.4220   -1.9225    0.0000 C   0  0  0  0  0  0  0  0  0
   -0.5641   -1.9259    0.0000 C   0  0  0  0  0  0  0  0  0
    0.1508   -1.5143    0.0000 C   0  0  0  0  0  0  0  0  0
    0.1518   -0.6893    0.0000 C   0  0  0  0  0  0  0  0  0
   -0.5622   -0.2759    0.0000 C   0  0  0  0  0  0  0  0  0
   -1.2771   -0.6875    0.0000 N   0  0  0  0  0  0  0  0  0
   -1.2781   -1.5125    0.0000 C   0  0  0  0  0  0  0  0  0
   -1.9911   -0.2742    0.0000 C   0  0  0  0  0  0  0  0  0
   -2.7061   -0.6858    0.0000 C   0  0  0  0  0  0  0  0  0
   -3.4201   -0.2725    0.0000 C   0  0  0  0  0  0  0  0  0
   -0.5607    0.5482    0.0000 C   0  0  0  0  0  0  0  0  0
    0.1518    0.9607    0.0000 C   0  0  0  0  0  0  0  0  0
    0.8643    0.5482    0.0000 C   0  0  0  0  0  0  0  0  0
    0.8643   -0.2768    0.0000 C   0  0  0  0  0  0  0  0  0
    1.5822   -0.6893    0.0000 C   0  0  0  0  0  0  0  0  0
    2.2947   -0.2768    0.0000 C   0  0  0  0  0  0  0  0  0
    2.2947    0.5482    0.0000 C   0  0  0  0  0  0  0  0  0
    1.5822    0.9607    0.0000 C   0  0  0  0  0  0  0  0  0
    1.2768    1.8179    0.0000 N   0  0  0  0  0  0  0  0  0
    0.4518    1.8179    0.0000 C   0  0  0  0  0  0  0  0  0
  1  2  2  0  0  0  0
  2  3  1  0  0  0  0
  2 15  1  0  0  0  0
  3  4  1  0  0  0  0
  3 10  1  0  0  0  0
  4  5  1  0  0  0  0
  5  6  1  0  0  0  0
  6  7  1  0  0  0  0
  7  8  1  0  0  0  0
  7  9  1  0  0  0  0
 10 11  2  0  0  0  0
 10 12  1  0  0  0  0
 12 13  1  0  0  0  0
 13 14  1  0  0  0  0
 15 16  1  0  0  0  0
 15 20  1  0  0  0  0
 16 17  1  0  0  0  0
 17 18  1  0  0  0  0
 17 27  1  0  0  0  0
 18 19  1  0  0  0  0
 18 24  1  0  0  0  0
 19 20  1  0  0  0  0
 19 21  1  0  0  0  0
 21 22  1  0  0  0  0
 22 23  2  0  0  0  0
 24 25  1  0  0  0  0
 25 26  4  0  0  0  0
 25 33  4  0  0  0  0
 26 27  4  0  0  0  0
 26 31  4  0  0  0  0
 27 28  4  0  0  0  0
 28 29  4  0  0  0  0
 29 30  4  0  0  0  0
 30 31  4  0  0  0  0
 31 32  4  0  0  0  0
 32 33  4  0  0  0  0
M  STY  1   1 DAT
M  SAL   1  1  32
M  SDT   1 MRV_IMPLICIT_H                                        
M  SDD   1     0.0000    0.0000    DR    ALL  0       0  
M  SED   1 IMPL_H1
M  END
>  <Name_Molregno>
Cabergoline

>  <5-HT1A>
7.7

>  <5-HT1B>
6.32

>  <5-HT1D>
8.06

>  <5-HT2A>
8.21

>  <5-HT2C>
6.16

>  <Alpha-1A>
6.54

>  <Alpha-1B>
7.22

>  <Alpha-2A>
7.92

>  <Alpha-2B>
7.14

>  <Alpha-2C>
7.65

>  <Beta-1>
5

>  <Beta-2>
5

>  <DOPAMINE D1>
6.67

>  <DOPAMINE D2>
9.12

>  <DOPAMINE D3>
9.1

>  <DOPAMINE D4>
7.25

>  <DOPAMINE D5>
7.65

$$$$
Carvedilol
  Marvin  02231216192D 0   1.00000     0.00000     0

 30 33  0  0  1  0  0  0  0  0999 V2000
    0.1308    0.2139    0.0000 O   0  0  0  0  0  0  0  0  0
    0.8453    0.6264    0.0000 C   0  0  0  0  0  0  0  0  0
    1.5598    0.2139    0.0000 C   0  0  0  0  0  0  0  0  0
    2.2743    0.6264    0.0000 N   0  0  0  0  0  0  0  0  0
    2.9887    0.2139    0.0000 C   0  0  0  0  0  0  0  0  0
    3.7032    0.6264    0.0000 C   0  0  0  0  0  0  0  0  0
    3.7032    1.4514    0.0000 O   0  0  0  0  0  0  0  0  0
    4.4177    0.2139    0.0000 C   0  0  0  0  0  0  0  0  0
    5.1321    0.6264    0.0000 O   0  0  0  0  0  0  0  0  0
    5.8466    0.2139    0.0000 C   0  0  0  0  0  0  0  0  0
    5.8466   -0.6111    0.0000 C   0  0  0  0  0  0  0  0  0
    5.2335   -1.1631    0.0000 C   0  0  0  0  0  0  0  0  0
    5.5691   -1.9168    0.0000 C   0  0  0  0  0  0  0  0  0
    6.3896   -1.8306    0.0000 N   0  0  0  0  0  0  0  0  0
    6.5611   -1.0236    0.0000 C   0  0  0  0  0  0  0  0  0
    7.2756   -0.6111    0.0000 C   0  0  0  0  0  0  0  0  0
    7.2756    0.2139    0.0000 C   0  0  0  0  0  0  0  0  0
    6.5611    0.6264    0.0000 C   0  0  0  0  0  0  0  0  0
    5.0842   -2.5842    0.0000 C   0  0  0  0  0  0  0  0  0
    4.2637   -2.4980    0.0000 C   0  0  0  0  0  0  0  0  0
    3.9281   -1.7443    0.0000 C   0  0  0  0  0  0  0  0  0
    4.4130   -1.0769    0.0000 C   0  0  0  0  0  0  0  0  0
   -0.5836    0.6264    0.0000 C   0  0  0  0  0  0  0  0  0
   -1.2981    0.2139    0.0000 C   0  0  0  0  0  0  0  0  0
   -2.0126    0.6264    0.0000 C   0  0  0  0  0  0  0  0  0
   -2.0126    1.4514    0.0000 C   0  0  0  0  0  0  0  0  0
   -1.2981    1.8639    0.0000 C   0  0  0  0  0  0  0  0  0
   -0.5836    1.4514    0.0000 C   0  0  0  0  0  0  0  0  0
    0.1308    1.8639    0.0000 O   0  0  0  0  0  0  0  0  0
    0.1308    2.6889    0.0000 C   0  0  0  0  0  0  0  0  0
  1  2  1  0  0  0  0
  1 23  1  0  0  0  0
  2  3  1  0  0  0  0
  3  4  1  0  0  0  0
  4  5  1  0  0  0  0
  5  6  1  0  0  0  0
  6  7  1  0  0  0  0
  6  8  1  0  0  0  0
  8  9  1  0  0  0  0
  9 10  1  0  0  0  0
 10 11  4  0  0  0  0
 10 18  4  0  0  0  0
 11 12  4  0  0  0  0
 11 15  4  0  0  0  0
 12 13  4  0  0  0  0
 12 22  4  0  0  0  0
 13 14  4  0  0  0  0
 13 19  4  0  0  0  0
 14 15  4  0  0  0  0
 15 16  4  0  0  0  0
 16 17  4  0  0  0  0
 17 18  4  0  0  0  0
 19 20  4  0  0  0  0
 20 21  4  0  0  0  0
 21 22  4  0  0  0  0
 23 24  4  0  0  0  0
 23 28  4  0  0  0  0
 24 25  4  0  0  0  0
 25 26  4  0  0  0  0
 26 27  4  0  0  0  0
 27 28  4  0  0  0  0
 28 29  1  0  0  0  0
 29 30  1  0  0  0  0
M  STY  1   1 DAT
M  SAL   1  1  14
M  SDT   1 MRV_IMPLICIT_H                                        
M  SDD   1     0.0000    0.0000    DR    ALL  0       0  
M  SED   1 IMPL_H1
M  END
>  <Name_Molregno>
Carvedilol

>  <Beta-1>
8.77

>  <Beta-2>
8.96

$$$$
Cathinone
  Marvin  02231216192D 0   1.00000     0.00000     0

 11 11  0  0  1  0  0  0  0  0999 V2000
    1.9974    0.2298    0.0000 O   0  0  0  0  0  0  0  0  0
    1.2829   -0.1827    0.0000 C   0  0  0  0  0  0  0  0  0
    0.5684    0.2298    0.0000 C   0  0  0  0  0  0  0  0  0
    0.5684    1.0548    0.0000 N   0  0  0  0  0  0  0  0  0
   -0.1461   -0.1827    0.0000 C   0  0  0  0  0  0  0  0  0
    1.2829   -1.0077    0.0000 C   0  0  0  0  0  0  0  0  0
    1.9974   -1.4202    0.0000 C   0  0  0  0  0  0  0  0  0
    1.9974   -2.2452    0.0000 C   0  0  0  0  0  0  0  0  0
    1.2829   -2.6577    0.0000 C   0  0  0  0  0  0  0  0  0
    0.5684   -2.2452    0.0000 C   0  0  0  0  0  0  0  0  0
    0.5684   -1.4202    0.0000 C   0  0  0  0  0  0  0  0  0
  1  2  2  0  0  0  0
  2  3  1  0  0  0  0
  2  6  1  0  0  0  0
  3  4  1  0  0  0  0
  3  5  1  0  0  0  0
  6  7  4  0  0  0  0
  6 11  4  0  0  0  0
  7  8  4  0  0  0  0
  8  9  4  0  0  0  0
  9 10  4  0  0  0  0
 10 11  4  0  0  0  0
M  END
>  <Name_Molregno>
Cathinone

>  <5-HT1A>
5

>  <5-HT1B>
5

>  <5-HT1D>
5

>  <5-HT1E>
5

>  <5-HT3>
5

>  <5-HT5>
5

>  <5-HT6>
5

>  <5-HT7>
5.57

>  <Alpha-1A>
5

>  <Alpha-1B>
5

>  <Alpha-2A>
5.17

>  <Alpha-2B>
6.04

>  <Alpha-2C>
6.12

>  <Beta-1>
5

>  <Beta-2>
5

>  <DOPAMINE D1>
5

>  <DOPAMINE D2>
5

>  <DOPAMINE D4>
5

>  <DOPAMINE D5>
5

>  <Dopamine transporter>
6.37

>  <HISTAMINE H1>
5

>  <HISTAMINE H2>
5

>  <HISTAMINE H4>
5

>  <Muscarinic acetylcholine receptor M1>
5

>  <Muscarinic acetylcholine receptor M2>
5

>  <Muscarinic acetylcholine receptor M3>
5

>  <Muscarinic acetylcholine receptor M4>
5

>  <Muscarinic acetylcholine receptor M5>
5

>  <Norepinephrine transporter>
6.76

>  <Serotonin transporter>
5.32

$$$$
CGP12177
  Marvin  02231216192D 0   1.00000     0.00000     0

 20 21  0  0  1  0  0  0  0  0999 V2000
   -0.0057   -0.3497    0.0000 O   0  0  0  0  0  0  0  0  0
    0.7088    0.0628    0.0000 C   0  0  0  0  0  0  0  0  0
    1.4233   -0.3497    0.0000 C   0  0  0  0  0  0  0  0  0
    1.4233   -1.1747    0.0000 O   0  0  0  0  0  0  0  0  0
    2.1378    0.0628    0.0000 C   0  0  0  0  0  0  0  0  0
    2.8522   -0.3497    0.0000 N   0  0  0  0  0  0  0  0  0
    3.5667    0.0628    0.0000 C   0  0  0  0  0  0  0  0  0
    4.2812    0.4753    0.0000 C   0  0  0  0  0  0  0  0  0
    3.1542    0.7772    0.0000 C   0  0  0  0  0  0  0  0  0
    3.9792   -0.6517    0.0000 C   0  0  0  0  0  0  0  0  0
   -0.7201    0.0628    0.0000 C   0  0  0  0  0  0  0  0  0
   -1.4346   -0.3497    0.0000 C   0  0  0  0  0  0  0  0  0
   -1.6061   -1.1567    0.0000 N   0  0  0  0  0  0  0  0  0
   -2.4266   -1.2429    0.0000 C   0  0  0  0  0  0  0  0  0
   -2.8391   -1.9574    0.0000 O   0  0  0  0  0  0  0  0  0
   -2.7622   -0.4893    0.0000 N   0  0  0  0  0  0  0  0  0
   -2.1491    0.0628    0.0000 C   0  0  0  0  0  0  0  0  0
   -2.1491    0.8878    0.0000 C   0  0  0  0  0  0  0  0  0
   -1.4346    1.3003    0.0000 C   0  0  0  0  0  0  0  0  0
   -0.7201    0.8878    0.0000 C   0  0  0  0  0  0  0  0  0
  1  2  1  0  0  0  0
  1 11  1  0  0  0  0
  2  3  1  0  0  0  0
  3  4  1  0  0  0  0
  3  5  1  0  0  0  0
  5  6  1  0  0  0  0
  6  7  1  0  0  0  0
  7  8  1  0  0  0  0
  7  9  1  0  0  0  0
  7 10  1  0  0  0  0
 11 12  4  0  0  0  0
 11 20  4  0  0  0  0
 12 13  1  0  0  0  0
 12 17  4  0  0  0  0
 13 14  1  0  0  0  0
 14 15  2  0  0  0  0
 14 16  1  0  0  0  0
 16 17  1  0  0  0  0
 17 18  4  0  0  0  0
 18 19  4  0  0  0  0
 19 20  4  0  0  0  0
M  END
>  <Name_Molregno>
CGP12177

>  <Beta-1>
8.35

>  <Beta-2>
8.37

$$$$
CGP20712-A
  Marvin  02231216192D 0   1.00000     0.00000     0

 35 37  0  0  1  0  0  0  0  0999 V2000
  -12.1648    3.4206    0.0000 F   0  0  0  0  0  0  0  0  0
  -11.8293    2.6669    0.0000 C   0  0  0  0  0  0  0  0  0
  -12.5829    2.3314    0.0000 F   0  0  0  0  0  0  0  0  0
  -11.0756    3.0025    0.0000 F   0  0  0  0  0  0  0  0  0
  -11.4937    1.9132    0.0000 C   0  0  0  0  0  0  0  0  0
  -10.6867    1.7417    0.0000 N   0  0  0  0  0  0  0  0  0
  -10.6005    0.9212    0.0000 C   0  0  0  0  0  0  0  0  0
  -11.3542    0.5857    0.0000 N   0  0  0  0  0  0  0  0  0
  -11.9062    1.1988    0.0000 C   0  0  0  0  0  0  0  0  0
  -11.5257   -0.2213    0.0000 C   0  0  0  0  0  0  0  0  0
   -9.8860    0.5087    0.0000 C   0  0  0  0  0  0  0  0  0
   -9.1716    0.9212    0.0000 C   0  0  0  0  0  0  0  0  0
   -8.4571    0.5087    0.0000 C   0  0  0  0  0  0  0  0  0
   -8.4571   -0.3163    0.0000 C   0  0  0  0  0  0  0  0  0
   -7.7426   -0.7288    0.0000 O   0  0  0  0  0  0  0  0  0
   -7.0281   -0.3163    0.0000 C   0  0  0  0  0  0  0  0  0
   -6.3137   -0.7288    0.0000 C   0  0  0  0  0  0  0  0  0
   -6.3137   -1.5538    0.0000 O   0  0  0  0  0  0  0  0  0
   -5.5992   -0.3163    0.0000 C   0  0  0  0  0  0  0  0  0
   -4.8847   -0.7288    0.0000 N   0  0  0  0  0  0  0  0  0
   -4.1703   -0.3163    0.0000 C   0  0  0  0  0  0  0  0  0
   -3.4558   -0.7288    0.0000 C   0  0  0  0  0  0  0  0  0
   -2.7413   -0.3163    0.0000 O   0  0  0  0  0  0  0  0  0
   -2.0268   -0.7288    0.0000 C   0  0  0  0  0  0  0  0  0
   -1.3124   -0.3163    0.0000 C   0  0  0  0  0  0  0  0  0
   -0.5979   -0.7288    0.0000 C   0  0  0  0  0  0  0  0  0
    0.1166   -0.3163    0.0000 C   0  0  0  0  0  0  0  0  0
    0.1166    0.5087    0.0000 O   0  0  0  0  0  0  0  0  0
    0.8310   -0.7288    0.0000 N   0  0  0  0  0  0  0  0  0
   -0.5979   -1.5538    0.0000 C   0  0  0  0  0  0  0  0  0
    0.1166   -1.9663    0.0000 O   0  0  0  0  0  0  0  0  0
   -1.3124   -1.9663    0.0000 C   0  0  0  0  0  0  0  0  0
   -2.0268   -1.5538    0.0000 C   0  0  0  0  0  0  0  0  0
   -9.1716   -0.7288    0.0000 C   0  0  0  0  0  0  0  0  0
   -9.8860   -0.3163    0.0000 C   0  0  0  0  0  0  0  0  0
  1  2  1  0  0  0  0
  2  3  1  0  0  0  0
  2  4  1  0  0  0  0
  2  5  1  0  0  0  0
  5  6  4  0  0  0  0
  5  9  4  0  0  0  0
  6  7  4  0  0  0  0
  7  8  4  0  0  0  0
  7 11  1  0  0  0  0
  8  9  4  0  0  0  0
  8 10  1  0  0  0  0
 11 12  4  0  0  0  0
 11 35  4  0  0  0  0
 12 13  4  0  0  0  0
 13 14  4  0  0  0  0
 14 15  1  0  0  0  0
 14 34  4  0  0  0  0
 15 16  1  0  0  0  0
 16 17  1  0  0  0  0
 17 18  1  0  0  0  0
 17 19  1  0  0  0  0
 19 20  1  0  0  0  0
 20 21  1  0  0  0  0
 21 22  1  0  0  0  0
 22 23  1  0  0  0  0
 23 24  1  0  0  0  0
 24 25  4  0  0  0  0
 24 33  4  0  0  0  0
 25 26  4  0  0  0  0
 26 27  1  0  0  0  0
 26 30  4  0  0  0  0
 27 28  2  0  0  0  0
 27 29  1  0  0  0  0
 30 31  1  0  0  0  0
 30 32  4  0  0  0  0
 32 33  4  0  0  0  0
 34 35  4  0  0  0  0
M  END
>  <Name_Molregno>
CGP20712-A

>  <5-HT1A>
5.13

>  <Beta-1>
8.33

>  <Beta-2>
5.39

$$$$
CHLOROPHENYLPIPERAZINE
  Marvin  02231216192D 0   1.00000     0.00000     0

 13 14  0  0  0  0  0  0  0  0999 V2000
    1.2605    1.9269    0.0000 Cl  0  0  0  0  0  0  0  0  0
    1.2605    1.1019    0.0000 C   0  0  0  0  0  0  0  0  0
    1.9750    0.6894    0.0000 C   0  0  0  0  0  0  0  0  0
    1.9750   -0.1356    0.0000 C   0  0  0  0  0  0  0  0  0
    2.6894   -0.5481    0.0000 N   0  0  0  0  0  0  0  0  0
    3.4039   -0.1356    0.0000 C   0  0  0  0  0  0  0  0  0
    4.1184   -0.5481    0.0000 C   0  0  0  0  0  0  0  0  0
    4.1184   -1.3731    0.0000 N   0  0  0  0  0  0  0  0  0
    3.4039   -1.7856    0.0000 C   0  0  0  0  0  0  0  0  0
    2.6894   -1.3731    0.0000 C   0  0  0  0  0  0  0  0  0
    1.2605   -0.5481    0.0000 C   0  0  0  0  0  0  0  0  0
    0.5460   -0.1356    0.0000 C   0  0  0  0  0  0  0  0  0
    0.5460    0.6894    0.0000 C   0  0  0  0  0  0  0  0  0
  1  2  1  0  0  0  0
  2  3  4  0  0  0  0
  2 13  4  0  0  0  0
  3  4  4  0  0  0  0
  4  5  1  0  0  0  0
  4 11  4  0  0  0  0
  5  6  1  0  0  0  0
  5 10  1  0  0  0  0
  6  7  1  0  0  0  0
  7  8  1  0  0  0  0
  8  9  1  0  0  0  0
  9 10  1  0  0  0  0
 11 12  4  0  0  0  0
 12 13  4  0  0  0  0
M  END
>  <Name_Molregno>
CHLOROPHENYLPIPERAZINE

>  <5-HT1A>
6.88

>  <5-HT1B>
6.72

>  <5-HT1D>
6.23

>  <5-HT2A>
7.01

>  <5-HT2C>
7.55

>  <5-HT3>
6.37

>  <5-HT5>
5.87

>  <5-HT6>
5.7

>  <5-HT7>
6.79

>  <Alpha-1A>
5.86

>  <Alpha-1B>
6.04

>  <Alpha-2A>
6.84

>  <Alpha-2B>
6.98

>  <Alpha-2C>
6.91

>  <Beta-1>
5.63

>  <Beta-2>
5.46

>  <DOPAMINE D1>
5.15

>  <DOPAMINE D2>
5

>  <DOPAMINE D5>
5

>  <HISTAMINE H1>
6.49

>  <Norepinephrine transporter>
5.36

>  <Serotonin transporter>
6.13

$$$$
CHLORPROMAZINE
  Marvin  02231216192D 0   1.00000     0.00000     0

 21 23  0  0  0  0  0  0  0  0999 V2000
   -1.3730   -3.5598    0.0000 Cl  0  0  0  0  0  0  0  0  0
   -2.0875   -3.1473    0.0000 C   0  0  0  0  0  0  0  0  0
   -2.0875   -2.3223    0.0000 C   0  0  0  0  0  0  0  0  0
   -2.8019   -1.9098    0.0000 C   0  0  0  0  0  0  0  0  0
   -2.8019   -1.0848    0.0000 N   0  0  0  0  0  0  0  0  0
   -3.5164   -0.6723    0.0000 C   0  0  0  0  0  0  0  0  0
   -4.2309   -1.0848    0.0000 C   0  0  0  0  0  0  0  0  0
   -4.2309   -1.9098    0.0000 S   0  0  0  0  0  0  0  0  0
   -3.5164   -2.3223    0.0000 C   0  0  0  0  0  0  0  0  0
   -3.5164   -3.1473    0.0000 C   0  0  0  0  0  0  0  0  0
   -2.8019   -3.5598    0.0000 C   0  0  0  0  0  0  0  0  0
   -4.9453   -0.6723    0.0000 C   0  0  0  0  0  0  0  0  0
   -4.9453    0.1527    0.0000 C   0  0  0  0  0  0  0  0  0
   -4.2309    0.5652    0.0000 C   0  0  0  0  0  0  0  0  0
   -3.5164    0.1527    0.0000 C   0  0  0  0  0  0  0  0  0
   -2.0875   -0.6723    0.0000 C   0  0  0  0  0  0  0  0  0
   -1.3730   -1.0848    0.0000 C   0  0  0  0  0  0  0  0  0
   -0.6585   -0.6723    0.0000 C   0  0  0  0  0  0  0  0  0
    0.0560   -1.0848    0.0000 N   0  0  0  0  0  0  0  0  0
    0.7704   -0.6723    0.0000 C   0  0  0  0  0  0  0  0  0
    0.0560   -1.9098    0.0000 C   0  0  0  0  0  0  0  0  0
  1  2  1  0  0  0  0
  2  3  4  0  0  0  0
  2 11  4  0  0  0  0
  3  4  4  0  0  0  0
  4  5  1  0  0  0  0
  4  9  4  0  0  0  0
  5  6  1  0  0  0  0
  5 16  1  0  0  0  0
  6  7  4  0  0  0  0
  6 15  4  0  0  0  0
  7  8  1  0  0  0  0
  7 12  4  0  0  0  0
  8  9  1  0  0  0  0
  9 10  4  0  0  0  0
 10 11  4  0  0  0  0
 12 13  4  0  0  0  0
 13 14  4  0  0  0  0
 14 15  4  0  0  0  0
 16 17  1  0  0  0  0
 17 18  1  0  0  0  0
 18 19  1  0  0  0  0
 19 20  1  0  0  0  0
 19 21  1  0  0  0  0
M  END
>  <Name_Molregno>
CHLORPROMAZINE

>  <5-HT1A>
5.98

>  <5-HT1B>
5.83

>  <5-HT1D>
6.34

>  <5-HT1E>
6.46

>  <5-HT2A>
8.36

>  <5-HT2C>
7.74

>  <5-HT3>
6.01

>  <5-HT5>
6.93

>  <5-HT6>
7.59

>  <5-HT7>
7.54

>  <Alpha-1A>
9.55

>  <Alpha-1B>
9.09

>  <Alpha-2A>
6.71

>  <Alpha-2B>
7.81

>  <Alpha-2C>
7.36

>  <Beta-1>
5

>  <Beta-2>
5

>  <DOPAMINE D1>
7.1

>  <DOPAMINE D2>
8.51

>  <DOPAMINE D3>
8.58

>  <DOPAMINE D4>
8.03

>  <DOPAMINE D5>
6.82

>  <Dopamine transporter>
5

>  <HISTAMINE H1>
8.47

>  <HISTAMINE H2>
6.76

>  <HISTAMINE H3>
6

>  <HISTAMINE H4>
6.3

>  <Muscarinic acetylcholine receptor M1>
7.36

>  <Muscarinic acetylcholine receptor M2>
6.67

>  <Muscarinic acetylcholine receptor M3>
7.25

>  <Muscarinic acetylcholine receptor M4>
7.11

>  <Muscarinic acetylcholine receptor M5>
7.5

>  <Norepinephrine transporter>
5.61

>  <Serotonin transporter>
6.54

$$$$
cis-Thiothixene
  Marvin  02231216192D 0   1.00000     0.00000     0

 30 33  0  0  0  0  0  0  0  0999 V2000
    1.0940   -3.6931    0.0000 S   0  0  0  0  0  0  0  0  0
    1.8085   -3.2806    0.0000 C   0  0  0  0  0  0  0  0  0
    1.8085   -2.4556    0.0000 C   0  0  0  0  0  0  0  0  0
    2.5230   -2.0431    0.0000 C   0  0  0  0  0  0  0  0  0
    3.2375   -2.4556    0.0000 C   0  0  0  0  0  0  0  0  0
    3.9519   -2.0431    0.0000 S   0  0  0  0  0  0  0  0  0
    3.5394   -1.3286    0.0000 O   0  0  0  0  0  0  0  0  0
    4.3644   -2.7575    0.0000 O   0  0  0  0  0  0  0  0  0
    4.6664   -1.6306    0.0000 N   0  0  0  0  0  0  0  0  0
    5.3809   -2.0431    0.0000 C   0  0  0  0  0  0  0  0  0
    4.6664   -0.8056    0.0000 C   0  0  0  0  0  0  0  0  0
    3.2375   -3.2806    0.0000 C   0  0  0  0  0  0  0  0  0
    2.5230   -3.6931    0.0000 C   0  0  0  0  0  0  0  0  0
    1.0940   -2.0431    0.0000 C   0  0  0  0  0  0  0  0  0
    0.3796   -2.4556    0.0000 C   0  0  0  0  0  0  0  0  0
    0.3796   -3.2806    0.0000 C   0  0  0  0  0  0  0  0  0
   -0.3349   -3.6931    0.0000 C   0  0  0  0  0  0  0  0  0
   -1.0494   -3.2806    0.0000 C   0  0  0  0  0  0  0  0  0
   -1.0494   -2.4556    0.0000 C   0  0  0  0  0  0  0  0  0
   -0.3349   -2.0431    0.0000 C   0  0  0  0  0  0  0  0  0
    1.0940   -1.2181    0.0000 C   0  0  0  0  0  0  0  0  0
    0.3796   -0.8056    0.0000 C   0  0  0  0  0  0  0  0  0
   -0.3349   -1.2181    0.0000 C   0  0  0  0  0  0  0  0  0
   -1.0494   -0.8056    0.0000 N   0  0  0  0  0  0  0  0  0
   -1.7638   -1.2181    0.0000 C   0  0  0  0  0  0  0  0  0
   -2.4783   -0.8056    0.0000 C   0  0  0  0  0  0  0  0  0
   -2.4783    0.0194    0.0000 N   0  0  0  0  0  0  0  0  0
   -1.7638    0.4319    0.0000 C   0  0  0  0  0  0  0  0  0
   -1.0494    0.0194    0.0000 C   0  0  0  0  0  0  0  0  0
   -3.1928    0.4319    0.0000 C   0  0  0  0  0  0  0  0  0
  1  2  1  0  0  0  0
  1 16  1  0  0  0  0
  2  3  4  0  0  0  0
  2 13  4  0  0  0  0
  3  4  4  0  0  0  0
  3 14  1  0  0  0  0
  4  5  4  0  0  0  0
  5  6  1  0  0  0  0
  5 12  4  0  0  0  0
  6  7  2  0  0  0  0
  6  8  2  0  0  0  0
  6  9  1  0  0  0  0
  9 10  1  0  0  0  0
  9 11  1  0  0  0  0
 12 13  4  0  0  0  0
 14 15  1  0  0  0  0
 14 21  2  0  0  0  0
 15 16  4  0  0  0  0
 15 20  4  0  0  0  0
 16 17  4  0  0  0  0
 17 18  4  0  0  0  0
 18 19  4  0  0  0  0
 19 20  4  0  0  0  0
 21 22  1  0  0  0  0
 22 23  1  0  0  0  0
 23 24  1  0  0  0  0
 24 25  1  0  0  0  0
 24 29  1  0  0  0  0
 25 26  1  0  0  0  0
 26 27  1  0  0  0  0
 27 28  1  0  0  0  0
 27 30  1  0  0  0  0
 28 29  1  0  0  0  0
M  END
>  <Name_Molregno>
cis-Thiothixene

>  <5-HT1A>
6.39

>  <5-HT1B>
6.82

>  <5-HT1D>
6.18

>  <5-HT1E>
5

>  <5-HT2A>
7.42

>  <5-HT2C>
5.87

>  <5-HT3>
5.73

>  <5-HT5>
6.44

>  <5-HT6>
6.62

>  <5-HT7>
7.82

>  <Alpha-1A>
7.94

>  <Alpha-1B>
7.46

>  <Alpha-2A>
7.1

>  <Alpha-2B>
7.3

>  <Alpha-2C>
7.28

>  <Beta-1>
5

>  <Beta-2>
5

>  <DOPAMINE D1>
7.29

>  <DOPAMINE D2>
9.56

>  <DOPAMINE D3>
9.41

>  <DOPAMINE D4>
6.86

>  <DOPAMINE D5>
6.58

>  <Dopamine transporter>
5

>  <HISTAMINE H1>
8.23

>  <HISTAMINE H2>
6.39

>  <HISTAMINE H4>
5

>  <Muscarinic acetylcholine receptor M1>
5.3

>  <Muscarinic acetylcholine receptor M2>
5.34

>  <Muscarinic acetylcholine receptor M3>
5.27

>  <Muscarinic acetylcholine receptor M4>
5.4

>  <Muscarinic acetylcholine receptor M5>
5.32

>  <Norepinephrine transporter>
5

>  <Serotonin transporter>
5.41

$$$$
CLOZAPINE
  Marvin  02231216192D 0   1.00000     0.00000     0

 23 26  0  0  0  0  0  0  0  0999 V2000
   -0.5622   -2.2603    0.0000 Cl  0  0  0  0  0  0  0  0  0
    0.2262   -2.5035    0.0000 C   0  0  0  0  0  0  0  0  0
    0.8309   -1.9424    0.0000 C   0  0  0  0  0  0  0  0  0
    1.6193   -2.1855    0.0000 C   0  0  0  0  0  0  0  0  0
    2.1337   -1.5405    0.0000 N   0  0  0  0  0  0  0  0  0
    2.9587   -1.5405    0.0000 C   0  0  0  0  0  0  0  0  0
    3.3166   -0.7972    0.0000 N   0  0  0  0  0  0  0  0  0
    2.8519   -0.1156    0.0000 C   0  0  0  0  0  0  0  0  0
    3.2098    0.6277    0.0000 C   0  0  0  0  0  0  0  0  0
    4.0325    0.6894    0.0000 N   0  0  0  0  0  0  0  0  0
    4.4973    0.0077    0.0000 C   0  0  0  0  0  0  0  0  0
    4.1393   -0.7356    0.0000 C   0  0  0  0  0  0  0  0  0
    4.3905    1.4327    0.0000 C   0  0  0  0  0  0  0  0  0
    3.4730   -2.1855    0.0000 C   0  0  0  0  0  0  0  0  0
    3.2895   -2.9898    0.0000 C   0  0  0  0  0  0  0  0  0
    2.5462   -3.3478    0.0000 N   0  0  0  0  0  0  0  0  0
    1.8029   -2.9898    0.0000 C   0  0  0  0  0  0  0  0  0
    1.1981   -3.5510    0.0000 C   0  0  0  0  0  0  0  0  0
    0.4098   -3.3078    0.0000 C   0  0  0  0  0  0  0  0  0
    3.8942   -3.5510    0.0000 C   0  0  0  0  0  0  0  0  0
    4.6826   -3.3078    0.0000 C   0  0  0  0  0  0  0  0  0
    4.8662   -2.5035    0.0000 C   0  0  0  0  0  0  0  0  0
    4.2614   -1.9424    0.0000 C   0  0  0  0  0  0  0  0  0
  1  2  1  0  0  0  0
  2  3  4  0  0  0  0
  2 19  4  0  0  0  0
  3  4  4  0  0  0  0
  4  5  1  0  0  0  0
  4 17  4  0  0  0  0
  5  6  1  0  0  0  0
  6  7  1  0  0  0  0
  6 14  2  0  0  0  0
  7  8  1  0  0  0  0
  7 12  1  0  0  0  0
  8  9  1  0  0  0  0
  9 10  1  0  0  0  0
 10 11  1  0  0  0  0
 10 13  1  0  0  0  0
 11 12  1  0  0  0  0
 14 15  1  0  0  0  0
 14 23  1  0  0  0  0
 15 16  2  0  0  0  0
 15 20  1  0  0  0  0
 16 17  1  0  0  0  0
 17 18  4  0  0  0  0
 18 19  4  0  0  0  0
 20 21  2  0  0  0  0
 21 22  1  0  0  0  0
 22 23  2  0  0  0  0
M  END
>  <Name_Molregno>
CLOZAPINE

>  <5-HT1A>
6.88

>  <5-HT1B>
6.33

>  <5-HT1D>
6.27

>  <5-HT1E>
6.19

>  <5-HT2A>
8.22

>  <5-HT2C>
8

>  <5-HT3>
6.62

>  <5-HT5>
5.41

>  <5-HT6>
7.9

>  <5-HT7>
8.05

>  <Alpha-1A>
8.8

>  <Alpha-1B>
8.15

>  <Alpha-2A>
7.15

>  <Alpha-2B>
7.61

>  <Alpha-2C>
7.88

>  <Beta-1>
5.15

>  <Beta-2>
5.39

>  <DOPAMINE D1>
6.69

>  <DOPAMINE D2>
6.9

>  <DOPAMINE D3>
6.62

>  <DOPAMINE D4>
7.62

>  <DOPAMINE D5>
6.62

>  <Dopamine transporter>
5

>  <HISTAMINE H1>
8.81

>  <HISTAMINE H2>
6.82

>  <HISTAMINE H3>
5.25

>  <HISTAMINE H4>
6.15

>  <Muscarinic acetylcholine receptor M1>
8.26

>  <Muscarinic acetylcholine receptor M2>
7.17

>  <Muscarinic acetylcholine receptor M3>
7.59

>  <Muscarinic acetylcholine receptor M4>
7.85

>  <Muscarinic acetylcholine receptor M5>
7.79

>  <Norepinephrine transporter>
5.5

>  <Serotonin transporter>
5.73

$$$$
d-Fenfluramine
  Marvin  02231216192D 0   1.00000     0.00000     0

 16 16  0  0  1  0  0  0  0  0999 V2000
   -5.1694    0.5172    0.0000 F   0  0  0  0  0  0  0  0  0
   -4.4549    0.1047    0.0000 C   0  0  0  0  0  0  0  0  0
   -4.8674   -0.6097    0.0000 F   0  0  0  0  0  0  0  0  0
   -4.0424    0.8192    0.0000 F   0  0  0  0  0  0  0  0  0
   -3.7405   -0.3078    0.0000 C   0  0  0  0  0  0  0  0  0
   -3.0260    0.1047    0.0000 C   0  0  0  0  0  0  0  0  0
   -2.3115   -0.3078    0.0000 C   0  0  0  0  0  0  0  0  0
   -2.3115   -1.1328    0.0000 C   0  0  0  0  0  0  0  0  0
   -3.0260   -1.5453    0.0000 C   0  0  0  0  0  0  0  0  0
   -3.7405   -1.1328    0.0000 C   0  0  0  0  0  0  0  0  0
   -1.5971    0.1047    0.0000 C   0  0  0  0  0  0  0  0  0
   -0.8826   -0.3078    0.0000 C   0  0  0  0  0  0  0  0  0
   -0.1681    0.1047    0.0000 N   0  0  0  0  0  0  0  0  0
    0.5464   -0.3078    0.0000 C   0  0  0  0  0  0  0  0  0
    1.2608    0.1047    0.0000 C   0  0  0  0  0  0  0  0  0
   -0.8826   -1.1328    0.0000 C   0  0  0  0  0  0  0  0  0
  1  2  1  0  0  0  0
  2  3  1  0  0  0  0
  2  4  1  0  0  0  0
  2  5  1  0  0  0  0
  5  6  4  0  0  0  0
  5 10  4  0  0  0  0
  6  7  4  0  0  0  0
  7  8  4  0  0  0  0
  7 11  1  0  0  0  0
  8  9  4  0  0  0  0
  9 10  4  0  0  0  0
 11 12  1  0  0  0  0
 12 13  1  0  0  0  0
 12 16  1  0  0  0  0
 13 14  1  0  0  0  0
 14 15  1  0  0  0  0
M  END
>  <Name_Molregno>
d-Fenfluramine

>  <5-HT1A>
6.11

>  <5-HT1B>
5.67

>  <5-HT1D>
5.79

>  <5-HT1E>
5

>  <5-HT2A>
5.92

>  <5-HT2C>
6.27

>  <5-HT3>
5

>  <5-HT5>
5

>  <5-HT6>
5.01

>  <5-HT7>
5.17

>  <Alpha-1A>
5.52

>  <Alpha-1B>
5.62

>  <Alpha-2A>
6.26

>  <Alpha-2B>
6.65

>  <Alpha-2C>
6.68

>  <Beta-1>
5.67

>  <Beta-2>
5.07

>  <DOPAMINE D1>
5

>  <DOPAMINE D2>
5

>  <DOPAMINE D4>
5

>  <DOPAMINE D5>
5

>  <Dopamine transporter>
5

>  <HISTAMINE H1>
5

>  <HISTAMINE H2>
5

>  <Muscarinic acetylcholine receptor M1>
5.61

>  <Muscarinic acetylcholine receptor M2>
5.39

>  <Muscarinic acetylcholine receptor M3>
5.22

>  <Muscarinic acetylcholine receptor M4>
5.1

>  <Muscarinic acetylcholine receptor M5>
5

>  <Norepinephrine transporter>
5

>  <Serotonin transporter>
6.18

$$$$
Ephedrine
  Marvin  02231216192D 0   1.00000     0.00000     0

 12 12  0  0  1  0  0  0  0  0999 V2000
    1.9192   -0.0549    0.0000 O   0  0  0  0  0  0  0  0  0
    1.2047   -0.4674    0.0000 C   0  0  0  0  0  0  0  0  0
    0.4903   -0.0549    0.0000 C   0  0  0  0  0  0  0  0  0
    0.4903    0.7701    0.0000 N   0  0  0  0  0  0  0  0  0
   -0.2242    1.1826    0.0000 C   0  0  0  0  0  0  0  0  0
   -0.2242   -0.4674    0.0000 C   0  0  0  0  0  0  0  0  0
    1.2047   -1.2924    0.0000 C   0  0  0  0  0  0  0  0  0
    1.9192   -1.7049    0.0000 C   0  0  0  0  0  0  0  0  0
    1.9192   -2.5299    0.0000 C   0  0  0  0  0  0  0  0  0
    1.2047   -2.9424    0.0000 C   0  0  0  0  0  0  0  0  0
    0.4903   -2.5299    0.0000 C   0  0  0  0  0  0  0  0  0
    0.4903   -1.7049    0.0000 C   0  0  0  0  0  0  0  0  0
  1  2  1  0  0  0  0
  2  3  1  0  0  0  0
  2  7  1  0  0  0  0
  3  4  1  0  0  0  0
  3  6  1  0  0  0  0
  4  5  1  0  0  0  0
  7  8  4  0  0  0  0
  7 12  4  0  0  0  0
  8  9  4  0  0  0  0
  9 10  4  0  0  0  0
 10 11  4  0  0  0  0
 11 12  4  0  0  0  0
M  END
>  <Name_Molregno>
Ephedrine

>  <5-HT1A>
5

>  <5-HT1B>
5

>  <5-HT1D>
5

>  <5-HT1E>
5

>  <5-HT3>
5

>  <5-HT5>
5

>  <5-HT6>
5

>  <5-HT7>
5.33

>  <Alpha-1A>
5

>  <Alpha-1B>
5

>  <Alpha-2A>
5.17

>  <Alpha-2B>
5.48

>  <Alpha-2C>
5.51

>  <Beta-1>
5

>  <Beta-2>
5

>  <DOPAMINE D1>
5

>  <DOPAMINE D2>
5

>  <DOPAMINE D4>
5

>  <DOPAMINE D5>
5

>  <Dopamine transporter>
5.38

>  <HISTAMINE H1>
5

>  <HISTAMINE H2>
5

>  <HISTAMINE H4>
5

>  <Muscarinic acetylcholine receptor M1>
5

>  <Muscarinic acetylcholine receptor M2>
5

>  <Muscarinic acetylcholine receptor M3>
5

>  <Muscarinic acetylcholine receptor M4>
5

>  <Muscarinic acetylcholine receptor M5>
5

>  <Norepinephrine transporter>
5.79

>  <Serotonin transporter>
5

$$$$
EPINEPHRINE
  Marvin  02231216192D 0   1.00000     0.00000     0

 13 13  0  0  1  0  0  0  0  0999 V2000
    3.1920    1.0753    0.0000 O   0  0  0  0  0  0  0  0  0
    2.4776    0.6628    0.0000 C   0  0  0  0  0  0  0  0  0
    2.4776   -0.1622    0.0000 C   0  0  0  0  0  0  0  0  0
    1.7631   -0.5747    0.0000 C   0  0  0  0  0  0  0  0  0
    1.0486   -0.1622    0.0000 C   0  0  0  0  0  0  0  0  0
    1.0486    0.6628    0.0000 C   0  0  0  0  0  0  0  0  0
    1.7631    1.0753    0.0000 C   0  0  0  0  0  0  0  0  0
    1.7631    1.9003    0.0000 O   0  0  0  0  0  0  0  0  0
    1.7631   -1.3997    0.0000 C   0  0  0  0  0  0  0  0  0
    1.0486   -1.8122    0.0000 O   0  0  0  0  0  0  0  0  0
    2.4776   -1.8122    0.0000 C   0  0  0  0  0  0  0  0  0
    2.4776   -2.6372    0.0000 N   0  0  0  0  0  0  0  0  0
    3.1920   -3.0497    0.0000 C   0  0  0  0  0  0  0  0  0
  1  2  1  0  0  0  0
  2  3  4  0  0  0  0
  2  7  4  0  0  0  0
  3  4  4  0  0  0  0
  4  5  4  0  0  0  0
  4  9  1  0  0  0  0
  5  6  4  0  0  0  0
  6  7  4  0  0  0  0
  7  8  1  0  0  0  0
  9 10  1  0  0  0  0
  9 11  1  0  0  0  0
 11 12  1  0  0  0  0
 12 13  1  0  0  0  0
M  END
>  <Name_Molregno>
EPINEPHRINE

>  <5-HT2A>
5

>  <5-HT7>
5

>  <Alpha-2A>
5.83

>  <Alpha-2B>
5.9

>  <Alpha-2C>
5.77

>  <Beta-1>
5.4

>  <Beta-2>
5.76

>  <Norepinephrine transporter>
5.43

$$$$
ERGOTAMINE
  Marvin  02231216192D 0   1.00000     0.00000     0

 43 50  0  0  1  0  0  0  0  0999 V2000
   -2.1239   -1.0172    0.0000 O   0  0  0  0  0  0  0  0  0
   -1.3035   -1.1045    0.0000 C   0  0  0  0  0  0  0  0  0
   -1.3025   -0.2795    0.0000 N   0  0  0  0  0  0  0  0  0
   -0.5876    0.1322    0.0000 C   0  0  0  0  0  0  0  0  0
    0.1264   -0.2812    0.0000 O   0  0  0  0  0  0  0  0  0
   -0.5866    0.9572    0.0000 C   0  0  0  0  0  0  0  0  0
    0.1284    1.3688    0.0000 C   0  0  0  0  0  0  0  0  0
    0.1294    2.1938    0.0000 C   0  0  0  0  0  0  0  0  0
   -0.5846    2.6072    0.0000 C   0  0  0  0  0  0  0  0  0
   -1.2996    2.1955    0.0000 N   0  0  0  0  0  0  0  0  0
   -1.3006    1.3705    0.0000 C   0  0  0  0  0  0  0  0  0
   -2.0136    2.6089    0.0000 C   0  0  0  0  0  0  0  0  0
   -0.5831    3.4313    0.0000 C   0  0  0  0  0  0  0  0  0
    0.1294    3.8438    0.0000 C   0  0  0  0  0  0  0  0  0
    0.8419    3.4313    0.0000 C   0  0  0  0  0  0  0  0  0
    0.8419    2.6063    0.0000 C   0  0  0  0  0  0  0  0  0
    1.5597    2.1938    0.0000 C   0  0  0  0  0  0  0  0  0
    2.2722    2.6063    0.0000 C   0  0  0  0  0  0  0  0  0
    2.2722    3.4313    0.0000 C   0  0  0  0  0  0  0  0  0
    1.5597    3.8438    0.0000 C   0  0  0  0  0  0  0  0  0
    1.2544    4.7010    0.0000 N   0  0  0  0  0  0  0  0  0
    0.4294    4.7010    0.0000 C   0  0  0  0  0  0  0  0  0
   -0.4830   -1.0192    0.0000 C   0  0  0  0  0  0  0  0  0
   -1.1330   -1.9116    0.0000 C   0  0  0  0  0  0  0  0  0
   -0.3797   -2.2481    0.0000 O   0  0  0  0  0  0  0  0  0
   -1.8479   -2.3233    0.0000 N   0  0  0  0  0  0  0  0  0
   -2.0204   -3.1301    0.0000 C   0  0  0  0  0  0  0  0  0
   -1.4080   -3.6828    0.0000 C   0  0  0  0  0  0  0  0  0
   -1.5805   -4.4896    0.0000 C   0  0  0  0  0  0  0  0  0
   -0.9681   -5.0424    0.0000 C   0  0  0  0  0  0  0  0  0
   -1.1406   -5.8491    0.0000 C   0  0  0  0  0  0  0  0  0
   -1.9255   -6.1031    0.0000 C   0  0  0  0  0  0  0  0  0
   -2.5379   -5.5504    0.0000 C   0  0  0  0  0  0  0  0  0
   -2.3654   -4.7436    0.0000 C   0  0  0  0  0  0  0  0  0
   -2.8054   -3.3841    0.0000 C   0  0  0  0  0  0  0  0  0
   -2.9779   -4.1908    0.0000 O   0  0  0  0  0  0  0  0  0
   -3.4178   -2.8313    0.0000 N   0  0  0  0  0  0  0  0  0
   -3.2453   -2.0245    0.0000 C   0  0  0  0  0  0  0  0  0
   -3.9593   -1.6112    0.0000 C   0  0  0  0  0  0  0  0  0
   -4.5730   -2.1625    0.0000 C   0  0  0  0  0  0  0  0  0
   -4.2384   -2.9165    0.0000 C   0  0  0  0  0  0  0  0  0
   -2.4604   -1.7705    0.0000 C   0  0  0  0  0  0  0  0  0
   -3.0117   -1.1568    0.0000 O   0  0  0  0  0  0  0  0  0
  1  2  1  0  0  0  0
  1 42  1  0  0  0  0
  2  3  1  0  0  0  0
  2 23  1  0  0  0  0
  2 24  1  0  0  0  0
  3  4  1  0  0  0  0
  4  5  2  0  0  0  0
  4  6  1  0  0  0  0
  6  7  1  0  0  0  0
  6 11  1  0  0  0  0
  7  8  2  0  0  0  0
  8  9  1  0  0  0  0
  8 16  1  0  0  0  0
  9 10  1  0  0  0  0
  9 13  1  0  0  0  0
 10 11  1  0  0  0  0
 10 12  1  0  0  0  0
 13 14  1  0  0  0  0
 14 15  4  0  0  0  0
 14 22  4  0  0  0  0
 15 16  4  0  0  0  0
 15 20  4  0  0  0  0
 16 17  4  0  0  0  0
 17 18  4  0  0  0  0
 18 19  4  0  0  0  0
 19 20  4  0  0  0  0
 20 21  4  0  0  0  0
 21 22  4  0  0  0  0
 24 25  2  0  0  0  0
 24 26  1  0  0  0  0
 26 27  1  0  0  0  0
 26 42  1  0  0  0  0
 27 28  1  0  0  0  0
 27 35  1  0  0  0  0
 28 29  1  0  0  0  0
 29 30  4  0  0  0  0
 29 34  4  0  0  0  0
 30 31  4  0  0  0  0
 31 32  4  0  0  0  0
 32 33  4  0  0  0  0
 33 34  4  0  0  0  0
 35 36  2  0  0  0  0
 35 37  1  0  0  0  0
 37 38  1  0  0  0  0
 37 41  1  0  0  0  0
 38 39  1  0  0  0  0
 38 42  1  0  0  0  0
 39 40  1  0  0  0  0
 40 41  1  0  0  0  0
 42 43  1  0  0  0  0
M  STY  1   1 DAT
M  SAL   1  1  21
M  SDT   1 MRV_IMPLICIT_H                                        
M  SDD   1     0.0000    0.0000    DR    ALL  0       0  
M  SED   1 IMPL_H1
M  END
>  <Name_Molregno>
ERGOTAMINE

>  <5-HT1A>
9.77

>  <5-HT1B>
8.33

>  <5-HT1D>
9

>  <5-HT1E>
6.58

>  <5-HT2A>
9.1

>  <5-HT2C>
8.37

>  <5-HT3>
5

>  <5-HT6>
7.92

>  <5-HT7>
5.89

>  <Alpha-1A>
5

>  <Alpha-1B>
5

>  <Alpha-2A>
6.97

>  <Alpha-2B>
7.05

>  <Alpha-2C>
5

>  <Beta-1>
5

>  <Beta-2>
5

>  <DOPAMINE D1>
5

>  <DOPAMINE D2>
5

>  <DOPAMINE D4>
5

>  <DOPAMINE D5>
6.77

>  <Dopamine transporter>
5

>  <HISTAMINE H1>
5

>  <HISTAMINE H2>
5

>  <Muscarinic acetylcholine receptor M1>
6.06

>  <Muscarinic acetylcholine receptor M2>
6.04

>  <Muscarinic acetylcholine receptor M3>
5

>  <Muscarinic acetylcholine receptor M4>
5

>  <Muscarinic acetylcholine receptor M5>
5

>  <Norepinephrine transporter>
5

>  <Serotonin transporter>
5

$$$$
Fluorocarazolol
  Marvin  02231216192D 0   1.00000     0.00000     0

 23 25  0  0  1  0  0  0  0  0999 V2000
   -0.1270    1.0228    0.0000 F   0  0  0  0  0  0  0  0  0
    0.5874    0.6103    0.0000 C   0  0  0  0  0  0  0  0  0
    1.3019    1.0228    0.0000 C   0  0  0  0  0  0  0  0  0
    2.0164    0.6103    0.0000 N   0  0  0  0  0  0  0  0  0
    2.7309    1.0228    0.0000 C   0  0  0  0  0  0  0  0  0
    3.4453    0.6103    0.0000 C   0  0  0  0  0  0  0  0  0
    3.4453   -0.2147    0.0000 O   0  0  0  0  0  0  0  0  0
    4.1598    1.0228    0.0000 C   0  0  0  0  0  0  0  0  0
    4.8743    0.6103    0.0000 O   0  0  0  0  0  0  0  0  0
    5.5887    1.0228    0.0000 C   0  0  0  0  0  0  0  0  0
    6.3032    0.6103    0.0000 C   0  0  0  0  0  0  0  0  0
    6.4747   -0.1966    0.0000 C   0  0  0  0  0  0  0  0  0
    7.2952   -0.2829    0.0000 C   0  0  0  0  0  0  0  0  0
    7.6308    0.4708    0.0000 N   0  0  0  0  0  0  0  0  0
    7.0177    1.0228    0.0000 C   0  0  0  0  0  0  0  0  0
    7.0177    1.8478    0.0000 C   0  0  0  0  0  0  0  0  0
    6.3032    2.2603    0.0000 C   0  0  0  0  0  0  0  0  0
    5.5887    1.8478    0.0000 C   0  0  0  0  0  0  0  0  0
    7.6308   -1.0365    0.0000 C   0  0  0  0  0  0  0  0  0
    7.1459   -1.7040    0.0000 C   0  0  0  0  0  0  0  0  0
    6.3254   -1.6178    0.0000 C   0  0  0  0  0  0  0  0  0
    5.9898   -0.8641    0.0000 C   0  0  0  0  0  0  0  0  0
    1.3019    1.8478    0.0000 C   0  0  0  0  0  0  0  0  0
  1  2  1  0  0  0  0
  2  3  1  0  0  0  0
  3  4  1  0  0  0  0
  3 23  1  0  0  0  0
  4  5  1  0  0  0  0
  5  6  1  0  0  0  0
  6  7  1  0  0  0  0
  6  8  1  0  0  0  0
  8  9  1  0  0  0  0
  9 10  1  0  0  0  0
 10 11  4  0  0  0  0
 10 18  4  0  0  0  0
 11 12  4  0  0  0  0
 11 15  4  0  0  0  0
 12 13  4  0  0  0  0
 12 22  4  0  0  0  0
 13 14  4  0  0  0  0
 13 19  4  0  0  0  0
 14 15  4  0  0  0  0
 15 16  4  0  0  0  0
 16 17  4  0  0  0  0
 17 18  4  0  0  0  0
 19 20  4  0  0  0  0
 20 21  4  0  0  0  0
 21 22  4  0  0  0  0
M  STY  1   1 DAT
M  SAL   1  1  14
M  SDT   1 MRV_IMPLICIT_H                                        
M  SDD   1     0.0000    0.0000    DR    ALL  0       0  
M  SED   1 IMPL_H1
M  END
>  <Name_Molregno>
Fluorocarazolol

>  <5-HT1A>
6.97

>  <5-HT1B>
6.31

>  <5-HT1D>
5.5

>  <5-HT1E>
5

>  <5-HT3>
5

>  <5-HT5>
5

>  <5-HT6>
5

>  <5-HT7>
5.17

>  <Alpha-1A>
5.85

>  <Alpha-1B>
5.76

>  <Alpha-2A>
5.5

>  <Alpha-2B>
5.03

>  <Alpha-2C>
5.54

>  <Beta-1>
9.65

>  <Beta-2>
9.98

>  <DOPAMINE D1>
5

>  <DOPAMINE D5>
5

>  <Muscarinic acetylcholine receptor M1>
5.66

>  <Muscarinic acetylcholine receptor M2>
5

>  <Muscarinic acetylcholine receptor M3>
5.4

>  <Muscarinic acetylcholine receptor M4>
5.14

>  <Muscarinic acetylcholine receptor M5>
5.27

>  <Norepinephrine transporter>
5

>  <Serotonin transporter>
5

$$$$
FLUPHENAZINE
  Marvin  02231216192D 0   1.00000     0.00000     0

 38 41  0  0  0  0  0  0  0  0999 V2000
   -7.1492   -1.5262    0.0000 S   0  0  0  0  0  0  0  0  0
   -7.1492   -2.3512    0.0000 C   0  0  0  0  0  0  0  0  0
   -6.4348   -2.7637    0.0000 C   0  0  0  0  0  0  0  0  0
   -5.7203   -2.3512    0.0000 N   0  0  0  0  0  0  0  0  0
   -5.7203   -1.5262    0.0000 C   0  0  0  0  0  0  0  0  0
   -6.4348   -1.1137    0.0000 C   0  0  0  0  0  0  0  0  0
   -6.4348   -0.2887    0.0000 C   0  0  0  0  0  0  0  0  0
   -5.7203    0.1238    0.0000 C   0  0  0  0  0  0  0  0  0
   -5.0058   -0.2887    0.0000 C   0  0  0  0  0  0  0  0  0
   -5.0058   -1.1137    0.0000 C   0  0  0  0  0  0  0  0  0
   -5.0058   -2.7637    0.0000 C   0  0  0  0  0  0  0  0  0
   -4.2914   -2.3512    0.0000 C   0  0  0  0  0  0  0  0  0
   -3.5769   -2.7637    0.0000 C   0  0  0  0  0  0  0  0  0
   -2.8624   -2.3512    0.0000 N   0  0  0  0  0  0  0  0  0
   -2.8624   -1.5262    0.0000 C   0  0  0  0  0  0  0  0  0
   -2.1479   -1.1137    0.0000 C   0  0  0  0  0  0  0  0  0
   -1.4335   -1.5262    0.0000 N   0  0  0  0  0  0  0  0  0
   -1.4335   -2.3512    0.0000 C   0  0  0  0  0  0  0  0  0
   -2.1479   -2.7637    0.0000 C   0  0  0  0  0  0  0  0  0
   -0.7190   -1.1137    0.0000 C   0  0  0  0  0  0  0  0  0
   -0.0045   -1.5262    0.0000 C   0  0  0  0  0  0  0  0  0
    0.7099   -1.1137    0.0000 O   0  0  0  0  0  0  0  0  0
    1.4244   -1.5262    0.0000 C   0  0  0  0  0  0  0  0  0
    1.4244   -2.3512    0.0000 O   0  0  0  0  0  0  0  0  0
    2.1389   -1.1137    0.0000 C   0  0  0  0  0  0  0  0  0
    2.8534   -1.5262    0.0000 C   0  0  0  0  0  0  0  0  0
    3.5678   -1.1137    0.0000 C   0  0  0  0  0  0  0  0  0
    4.2823   -1.5262    0.0000 C   0  0  0  0  0  0  0  0  0
    4.9968   -1.1137    0.0000 C   0  0  0  0  0  0  0  0  0
    5.7112   -1.5262    0.0000 C   0  0  0  0  0  0  0  0  0
   -6.4348   -3.5887    0.0000 C   0  0  0  0  0  0  0  0  0
   -7.1492   -4.0012    0.0000 C   0  0  0  0  0  0  0  0  0
   -7.8637   -3.5887    0.0000 C   0  0  0  0  0  0  0  0  0
   -7.8637   -2.7637    0.0000 C   0  0  0  0  0  0  0  0  0
   -7.1492   -4.8262    0.0000 C   0  0  0  0  0  0  0  0  0
   -7.1492   -5.6512    0.0000 F   0  0  0  0  0  0  0  0  0
   -7.9742   -4.8262    0.0000 F   0  0  0  0  0  0  0  0  0
   -6.3242   -4.8262    0.0000 F   0  0  0  0  0  0  0  0  0
  1  2  1  0  0  0  0
  1  6  1  0  0  0  0
  2  3  4  0  0  0  0
  2 34  4  0  0  0  0
  3  4  1  0  0  0  0
  3 31  4  0  0  0  0
  4  5  1  0  0  0  0
  4 11  1  0  0  0  0
  5  6  4  0  0  0  0
  5 10  4  0  0  0  0
  6  7  4  0  0  0  0
  7  8  4  0  0  0  0
  8  9  4  0  0  0  0
  9 10  4  0  0  0  0
 11 12  1  0  0  0  0
 12 13  1  0  0  0  0
 13 14  1  0  0  0  0
 14 15  1  0  0  0  0
 14 19  1  0  0  0  0
 15 16  1  0  0  0  0
 16 17  1  0  0  0  0
 17 18  1  0  0  0  0
 17 20  1  0  0  0  0
 18 19  1  0  0  0  0
 20 21  1  0  0  0  0
 21 22  1  0  0  0  0
 22 23  1  0  0  0  0
 23 24  2  0  0  0  0
 23 25  1  0  0  0  0
 25 26  1  0  0  0  0
 26 27  1  0  0  0  0
 27 28  1  0  0  0  0
 28 29  1  0  0  0  0
 29 30  1  0  0  0  0
 31 32  4  0  0  0  0
 32 33  4  0  0  0  0
 32 35  1  0  0  0  0
 33 34  4  0  0  0  0
 35 36  1  0  0  0  0
 35 37  1  0  0  0  0
 35 38  1  0  0  0  0
M  END
>  <Name_Molregno>
FLUPHENAZINE

>  <5-HT1A>
6.41

>  <5-HT1B>
6.48

>  <5-HT1D>
6.48

>  <5-HT1E>
6.27

>  <5-HT2A>
7.87

>  <5-HT2C>
6.05

>  <5-HT3>
5

>  <5-HT5>
6.84

>  <5-HT6>
7.46

>  <5-HT7>
8.1

>  <Alpha-1A>
8.19

>  <Alpha-1B>
7.89

>  <Alpha-2A>
6.5

>  <Alpha-2B>
7.09

>  <Alpha-2C>
7.54

>  <Beta-1>
5

>  <Beta-2>
5

>  <DOPAMINE D1>
7.55

>  <DOPAMINE D2>
9.22

>  <DOPAMINE D3>
9.33

>  <DOPAMINE D4>
7.52

>  <DOPAMINE D5>
7.82

>  <Dopamine transporter>
5

>  <HISTAMINE H1>
7.72

>  <HISTAMINE H2>
6.25

>  <HISTAMINE H3>
6

>  <HISTAMINE H4>
5

>  <Muscarinic acetylcholine receptor M1>
5.96

>  <Muscarinic acetylcholine receptor M2>
5.14

>  <Muscarinic acetylcholine receptor M3>
5.84

>  <Muscarinic acetylcholine receptor M4>
5.27

>  <Muscarinic acetylcholine receptor M5>
6.45

>  <Norepinephrine transporter>
5.51

>  <Serotonin transporter>
5.23

$$$$
FLUSPIRILENE
  Marvin  02231216192D 0   1.00000     0.00000     0

 35 39  0  0  0  0  0  0  0  0999 V2000
    3.1924   -2.1696    0.0000 F   0  0  0  0  0  0  0  0  0
    2.3674   -2.1696    0.0000 C   0  0  0  0  0  0  0  0  0
    1.9549   -2.8841    0.0000 C   0  0  0  0  0  0  0  0  0
    1.1299   -2.8841    0.0000 C   0  0  0  0  0  0  0  0  0
    0.7174   -2.1696    0.0000 C   0  0  0  0  0  0  0  0  0
    1.1299   -1.4552    0.0000 C   0  0  0  0  0  0  0  0  0
    1.9549   -1.4552    0.0000 C   0  0  0  0  0  0  0  0  0
   -0.1076   -2.1696    0.0000 C   0  0  0  0  0  0  0  0  0
   -0.5201   -2.8841    0.0000 C   0  0  0  0  0  0  0  0  0
   -1.3451   -2.8841    0.0000 C   0  0  0  0  0  0  0  0  0
   -1.7576   -3.5986    0.0000 C   0  0  0  0  0  0  0  0  0
   -2.5826   -3.5986    0.0000 N   0  0  0  0  0  0  0  0  0
   -2.9951   -4.3130    0.0000 C   0  0  0  0  0  0  0  0  0
   -3.8201   -4.3130    0.0000 C   0  0  0  0  0  0  0  0  0
   -4.2326   -3.5986    0.0000 C   0  0  0  0  0  0  0  0  0
   -4.7175   -4.2660    0.0000 N   0  0  0  0  0  0  0  0  0
   -5.5021   -4.0111    0.0000 C   0  0  0  0  0  0  0  0  0
   -5.5021   -3.1861    0.0000 N   0  0  0  0  0  0  0  0  0
   -4.7175   -2.9311    0.0000 C   0  0  0  0  0  0  0  0  0
   -4.4626   -2.1465    0.0000 O   0  0  0  0  0  0  0  0  0
   -4.4626   -5.0506    0.0000 C   0  0  0  0  0  0  0  0  0
   -3.6556   -5.2222    0.0000 C   0  0  0  0  0  0  0  0  0
   -3.4007   -6.0068    0.0000 C   0  0  0  0  0  0  0  0  0
   -3.9527   -6.6199    0.0000 C   0  0  0  0  0  0  0  0  0
   -4.7597   -6.4483    0.0000 C   0  0  0  0  0  0  0  0  0
   -5.0146   -5.6637    0.0000 C   0  0  0  0  0  0  0  0  0
   -3.8201   -2.8841    0.0000 C   0  0  0  0  0  0  0  0  0
   -2.9951   -2.8841    0.0000 C   0  0  0  0  0  0  0  0  0
   -0.5201   -1.4552    0.0000 C   0  0  0  0  0  0  0  0  0
   -1.3451   -1.4552    0.0000 C   0  0  0  0  0  0  0  0  0
   -1.7576   -0.7407    0.0000 C   0  0  0  0  0  0  0  0  0
   -1.3451   -0.0262    0.0000 C   0  0  0  0  0  0  0  0  0
   -1.7576    0.6883    0.0000 F   0  0  0  0  0  0  0  0  0
   -0.5201   -0.0262    0.0000 C   0  0  0  0  0  0  0  0  0
   -0.1076   -0.7407    0.0000 C   0  0  0  0  0  0  0  0  0
  1  2  1  0  0  0  0
  2  3  4  0  0  0  0
  2  7  4  0  0  0  0
  3  4  4  0  0  0  0
  4  5  4  0  0  0  0
  5  6  4  0  0  0  0
  5  8  1  0  0  0  0
  6  7  4  0  0  0  0
  8  9  1  0  0  0  0
  8 29  1  0  0  0  0
  9 10  1  0  0  0  0
 10 11  1  0  0  0  0
 11 12  1  0  0  0  0
 12 13  1  0  0  0  0
 12 28  1  0  0  0  0
 13 14  1  0  0  0  0
 14 15  1  0  0  0  0
 15 16  1  0  0  0  0
 15 19  1  0  0  0  0
 15 27  1  0  0  0  0
 16 17  1  0  0  0  0
 16 21  1  0  0  0  0
 17 18  1  0  0  0  0
 18 19  1  0  0  0  0
 19 20  2  0  0  0  0
 21 22  4  0  0  0  0
 21 26  4  0  0  0  0
 22 23  4  0  0  0  0
 23 24  4  0  0  0  0
 24 25  4  0  0  0  0
 25 26  4  0  0  0  0
 27 28  1  0  0  0  0
 29 30  4  0  0  0  0
 29 35  4  0  0  0  0
 30 31  4  0  0  0  0
 31 32  4  0  0  0  0
 32 33  1  0  0  0  0
 32 34  4  0  0  0  0
 34 35  4  0  0  0  0
M  END
>  <Name_Molregno>
FLUSPIRILENE

>  <5-HT1A>
7.25

>  <5-HT1B>
5.95

>  <5-HT1D>
5.3

>  <5-HT1E>
5.65

>  <5-HT2A>
8.02

>  <Alpha-2A>
6.24

>  <Alpha-2B>
7.32

>  <Alpha-2C>
7.21

>  <Beta-1>
6.23

>  <Beta-2>
6.29

>  <DOPAMINE D2>
9.37

>  <DOPAMINE D3>
8.73

>  <DOPAMINE D4>
8.26

>  <HISTAMINE H1>
7.92

>  <Serotonin transporter>
6

$$$$
FORMOTEROL
  Marvin  02231216192D 0   1.00000     0.00000     0

 25 26  0  0  1  0  0  0  0  0999 V2000
   -9.2832    0.1123    0.0000 O   0  0  0  0  0  0  0  0  0
   -9.2832   -0.7127    0.0000 C   0  0  0  0  0  0  0  0  0
   -8.5687    0.5248    0.0000 C   0  0  0  0  0  0  0  0  0
   -8.5687    1.3498    0.0000 C   0  0  0  0  0  0  0  0  0
   -7.8542    1.7623    0.0000 C   0  0  0  0  0  0  0  0  0
   -7.1398    1.3498    0.0000 C   0  0  0  0  0  0  0  0  0
   -7.1398    0.5248    0.0000 C   0  0  0  0  0  0  0  0  0
   -7.8542    0.1123    0.0000 C   0  0  0  0  0  0  0  0  0
   -6.4253    1.7623    0.0000 C   0  0  0  0  0  0  0  0  0
   -5.7108    1.3498    0.0000 C   0  0  0  0  0  0  0  0  0
   -4.9963    1.7623    0.0000 N   0  0  0  0  0  0  0  0  0
   -4.2819    1.3498    0.0000 C   0  0  0  0  0  0  0  0  0
   -3.5674    1.7623    0.0000 C   0  0  0  0  0  0  0  0  0
   -3.5674    2.5873    0.0000 O   0  0  0  0  0  0  0  0  0
   -2.8529    1.3498    0.0000 C   0  0  0  0  0  0  0  0  0
   -2.1385    1.7623    0.0000 C   0  0  0  0  0  0  0  0  0
   -1.4240    1.3498    0.0000 C   0  0  0  0  0  0  0  0  0
   -0.7095    1.7623    0.0000 N   0  0  0  0  0  0  0  0  0
    0.0049    1.3498    0.0000 C   0  0  0  0  0  0  0  0  0
    0.7194    1.7623    0.0000 O   0  0  0  0  0  0  0  0  0
   -1.4240    0.5248    0.0000 C   0  0  0  0  0  0  0  0  0
   -0.7095    0.1123    0.0000 O   0  0  0  0  0  0  0  0  0
   -2.1385    0.1123    0.0000 C   0  0  0  0  0  0  0  0  0
   -2.8529    0.5248    0.0000 C   0  0  0  0  0  0  0  0  0
   -5.7108    0.5248    0.0000 C   0  0  0  0  0  0  0  0  0
  1  2  1  0  0  0  0
  1  3  1  0  0  0  0
  3  4  4  0  0  0  0
  3  8  4  0  0  0  0
  4  5  4  0  0  0  0
  5  6  4  0  0  0  0
  6  7  4  0  0  0  0
  6  9  1  0  0  0  0
  7  8  4  0  0  0  0
  9 10  1  0  0  0  0
 10 11  1  0  0  0  0
 10 25  1  0  0  0  0
 11 12  1  0  0  0  0
 12 13  1  0  0  0  0
 13 14  1  0  0  0  0
 13 15  1  0  0  0  0
 15 16  4  0  0  0  0
 15 24  4  0  0  0  0
 16 17  4  0  0  0  0
 17 18  1  0  0  0  0
 17 21  4  0  0  0  0
 18 19  1  0  0  0  0
 19 20  2  0  0  0  0
 21 22  1  0  0  0  0
 21 23  4  0  0  0  0
 23 24  4  0  0  0  0
M  END
>  <Name_Molregno>
FORMOTEROL

>  <Beta-1>
6.14

>  <Beta-2>
7.61

$$$$
HALOPERIDOL
  Marvin  02231216192D 0   1.00000     0.00000     0

 26 28  0  0  0  0  0  0  0  0999 V2000
    1.7138    2.6466    0.0000 Cl  0  0  0  0  0  0  0  0  0
    1.9960    1.8714    0.0000 C   0  0  0  0  0  0  0  0  0
    2.8084    1.7281    0.0000 C   0  0  0  0  0  0  0  0  0
    3.0906    0.9529    0.0000 C   0  0  0  0  0  0  0  0  0
    2.5603    0.3209    0.0000 C   0  0  0  0  0  0  0  0  0
    1.7478    0.4642    0.0000 C   0  0  0  0  0  0  0  0  0
    1.4657    1.2394    0.0000 C   0  0  0  0  0  0  0  0  0
    2.8425   -0.4543    0.0000 C   0  0  0  0  0  0  0  0  0
    2.0300   -0.5976    0.0000 O   0  0  0  0  0  0  0  0  0
    3.5569   -0.0418    0.0000 C   0  0  0  0  0  0  0  0  0
    4.2714   -0.4543    0.0000 C   0  0  0  0  0  0  0  0  0
    4.2714   -1.2793    0.0000 N   0  0  0  0  0  0  0  0  0
    3.5569   -1.6918    0.0000 C   0  0  0  0  0  0  0  0  0
    2.8425   -1.2793    0.0000 C   0  0  0  0  0  0  0  0  0
    4.9859   -1.6918    0.0000 C   0  0  0  0  0  0  0  0  0
    5.7003   -1.2793    0.0000 C   0  0  0  0  0  0  0  0  0
    6.4148   -1.6918    0.0000 C   0  0  0  0  0  0  0  0  0
    7.1293   -1.2793    0.0000 C   0  0  0  0  0  0  0  0  0
    7.1293   -0.4543    0.0000 O   0  0  0  0  0  0  0  0  0
    7.8438   -1.6918    0.0000 C   0  0  0  0  0  0  0  0  0
    8.5582   -1.2793    0.0000 C   0  0  0  0  0  0  0  0  0
    9.2727   -1.6918    0.0000 C   0  0  0  0  0  0  0  0  0
    9.2727   -2.5168    0.0000 C   0  0  0  0  0  0  0  0  0
    9.9872   -2.9293    0.0000 F   0  0  0  0  0  0  0  0  0
    8.5582   -2.9293    0.0000 C   0  0  0  0  0  0  0  0  0
    7.8438   -2.5168    0.0000 C   0  0  0  0  0  0  0  0  0
  1  2  1  0  0  0  0
  2  3  4  0  0  0  0
  2  7  4  0  0  0  0
  3  4  4  0  0  0  0
  4  5  4  0  0  0  0
  5  6  4  0  0  0  0
  5  8  1  0  0  0  0
  6  7  4  0  0  0  0
  8  9  1  0  0  0  0
  8 10  1  0  0  0  0
  8 14  1  0  0  0  0
 10 11  1  0  0  0  0
 11 12  1  0  0  0  0
 12 13  1  0  0  0  0
 12 15  1  0  0  0  0
 13 14  1  0  0  0  0
 15 16  1  0  0  0  0
 16 17  1  0  0  0  0
 17 18  1  0  0  0  0
 18 19  2  0  0  0  0
 18 20  1  0  0  0  0
 20 21  4  0  0  0  0
 20 26  4  0  0  0  0
 21 22  4  0  0  0  0
 22 23  4  0  0  0  0
 23 24  1  0  0  0  0
 23 25  4  0  0  0  0
 25 26  4  0  0  0  0
M  END
>  <Name_Molregno>
HALOPERIDOL

>  <5-HT1A>
5.67

>  <5-HT1B>
6.63

>  <5-HT1D>
5.56

>  <5-HT1E>
5.15

>  <5-HT2A>
7.01

>  <5-HT2C>
5.24

>  <5-HT3>
5

>  <5-HT5>
5.65

>  <5-HT6>
5.28

>  <5-HT7>
6.32

>  <Alpha-1A>
7.92

>  <Alpha-1B>
8.1

>  <Alpha-2A>
6.04

>  <Alpha-2B>
6.32

>  <Alpha-2C>
6.34

>  <Beta-1>
5

>  <Beta-2>
5.15

>  <DOPAMINE D1>
7.22

>  <DOPAMINE D2>
8.75

>  <DOPAMINE D3>
8.33

>  <DOPAMINE D4>
8.29

>  <DOPAMINE D5>
7.03

>  <Dopamine transporter>
5

>  <HISTAMINE H1>
6.04

>  <HISTAMINE H2>
6

>  <HISTAMINE H4>
5

>  <Muscarinic acetylcholine receptor M1>
5.4

>  <Muscarinic acetylcholine receptor M2>
5

>  <Muscarinic acetylcholine receptor M3>
5

>  <Muscarinic acetylcholine receptor M4>
5

>  <Muscarinic acetylcholine receptor M5>
5.59

>  <Norepinephrine transporter>
5.68

>  <Serotonin transporter>
5.74

$$$$
ICI89406
  Marvin  02231216192D 0   1.00000     0.00000     0

 26 27  0  0  1  0  0  0  0  0999 V2000
   -0.2123   -0.2597    0.0000 O   0  0  0  0  0  0  0  0  0
    0.5022    0.1528    0.0000 C   0  0  0  0  0  0  0  0  0
    1.2167   -0.2597    0.0000 C   0  0  0  0  0  0  0  0  0
    1.2167   -1.0847    0.0000 O   0  0  0  0  0  0  0  0  0
    1.9311    0.1528    0.0000 C   0  0  0  0  0  0  0  0  0
    2.6456   -0.2597    0.0000 N   0  0  0  0  0  0  0  0  0
    3.3601    0.1528    0.0000 C   0  0  0  0  0  0  0  0  0
    4.0745   -0.2597    0.0000 C   0  0  0  0  0  0  0  0  0
    4.7890    0.1528    0.0000 N   0  0  0  0  0  0  0  0  0
    5.5035   -0.2597    0.0000 C   0  0  0  0  0  0  0  0  0
    5.5035   -1.0847    0.0000 O   0  0  0  0  0  0  0  0  0
    6.2180    0.1528    0.0000 N   0  0  0  0  0  0  0  0  0
    6.9324   -0.2597    0.0000 C   0  0  0  0  0  0  0  0  0
    7.6469    0.1528    0.0000 C   0  0  0  0  0  0  0  0  0
    8.3614   -0.2597    0.0000 C   0  0  0  0  0  0  0  0  0
    8.3614   -1.0847    0.0000 C   0  0  0  0  0  0  0  0  0
    7.6469   -1.4972    0.0000 C   0  0  0  0  0  0  0  0  0
    6.9324   -1.0847    0.0000 C   0  0  0  0  0  0  0  0  0
   -0.9268    0.1528    0.0000 C   0  0  0  0  0  0  0  0  0
   -1.6412   -0.2597    0.0000 C   0  0  0  0  0  0  0  0  0
   -2.3557    0.1528    0.0000 C   0  0  0  0  0  0  0  0  0
   -2.3557    0.9778    0.0000 C   0  0  0  0  0  0  0  0  0
   -1.6412    1.3903    0.0000 C   0  0  0  0  0  0  0  0  0
   -0.9268    0.9778    0.0000 C   0  0  0  0  0  0  0  0  0
   -0.2123    1.3903    0.0000 C   0  0  0  0  0  0  0  0  0
    0.5022    1.8028    0.0000 N   0  0  0  0  0  0  0  0  0
  1  2  1  0  0  0  0
  1 19  1  0  0  0  0
  2  3  1  0  0  0  0
  3  4  1  0  0  0  0
  3  5  1  0  0  0  0
  5  6  1  0  0  0  0
  6  7  1  0  0  0  0
  7  8  1  0  0  0  0
  8  9  1  0  0  0  0
  9 10  1  0  0  0  0
 10 11  2  0  0  0  0
 10 12  1  0  0  0  0
 12 13  1  0  0  0  0
 13 14  4  0  0  0  0
 13 18  4  0  0  0  0
 14 15  4  0  0  0  0
 15 16  4  0  0  0  0
 16 17  4  0  0  0  0
 17 18  4  0  0  0  0
 19 20  4  0  0  0  0
 19 24  4  0  0  0  0
 20 21  4  0  0  0  0
 21 22  4  0  0  0  0
 22 23  4  0  0  0  0
 23 24  4  0  0  0  0
 24 25  1  0  0  0  0
 25 26  3  0  0  0  0
M  END
>  <Name_Molregno>
ICI89406

>  <Beta-2>
6.88

$$$$
ILOPERIDONE
  Marvin  02231216192D 0   1.00000     0.00000     0

 31 34  0  0  0  0  0  0  0  0999 V2000
    9.8408   -5.0338    0.0000 F   0  0  0  0  0  0  0  0  0
    9.1263   -4.6213    0.0000 C   0  0  0  0  0  0  0  0  0
    8.4119   -5.0338    0.0000 C   0  0  0  0  0  0  0  0  0
    7.6974   -4.6213    0.0000 C   0  0  0  0  0  0  0  0  0
    6.9128   -4.8762    0.0000 O   0  0  0  0  0  0  0  0  0
    6.4279   -4.2088    0.0000 N   0  0  0  0  0  0  0  0  0
    6.9128   -3.5413    0.0000 C   0  0  0  0  0  0  0  0  0
    7.6974   -3.7963    0.0000 C   0  0  0  0  0  0  0  0  0
    8.4119   -3.3838    0.0000 C   0  0  0  0  0  0  0  0  0
    9.1263   -3.7963    0.0000 C   0  0  0  0  0  0  0  0  0
    6.6578   -2.7567    0.0000 C   0  0  0  0  0  0  0  0  0
    5.8509   -2.5852    0.0000 C   0  0  0  0  0  0  0  0  0
    5.5959   -1.8006    0.0000 C   0  0  0  0  0  0  0  0  0
    6.1480   -1.1875    0.0000 N   0  0  0  0  0  0  0  0  0
    6.9549   -1.3590    0.0000 C   0  0  0  0  0  0  0  0  0
    7.2099   -2.1436    0.0000 C   0  0  0  0  0  0  0  0  0
    5.8930   -0.4028    0.0000 C   0  0  0  0  0  0  0  0  0
    5.0861   -0.2313    0.0000 C   0  0  0  0  0  0  0  0  0
    4.8311    0.5533    0.0000 C   0  0  0  0  0  0  0  0  0
    4.0241    0.7248    0.0000 O   0  0  0  0  0  0  0  0  0
    3.7692    1.5095    0.0000 C   0  0  0  0  0  0  0  0  0
    2.9622    1.6810    0.0000 C   0  0  0  0  0  0  0  0  0
    2.7073    2.4656    0.0000 C   0  0  0  0  0  0  0  0  0
    3.2593    3.0787    0.0000 C   0  0  0  0  0  0  0  0  0
    4.0663    2.9072    0.0000 C   0  0  0  0  0  0  0  0  0
    4.3212    2.1225    0.0000 C   0  0  0  0  0  0  0  0  0
    5.1282    1.9510    0.0000 O   0  0  0  0  0  0  0  0  0
    5.6802    2.5641    0.0000 C   0  0  0  0  0  0  0  0  0
    3.0044    3.8633    0.0000 C   0  0  0  0  0  0  0  0  0
    2.1974    4.0348    0.0000 O   0  0  0  0  0  0  0  0  0
    3.5564    4.4764    0.0000 C   0  0  0  0  0  0  0  0  0
  1  2  1  0  0  0  0
  2  3  4  0  0  0  0
  2 10  4  0  0  0  0
  3  4  4  0  0  0  0
  4  5  4  0  0  0  0
  4  8  4  0  0  0  0
  5  6  4  0  0  0  0
  6  7  4  0  0  0  0
  7  8  4  0  0  0  0
  7 11  1  0  0  0  0
  8  9  4  0  0  0  0
  9 10  4  0  0  0  0
 11 12  1  0  0  0  0
 11 16  1  0  0  0  0
 12 13  1  0  0  0  0
 13 14  1  0  0  0  0
 14 15  1  0  0  0  0
 14 17  1  0  0  0  0
 15 16  1  0  0  0  0
 17 18  1  0  0  0  0
 18 19  1  0  0  0  0
 19 20  1  0  0  0  0
 20 21  1  0  0  0  0
 21 22  4  0  0  0  0
 21 26  4  0  0  0  0
 22 23  4  0  0  0  0
 23 24  4  0  0  0  0
 24 25  4  0  0  0  0
 24 29  1  0  0  0  0
 25 26  4  0  0  0  0
 26 27  1  0  0  0  0
 27 28  1  0  0  0  0
 29 30  2  0  0  0  0
 29 31  1  0  0  0  0
M  END
>  <Name_Molregno>
ILOPERIDONE

>  <5-HT1A>
7.18

>  <5-HT1B>
7.05

>  <5-HT1D>
7.82

>  <5-HT2A>
9.46

>  <5-HT2C>
7.27

>  <5-HT3>
5

>  <5-HT6>
7.2

>  <5-HT7>
6.95

>  <Alpha-2A>
6.79

>  <Alpha-2B>
6.79

>  <Alpha-2C>
7.79

>  <Beta-1>
5

>  <Beta-2>
5

>  <DOPAMINE D1>
7.02

>  <DOPAMINE D2>
8.23

>  <DOPAMINE D3>
8

>  <DOPAMINE D4>
7.96

>  <DOPAMINE D5>
6.5

>  <Dopamine transporter>
5.53

>  <HISTAMINE H1>
7.91

>  <Muscarinic acetylcholine receptor M1>
5.31

>  <Muscarinic acetylcholine receptor M2>
5.48

>  <Muscarinic acetylcholine receptor M3>
5

>  <Muscarinic acetylcholine receptor M4>
5.08

>  <Muscarinic acetylcholine receptor M5>
5

>  <Norepinephrine transporter>
5.83

$$$$
ISOPRENALINE
  Marvin  02231216192D 0   1.00000     0.00000     0

 15 15  0  0  1  0  0  0  0  0999 V2000
   -0.0675    1.0405    0.0000 O   0  0  0  0  0  0  0  0  0
    0.6470    0.6280    0.0000 C   0  0  0  0  0  0  0  0  0
    1.3614    1.0405    0.0000 C   0  0  0  0  0  0  0  0  0
    2.0759    0.6280    0.0000 C   0  0  0  0  0  0  0  0  0
    2.0759   -0.1970    0.0000 C   0  0  0  0  0  0  0  0  0
    1.3614   -0.6095    0.0000 C   0  0  0  0  0  0  0  0  0
    0.6470   -0.1970    0.0000 C   0  0  0  0  0  0  0  0  0
   -0.0675   -0.6095    0.0000 O   0  0  0  0  0  0  0  0  0
    2.7904    1.0405    0.0000 C   0  0  0  0  0  0  0  0  0
    2.7904    1.8655    0.0000 O   0  0  0  0  0  0  0  0  0
    3.5049    0.6280    0.0000 C   0  0  0  0  0  0  0  0  0
    4.2193    1.0405    0.0000 N   0  0  0  0  0  0  0  0  0
    4.9338    0.6280    0.0000 C   0  0  0  0  0  0  0  0  0
    5.6483    1.0405    0.0000 C   0  0  0  0  0  0  0  0  0
    4.9338   -0.1970    0.0000 C   0  0  0  0  0  0  0  0  0
  1  2  1  0  0  0  0
  2  3  4  0  0  0  0
  2  7  4  0  0  0  0
  3  4  4  0  0  0  0
  4  5  4  0  0  0  0
  4  9  1  0  0  0  0
  5  6  4  0  0  0  0
  6  7  4  0  0  0  0
  7  8  1  0  0  0  0
  9 10  1  0  0  0  0
  9 11  1  0  0  0  0
 11 12  1  0  0  0  0
 12 13  1  0  0  0  0
 13 14  1  0  0  0  0
 13 15  1  0  0  0  0
M  END
>  <Name_Molregno>
ISOPRENALINE

>  <5-HT2A>
5

>  <Beta-1>
6.65

>  <Beta-2>
6.02

$$$$
LOXAPINE
  Marvin  02231216192D 0   1.00000     0.00000     0

 23 26  0  0  0  0  0  0  0  0999 V2000
    3.9671    1.6854    0.0000 Cl  0  0  0  0  0  0  0  0  0
    3.1788    1.4422    0.0000 C   0  0  0  0  0  0  0  0  0
    2.5740    2.0033    0.0000 C   0  0  0  0  0  0  0  0  0
    1.7856    1.7602    0.0000 C   0  0  0  0  0  0  0  0  0
    1.6021    0.9558    0.0000 C   0  0  0  0  0  0  0  0  0
    0.8588    0.5979    0.0000 O   0  0  0  0  0  0  0  0  0
    0.1155    0.9558    0.0000 C   0  0  0  0  0  0  0  0  0
   -0.0681    1.7602    0.0000 C   0  0  0  0  0  0  0  0  0
    0.4463    2.4052    0.0000 N   0  0  0  0  0  0  0  0  0
    1.2713    2.4052    0.0000 C   0  0  0  0  0  0  0  0  0
    1.6292    3.1485    0.0000 N   0  0  0  0  0  0  0  0  0
    1.1645    3.8301    0.0000 C   0  0  0  0  0  0  0  0  0
    1.5224    4.5734    0.0000 C   0  0  0  0  0  0  0  0  0
    2.3451    4.6351    0.0000 N   0  0  0  0  0  0  0  0  0
    2.8099    3.9534    0.0000 C   0  0  0  0  0  0  0  0  0
    2.4519    3.2101    0.0000 C   0  0  0  0  0  0  0  0  0
    2.7031    5.3784    0.0000 C   0  0  0  0  0  0  0  0  0
   -0.8565    2.0033    0.0000 C   0  0  0  0  0  0  0  0  0
   -1.4612    1.4422    0.0000 C   0  0  0  0  0  0  0  0  0
   -1.2776    0.6379    0.0000 C   0  0  0  0  0  0  0  0  0
   -0.4893    0.3947    0.0000 C   0  0  0  0  0  0  0  0  0
    2.2068    0.3947    0.0000 C   0  0  0  0  0  0  0  0  0
    2.9952    0.6379    0.0000 C   0  0  0  0  0  0  0  0  0
  1  2  1  0  0  0  0
  2  3  4  0  0  0  0
  2 23  4  0  0  0  0
  3  4  4  0  0  0  0
  4  5  4  0  0  0  0
  4 10  1  0  0  0  0
  5  6  1  0  0  0  0
  5 22  4  0  0  0  0
  6  7  1  0  0  0  0
  7  8  4  0  0  0  0
  7 21  4  0  0  0  0
  8  9  1  0  0  0  0
  8 18  4  0  0  0  0
  9 10  2  0  0  0  0
 10 11  1  0  0  0  0
 11 12  1  0  0  0  0
 11 16  1  0  0  0  0
 12 13  1  0  0  0  0
 13 14  1  0  0  0  0
 14 15  1  0  0  0  0
 14 17  1  0  0  0  0
 15 16  1  0  0  0  0
 18 19  4  0  0  0  0
 19 20  4  0  0  0  0
 20 21  4  0  0  0  0
 22 23  4  0  0  0  0
M  END
>  <Name_Molregno>
LOXAPINE

>  <5-HT1A>
5.59

>  <5-HT1B>
6.41

>  <5-HT1D>
5.46

>  <5-HT1E>
5.85

>  <5-HT2A>
8.43

>  <5-HT2C>
7.9

>  <5-HT3>
6.72

>  <5-HT5>
6.11

>  <5-HT6>
7.46

>  <5-HT7>
7.06

>  <Alpha-1A>
7.51

>  <Alpha-1B>
7.28

>  <Alpha-2A>
6.82

>  <Alpha-2B>
6.97

>  <Alpha-2C>
7.1

>  <Beta-1>
5

>  <Beta-2>
5

>  <DOPAMINE D1>
7.27

>  <DOPAMINE D2>
7.74

>  <DOPAMINE D3>
7.64

>  <DOPAMINE D4>
8.04

>  <DOPAMINE D5>
7.12

>  <Dopamine transporter>
5

>  <HISTAMINE H1>
8.33

>  <HISTAMINE H2>
6.68

>  <HISTAMINE H4>
5.32

>  <Muscarinic acetylcholine receptor M1>
6.98

>  <Muscarinic acetylcholine receptor M2>
6.38

>  <Muscarinic acetylcholine receptor M3>
6.74

>  <Muscarinic acetylcholine receptor M4>
6.09

>  <Muscarinic acetylcholine receptor M5>
6.83

>  <Norepinephrine transporter>
5.24

>  <Serotonin transporter>
5

$$$$
Methcathinone
  Marvin  02231216192D 0   1.00000     0.00000     0

 12 12  0  0  1  0  0  0  0  0999 V2000
    1.9192   -0.0549    0.0000 O   0  0  0  0  0  0  0  0  0
    1.2047   -0.4674    0.0000 C   0  0  0  0  0  0  0  0  0
    0.4903   -0.0549    0.0000 C   0  0  0  0  0  0  0  0  0
    0.4903    0.7701    0.0000 N   0  0  0  0  0  0  0  0  0
   -0.2242    1.1826    0.0000 C   0  0  0  0  0  0  0  0  0
   -0.2242   -0.4674    0.0000 C   0  0  0  0  0  0  0  0  0
    1.2047   -1.2924    0.0000 C   0  0  0  0  0  0  0  0  0
    1.9192   -1.7049    0.0000 C   0  0  0  0  0  0  0  0  0
    1.9192   -2.5299    0.0000 C   0  0  0  0  0  0  0  0  0
    1.2047   -2.9424    0.0000 C   0  0  0  0  0  0  0  0  0
    0.4903   -2.5299    0.0000 C   0  0  0  0  0  0  0  0  0
    0.4903   -1.7049    0.0000 C   0  0  0  0  0  0  0  0  0
  1  2  2  0  0  0  0
  2  3  1  0  0  0  0
  2  7  1  0  0  0  0
  3  4  1  0  0  0  0
  3  6  1  0  0  0  0
  4  5  1  0  0  0  0
  7  8  4  0  0  0  0
  7 12  4  0  0  0  0
  8  9  4  0  0  0  0
  9 10  4  0  0  0  0
 10 11  4  0  0  0  0
 11 12  4  0  0  0  0
M  END
>  <Name_Molregno>
Methcathinone

>  <5-HT1A>
5

>  <5-HT1B>
5

>  <5-HT1D>
5

>  <5-HT1E>
5

>  <5-HT3>
5

>  <5-HT5>
5

>  <5-HT6>
5

>  <5-HT7>
6

>  <Alpha-1A>
5

>  <Alpha-1B>
5

>  <Alpha-2A>
5.04

>  <Alpha-2B>
5.81

>  <Alpha-2C>
6.22

>  <Beta-1>
5

>  <Beta-2>
5

>  <DOPAMINE D1>
5

>  <DOPAMINE D2>
5

>  <DOPAMINE D4>
5

>  <DOPAMINE D5>
5

>  <Dopamine transporter>
6.41

>  <HISTAMINE H1>
5

>  <HISTAMINE H2>
5

>  <HISTAMINE H4>
5

>  <Muscarinic acetylcholine receptor M1>
5

>  <Muscarinic acetylcholine receptor M2>
5

>  <Muscarinic acetylcholine receptor M3>
5

>  <Muscarinic acetylcholine receptor M4>
5

>  <Muscarinic acetylcholine receptor M5>
5

>  <Norepinephrine transporter>
6.87

>  <Serotonin transporter>
5.38

$$$$
METHYSERGIDE
  Marvin  02231216192D 0   1.00000     0.00000     0

 26 29  0  0  1  0  0  0  0  0999 V2000
   -5.6466   -4.8655    0.0000 O   0  0  0  0  0  0  0  0  0
   -5.6457   -4.0405    0.0000 C   0  0  0  0  0  0  0  0  0
   -4.9307   -3.6289    0.0000 C   0  0  0  0  0  0  0  0  0
   -4.9297   -2.8039    0.0000 N   0  0  0  0  0  0  0  0  0
   -4.2147   -2.3922    0.0000 C   0  0  0  0  0  0  0  0  0
   -3.5008   -2.8056    0.0000 O   0  0  0  0  0  0  0  0  0
   -4.2138   -1.5672    0.0000 C   0  0  0  0  0  0  0  0  0
   -3.4988   -1.1556    0.0000 C   0  0  0  0  0  0  0  0  0
   -3.4978   -0.3306    0.0000 C   0  0  0  0  0  0  0  0  0
   -4.2118    0.0828    0.0000 C   0  0  0  0  0  0  0  0  0
   -4.9267   -0.3289    0.0000 N   0  0  0  0  0  0  0  0  0
   -4.9277   -1.1539    0.0000 C   0  0  0  0  0  0  0  0  0
   -5.6407    0.0845    0.0000 C   0  0  0  0  0  0  0  0  0
   -4.2103    0.9069    0.0000 C   0  0  0  0  0  0  0  0  0
   -3.4978    1.3194    0.0000 C   0  0  0  0  0  0  0  0  0
   -2.7853    0.9069    0.0000 C   0  0  0  0  0  0  0  0  0
   -2.7853    0.0819    0.0000 C   0  0  0  0  0  0  0  0  0
   -2.0674   -0.3306    0.0000 C   0  0  0  0  0  0  0  0  0
   -1.3549    0.0819    0.0000 C   0  0  0  0  0  0  0  0  0
   -1.3549    0.9069    0.0000 C   0  0  0  0  0  0  0  0  0
   -2.0674    1.3194    0.0000 C   0  0  0  0  0  0  0  0  0
   -2.3728    2.1766    0.0000 N   0  0  0  0  0  0  0  0  0
   -3.1978    2.1766    0.0000 C   0  0  0  0  0  0  0  0  0
   -1.8973    2.8507    0.0000 C   0  0  0  0  0  0  0  0  0
   -4.2167   -4.0422    0.0000 C   0  0  0  0  0  0  0  0  0
   -4.2177   -4.8672    0.0000 C   0  0  0  0  0  0  0  0  0
  1  2  1  0  0  0  0
  2  3  1  0  0  0  0
  3  4  1  0  0  0  0
  3 25  1  0  0  0  0
  4  5  1  0  0  0  0
  5  6  2  0  0  0  0
  5  7  1  0  0  0  0
  7  8  1  0  0  0  0
  7 12  1  0  0  0  0
  8  9  2  0  0  0  0
  9 10  1  0  0  0  0
  9 17  1  0  0  0  0
 10 11  1  0  0  0  0
 10 14  1  0  0  0  0
 11 12  1  0  0  0  0
 11 13  1  0  0  0  0
 14 15  1  0  0  0  0
 15 16  4  0  0  0  0
 15 23  4  0  0  0  0
 16 17  4  0  0  0  0
 16 21  4  0  0  0  0
 17 18  4  0  0  0  0
 18 19  4  0  0  0  0
 19 20  4  0  0  0  0
 20 21  4  0  0  0  0
 21 22  4  0  0  0  0
 22 23  4  0  0  0  0
 22 24  1  0  0  0  0
 25 26  1  0  0  0  0
M  END
>  <Name_Molregno>
METHYSERGIDE

>  <5-HT1A>
7.81

>  <5-HT1B>
7.91

>  <5-HT1D>
7.56

>  <5-HT1E>
6.71

>  <5-HT2A>
8.05

>  <5-HT2C>
8.69

>  <5-HT3>
5

>  <5-HT5>
5

>  <5-HT6>
6.82

>  <5-HT7>
7.32

>  <Alpha-1A>
5

>  <Alpha-1B>
5

>  <Alpha-2A>
6.77

>  <Alpha-2B>
6.97

>  <Alpha-2C>
7.05

>  <Beta-1>
5

>  <Beta-2>
5

>  <DOPAMINE D1>
5

>  <DOPAMINE D2>
5

>  <DOPAMINE D4>
5

>  <DOPAMINE D5>
5

>  <Dopamine transporter>
5

>  <HISTAMINE H1>
5.26

>  <HISTAMINE H2>
5

>  <Muscarinic acetylcholine receptor M1>
5.26

>  <Muscarinic acetylcholine receptor M2>
5.21

>  <Muscarinic acetylcholine receptor M3>
5.33

>  <Muscarinic acetylcholine receptor M4>
5

>  <Muscarinic acetylcholine receptor M5>
5

>  <Norepinephrine transporter>
5

>  <Serotonin transporter>
5

$$$$
metoprolol
  Marvin  02231216192D 0   1.00000     0.00000     0

 19 19  0  0  1  0  0  0  0  0999 V2000
    0.0070   -1.2861    0.0000 O   0  0  0  0  0  0  0  0  0
    0.7215   -0.8736    0.0000 C   0  0  0  0  0  0  0  0  0
    1.4360   -1.2861    0.0000 C   0  0  0  0  0  0  0  0  0
    1.4360   -2.1111    0.0000 O   0  0  0  0  0  0  0  0  0
    2.1504   -0.8736    0.0000 C   0  0  0  0  0  0  0  0  0
    2.8649   -1.2861    0.0000 N   0  0  0  0  0  0  0  0  0
    3.5794   -0.8736    0.0000 C   0  0  0  0  0  0  0  0  0
    4.2938   -1.2861    0.0000 C   0  0  0  0  0  0  0  0  0
    3.5794   -0.0486    0.0000 C   0  0  0  0  0  0  0  0  0
   -0.7074   -0.8736    0.0000 C   0  0  0  0  0  0  0  0  0
   -1.4219   -1.2861    0.0000 C   0  0  0  0  0  0  0  0  0
   -2.1364   -0.8736    0.0000 C   0  0  0  0  0  0  0  0  0
   -2.1364   -0.0486    0.0000 C   0  0  0  0  0  0  0  0  0
   -1.4219    0.3639    0.0000 C   0  0  0  0  0  0  0  0  0
   -0.7074   -0.0486    0.0000 C   0  0  0  0  0  0  0  0  0
   -2.8509    0.3639    0.0000 C   0  0  0  0  0  0  0  0  0
   -3.5653   -0.0486    0.0000 C   0  0  0  0  0  0  0  0  0
   -4.2798    0.3639    0.0000 O   0  0  0  0  0  0  0  0  0
   -4.9943   -0.0486    0.0000 C   0  0  0  0  0  0  0  0  0
  1  2  1  0  0  0  0
  1 10  1  0  0  0  0
  2  3  1  0  0  0  0
  3  4  1  0  0  0  0
  3  5  1  0  0  0  0
  5  6  1  0  0  0  0
  6  7  1  0  0  0  0
  7  8  1  0  0  0  0
  7  9  1  0  0  0  0
 10 11  4  0  0  0  0
 10 15  4  0  0  0  0
 11 12  4  0  0  0  0
 12 13  4  0  0  0  0
 13 14  4  0  0  0  0
 13 16  1  0  0  0  0
 14 15  4  0  0  0  0
 16 17  1  0  0  0  0
 17 18  1  0  0  0  0
 18 19  1  0  0  0  0
M  END
>  <Name_Molregno>
metoprolol

>  <Beta-1>
7.33

>  <Beta-2>
5.53

$$$$
N-DESMETHYLCLOZAPINE
  Marvin  02231216192D 0   1.00000     0.00000     0

 22 25  0  0  0  0  0  0  0  0999 V2000
   -0.3818   -1.7384    0.0000 Cl  0  0  0  0  0  0  0  0  0
    0.4065   -1.9816    0.0000 C   0  0  0  0  0  0  0  0  0
    1.0113   -1.4204    0.0000 C   0  0  0  0  0  0  0  0  0
    1.7996   -1.6636    0.0000 C   0  0  0  0  0  0  0  0  0
    2.3140   -1.0186    0.0000 N   0  0  0  0  0  0  0  0  0
    3.1390   -1.0186    0.0000 C   0  0  0  0  0  0  0  0  0
    3.4969   -0.2753    0.0000 N   0  0  0  0  0  0  0  0  0
    3.0322    0.4063    0.0000 C   0  0  0  0  0  0  0  0  0
    3.3902    1.1496    0.0000 C   0  0  0  0  0  0  0  0  0
    4.2129    1.2113    0.0000 N   0  0  0  0  0  0  0  0  0
    4.6776    0.5296    0.0000 C   0  0  0  0  0  0  0  0  0
    4.3196   -0.2137    0.0000 C   0  0  0  0  0  0  0  0  0
    3.6534   -1.6636    0.0000 C   0  0  0  0  0  0  0  0  0
    3.4698   -2.4679    0.0000 C   0  0  0  0  0  0  0  0  0
    2.7265   -2.8259    0.0000 N   0  0  0  0  0  0  0  0  0
    1.9832   -2.4679    0.0000 C   0  0  0  0  0  0  0  0  0
    1.3784   -3.0291    0.0000 C   0  0  0  0  0  0  0  0  0
    0.5901   -2.7859    0.0000 C   0  0  0  0  0  0  0  0  0
    4.0746   -3.0291    0.0000 C   0  0  0  0  0  0  0  0  0
    4.8629   -2.7859    0.0000 C   0  0  0  0  0  0  0  0  0
    5.0465   -1.9816    0.0000 C   0  0  0  0  0  0  0  0  0
    4.4417   -1.4204    0.0000 C   0  0  0  0  0  0  0  0  0
  1  2  1  0  0  0  0
  2  3  4  0  0  0  0
  2 18  4  0  0  0  0
  3  4  4  0  0  0  0
  4  5  1  0  0  0  0
  4 16  4  0  0  0  0
  5  6  1  0  0  0  0
  6  7  1  0  0  0  0
  6 13  2  0  0  0  0
  7  8  1  0  0  0  0
  7 12  1  0  0  0  0
  8  9  1  0  0  0  0
  9 10  1  0  0  0  0
 10 11  1  0  0  0  0
 11 12  1  0  0  0  0
 13 14  1  0  0  0  0
 13 22  1  0  0  0  0
 14 15  2  0  0  0  0
 14 19  1  0  0  0  0
 15 16  1  0  0  0  0
 16 17  4  0  0  0  0
 17 18  4  0  0  0  0
 19 20  2  0  0  0  0
 20 21  1  0  0  0  0
 21 22  2  0  0  0  0
M  END
>  <Name_Molregno>
N-DESMETHYLCLOZAPINE

>  <5-HT1A>
7.86

>  <5-HT1B>
6.39

>  <5-HT1D>
6.32

>  <5-HT1E>
6.41

>  <5-HT2A>
7.96

>  <5-HT3>
6.57

>  <5-HT5>
6.46

>  <5-HT6>
7.94

>  <5-HT7>
7.22

>  <Alpha-1A>
6.98

>  <Alpha-1B>
7.07

>  <Alpha-2A>
6.86

>  <Alpha-2B>
7.02

>  <Alpha-2C>
6.93

>  <Beta-1>
5.2

>  <Beta-2>
5.33

>  <DOPAMINE D1>
7.84

>  <DOPAMINE D2>
7

>  <DOPAMINE D3>
6.82

>  <DOPAMINE D4>
7.28

>  <DOPAMINE D5>
6.55

>  <Dopamine transporter>
5

>  <HISTAMINE H1>
8.47

>  <HISTAMINE H2>
6.46

>  <HISTAMINE H4>
5.99

>  <Muscarinic acetylcholine receptor M1>
7.17

>  <Muscarinic acetylcholine receptor M2>
6.38

>  <Muscarinic acetylcholine receptor M3>
7.02

>  <Muscarinic acetylcholine receptor M4>
6.77

>  <Muscarinic acetylcholine receptor M5>
7.45

>  <Norepinephrine transporter>
6.31

>  <Serotonin transporter>
6.5

$$$$
Norephedrine
  Marvin  02231216192D 0   1.00000     0.00000     0

 11 11  0  0  1  0  0  0  0  0999 V2000
    1.9974    0.2298    0.0000 O   0  0  0  0  0  0  0  0  0
    1.2829   -0.1827    0.0000 C   0  0  0  0  0  0  0  0  0
    0.5684    0.2298    0.0000 C   0  0  0  0  0  0  0  0  0
    0.5684    1.0548    0.0000 N   0  0  0  0  0  0  0  0  0
   -0.1461   -0.1827    0.0000 C   0  0  0  0  0  0  0  0  0
    1.2829   -1.0077    0.0000 C   0  0  0  0  0  0  0  0  0
    1.9974   -1.4202    0.0000 C   0  0  0  0  0  0  0  0  0
    1.9974   -2.2452    0.0000 C   0  0  0  0  0  0  0  0  0
    1.2829   -2.6577    0.0000 C   0  0  0  0  0  0  0  0  0
    0.5684   -2.2452    0.0000 C   0  0  0  0  0  0  0  0  0
    0.5684   -1.4202    0.0000 C   0  0  0  0  0  0  0  0  0
  1  2  1  0  0  0  0
  2  3  1  0  0  0  0
  2  6  1  0  0  0  0
  3  4  1  0  0  0  0
  3  5  1  0  0  0  0
  6  7  4  0  0  0  0
  6 11  4  0  0  0  0
  7  8  4  0  0  0  0
  8  9  4  0  0  0  0
  9 10  4  0  0  0  0
 10 11  4  0  0  0  0
M  END
>  <Name_Molregno>
Norephedrine

>  <5-HT1A>
5

>  <5-HT1B>
5

>  <5-HT1D>
5

>  <5-HT1E>
5

>  <5-HT3>
5

>  <5-HT5>
5

>  <5-HT6>
5

>  <5-HT7>
5.04

>  <Alpha-1A>
5

>  <Alpha-1B>
5

>  <Alpha-2A>
5.64

>  <Alpha-2B>
5.73

>  <Alpha-2C>
6.04

>  <Beta-1>
5

>  <Beta-2>
5

>  <DOPAMINE D1>
5

>  <DOPAMINE D2>
5

>  <DOPAMINE D4>
5

>  <DOPAMINE D5>
5

>  <Dopamine transporter>
5.76

>  <HISTAMINE H1>
5

>  <HISTAMINE H2>
5

>  <HISTAMINE H4>
5

>  <Muscarinic acetylcholine receptor M1>
5.04

>  <Muscarinic acetylcholine receptor M2>
5

>  <Muscarinic acetylcholine receptor M3>
5

>  <Muscarinic acetylcholine receptor M4>
5

>  <Muscarinic acetylcholine receptor M5>
5

>  <Norepinephrine transporter>
6.34

>  <Serotonin transporter>
5

$$$$
NOREPINEPHRINE
  Marvin  02231216192D 0   1.00000     0.00000     0

 12 12  0  0  1  0  0  0  0  0999 V2000
    3.1670    0.8378    0.0000 O   0  0  0  0  0  0  0  0  0
    2.4525    0.4253    0.0000 C   0  0  0  0  0  0  0  0  0
    2.4525   -0.3997    0.0000 C   0  0  0  0  0  0  0  0  0
    1.7381   -0.8122    0.0000 C   0  0  0  0  0  0  0  0  0
    1.0236   -0.3997    0.0000 C   0  0  0  0  0  0  0  0  0
    1.0236    0.4253    0.0000 C   0  0  0  0  0  0  0  0  0
    1.7381    0.8378    0.0000 C   0  0  0  0  0  0  0  0  0
    1.7381    1.6628    0.0000 O   0  0  0  0  0  0  0  0  0
    1.7381   -1.6372    0.0000 C   0  0  0  0  0  0  0  0  0
    2.4525   -2.0497    0.0000 O   0  0  0  0  0  0  0  0  0
    1.0236   -2.0497    0.0000 C   0  0  0  0  0  0  0  0  0
    1.0236   -2.8747    0.0000 N   0  0  0  0  0  0  0  0  0
  1  2  1  0  0  0  0
  2  3  4  0  0  0  0
  2  7  4  0  0  0  0
  3  4  4  0  0  0  0
  4  5  4  0  0  0  0
  4  9  1  0  0  0  0
  5  6  4  0  0  0  0
  6  7  4  0  0  0  0
  7  8  1  0  0  0  0
  9 10  1  0  0  0  0
  9 11  1  0  0  0  0
 11 12  1  0  0  0  0
M  END
>  <Name_Molregno>
NOREPINEPHRINE

>  <5-HT1A>
5

>  <5-HT2A>
5

>  <5-HT3>
5

>  <5-HT7>
5

>  <Alpha-1A>
5.33

>  <Alpha-1B>
5.1

>  <Alpha-2A>
6.32

>  <Alpha-2B>
6.02

>  <Alpha-2C>
6.43

>  <Beta-1>
5.45

>  <Beta-2>
4.9

>  <DOPAMINE D1>
5

>  <DOPAMINE D2>
5

>  <DOPAMINE D5>
5

>  <Dopamine transporter>
5.02

$$$$
Norfenfluramine
  Marvin  02231216192D 0   1.00000     0.00000     0

 14 14  0  0  1  0  0  0  0  0999 V2000
    0.4631   -1.9707    0.0000 F   0  0  0  0  0  0  0  0  0
    1.1776   -1.5582    0.0000 C   0  0  0  0  0  0  0  0  0
    1.5901   -2.2727    0.0000 F   0  0  0  0  0  0  0  0  0
    0.7651   -0.8437    0.0000 F   0  0  0  0  0  0  0  0  0
    1.8921   -1.1457    0.0000 C   0  0  0  0  0  0  0  0  0
    1.8921   -0.3207    0.0000 C   0  0  0  0  0  0  0  0  0
    2.6065    0.0918    0.0000 C   0  0  0  0  0  0  0  0  0
    3.3210   -0.3207    0.0000 C   0  0  0  0  0  0  0  0  0
    3.3210   -1.1457    0.0000 C   0  0  0  0  0  0  0  0  0
    2.6065   -1.5582    0.0000 C   0  0  0  0  0  0  0  0  0
    2.6065    0.9168    0.0000 C   0  0  0  0  0  0  0  0  0
    3.3210    1.3293    0.0000 C   0  0  0  0  0  0  0  0  0
    3.3210    2.1543    0.0000 N   0  0  0  0  0  0  0  0  0
    4.0355    0.9168    0.0000 C   0  0  0  0  0  0  0  0  0
  1  2  1  0  0  0  0
  2  3  1  0  0  0  0
  2  4  1  0  0  0  0
  2  5  1  0  0  0  0
  5  6  4  0  0  0  0
  5 10  4  0  0  0  0
  6  7  4  0  0  0  0
  7  8  4  0  0  0  0
  7 11  1  0  0  0  0
  8  9  4  0  0  0  0
  9 10  4  0  0  0  0
 11 12  1  0  0  0  0
 12 13  1  0  0  0  0
 12 14  1  0  0  0  0
M  END
>  <Name_Molregno>
Norfenfluramine

>  <5-HT1A>
5.77

>  <5-HT1B>
5.57

>  <5-HT1D>
5.88

>  <5-HT1E>
5

>  <5-HT3>
5

>  <5-HT5>
5

>  <5-HT6>
5

>  <5-HT7>
6.44

>  <Alpha-1A>
5.11

>  <Alpha-1B>
5

>  <Alpha-2A>
5.42

>  <Alpha-2B>
5.75

>  <Alpha-2C>
6.08

>  <Beta-1>
5

>  <Beta-2>
5

>  <DOPAMINE D1>
5

>  <DOPAMINE D2>
5

>  <DOPAMINE D4>
5

>  <DOPAMINE D5>
5

>  <Dopamine transporter>
5

>  <HISTAMINE H1>
5

>  <HISTAMINE H2>
5

>  <Muscarinic acetylcholine receptor M1>
5.42

>  <Muscarinic acetylcholine receptor M2>
5.24

>  <Muscarinic acetylcholine receptor M3>
6.04

>  <Muscarinic acetylcholine receptor M4>
5.31

>  <Muscarinic acetylcholine receptor M5>
5.78

>  <Norepinephrine transporter>
5

>  <Serotonin transporter>
5

$$$$
OLANZAPINE
  Marvin  02231216192D 0   1.00000     0.00000     0

 22 25  0  0  0  0  0  0  0  0999 V2000
   -1.5954    3.4952    0.0000 S   0  0  0  0  0  0  0  0  0
   -0.8919    3.0642    0.0000 C   0  0  0  0  0  0  0  0  0
   -0.1447    3.4138    0.0000 N   0  0  0  0  0  0  0  0  0
    0.5946    3.0476    0.0000 C   0  0  0  0  0  0  0  0  0
    0.7691    2.2413    0.0000 C   0  0  0  0  0  0  0  0  0
    0.2476    1.6020    0.0000 N   0  0  0  0  0  0  0  0  0
   -0.5774    1.6113    0.0000 C   0  0  0  0  0  0  0  0  0
   -0.9436    0.8720    0.0000 N   0  0  0  0  0  0  0  0  0
   -0.4865    0.1852    0.0000 C   0  0  0  0  0  0  0  0  0
   -0.8527   -0.5540    0.0000 C   0  0  0  0  0  0  0  0  0
   -1.6761   -0.6065    0.0000 N   0  0  0  0  0  0  0  0  0
   -2.1332    0.0803    0.0000 C   0  0  0  0  0  0  0  0  0
   -1.7669    0.8196    0.0000 C   0  0  0  0  0  0  0  0  0
   -2.0423   -1.3458    0.0000 C   0  0  0  0  0  0  0  0  0
   -1.0845    2.2620    0.0000 C   0  0  0  0  0  0  0  0  0
   -1.9069    2.1972    0.0000 C   0  0  0  0  0  0  0  0  0
   -2.2227    2.9594    0.0000 C   0  0  0  0  0  0  0  0  0
   -3.0249    3.1520    0.0000 C   0  0  0  0  0  0  0  0  0
    1.5547    1.9893    0.0000 C   0  0  0  0  0  0  0  0  0
    2.1657    2.5436    0.0000 C   0  0  0  0  0  0  0  0  0
    1.9912    3.3499    0.0000 C   0  0  0  0  0  0  0  0  0
    1.2056    3.6019    0.0000 C   0  0  0  0  0  0  0  0  0
  1  2  1  0  0  0  0
  1 17  1  0  0  0  0
  2  3  2  0  0  0  0
  2 15  1  0  0  0  0
  3  4  1  0  0  0  0
  4  5  4  0  0  0  0
  4 22  4  0  0  0  0
  5  6  1  0  0  0  0
  5 19  4  0  0  0  0
  6  7  1  0  0  0  0
  7  8  1  0  0  0  0
  7 15  2  0  0  0  0
  8  9  1  0  0  0  0
  8 13  1  0  0  0  0
  9 10  1  0  0  0  0
 10 11  1  0  0  0  0
 11 12  1  0  0  0  0
 11 14  1  0  0  0  0
 12 13  1  0  0  0  0
 15 16  1  0  0  0  0
 16 17  2  0  0  0  0
 17 18  1  0  0  0  0
 19 20  4  0  0  0  0
 20 21  4  0  0  0  0
 21 22  4  0  0  0  0
M  END
>  <Name_Molregno>
OLANZAPINE

>  <5-HT1A>
5.77

>  <5-HT1B>
6.23

>  <5-HT1D>
6.3

>  <5-HT1E>
5.66

>  <5-HT2A>
8.46

>  <5-HT2C>
7.86

>  <5-HT3>
6.69

>  <5-HT5>
5.92

>  <5-HT6>
7.97

>  <5-HT7>
6.73

>  <Alpha-1A>
6.95

>  <Alpha-1B>
6.58

>  <Alpha-2A>
6.51

>  <Alpha-2B>
6.97

>  <Alpha-2C>
7.21

>  <Beta-1>
5.15

>  <Beta-2>
5.15

>  <DOPAMINE D1>
7.3

>  <DOPAMINE D2>
7.67

>  <DOPAMINE D3>
7.53

>  <DOPAMINE D4>
7.73

>  <DOPAMINE D5>
7.09

>  <Dopamine transporter>
5

>  <HISTAMINE H1>
8.96

>  <HISTAMINE H2>
7.36

>  <HISTAMINE H4>
5

>  <Muscarinic acetylcholine receptor M1>
7.99

>  <Muscarinic acetylcholine receptor M2>
6.93

>  <Muscarinic acetylcholine receptor M3>
7.33

>  <Muscarinic acetylcholine receptor M4>
7.35

>  <Muscarinic acetylcholine receptor M5>
7.78

>  <Norepinephrine transporter>
5

>  <Serotonin transporter>
5.48

$$$$
ORG-5222
  Marvin  02231216192D 0   1.00000     0.00000     0

 20 23  0  0  1  0  0  0  0  0999 V2000
   -0.0754   -0.1702    0.0000 Cl  0  0  0  0  0  0  0  0  0
    0.7129   -0.4133    0.0000 C   0  0  0  0  0  0  0  0  0
    1.3177    0.1478    0.0000 C   0  0  0  0  0  0  0  0  0
    2.1060   -0.0954    0.0000 C   0  0  0  0  0  0  0  0  0
    2.6204    0.5496    0.0000 C   0  0  0  0  0  0  0  0  0
    3.4454    0.5496    0.0000 C   0  0  0  0  0  0  0  0  0
    3.9598   -0.0954    0.0000 C   0  0  0  0  0  0  0  0  0
    3.7762   -0.8997    0.0000 C   0  0  0  0  0  0  0  0  0
    3.0329   -1.2576    0.0000 O   0  0  0  0  0  0  0  0  0
    2.2896   -0.8997    0.0000 C   0  0  0  0  0  0  0  0  0
    1.6849   -1.4608    0.0000 C   0  0  0  0  0  0  0  0  0
    0.8965   -1.2176    0.0000 C   0  0  0  0  0  0  0  0  0
    4.3810   -1.4608    0.0000 C   0  0  0  0  0  0  0  0  0
    5.1693   -1.2176    0.0000 C   0  0  0  0  0  0  0  0  0
    5.3529   -0.4133    0.0000 C   0  0  0  0  0  0  0  0  0
    4.7482    0.1478    0.0000 C   0  0  0  0  0  0  0  0  0
    3.7004    1.3343    0.0000 C   0  0  0  0  0  0  0  0  0
    3.0329    1.8192    0.0000 N   0  0  0  0  0  0  0  0  0
    2.3655    1.3343    0.0000 C   0  0  0  0  0  0  0  0  0
    3.0329    2.6442    0.0000 C   0  0  0  0  0  0  0  0  0
  1  2  1  0  0  0  0
  2  3  4  0  0  0  0
  2 12  4  0  0  0  0
  3  4  4  0  0  0  0
  4  5  1  0  0  0  0
  4 10  4  0  0  0  0
  5  6  1  0  0  0  0
  5 19  1  0  0  0  0
  6  7  1  0  0  0  0
  6 17  1  0  0  0  0
  7  8  4  0  0  0  0
  7 16  4  0  0  0  0
  8  9  1  0  0  0  0
  8 13  4  0  0  0  0
  9 10  1  0  0  0  0
 10 11  4  0  0  0  0
 11 12  4  0  0  0  0
 13 14  4  0  0  0  0
 14 15  4  0  0  0  0
 15 16  4  0  0  0  0
 17 18  1  0  0  0  0
 18 19  1  0  0  0  0
 18 20  1  0  0  0  0
M  END
>  <Name_Molregno>
ORG-5222

>  <5-HT1A>
7.7

>  <5-HT1B>
8.34

>  <5-HT1D>
8.07

>  <5-HT1E>
7.69

>  <5-HT2A>
9.41

>  <5-HT2C>
9.63

>  <5-HT3>
6.35

>  <5-HT5>
8.4

>  <5-HT6>
8.85

>  <5-HT7>
9.05

>  <Alpha-1A>
8.36

>  <Alpha-1B>
8.41

>  <Alpha-2A>
8.08

>  <Alpha-2B>
8.64

>  <Alpha-2C>
7.82

>  <Beta-1>
5.3

>  <Beta-2>
5.3

>  <DOPAMINE D1>
8.54

>  <DOPAMINE D2>
8.72

>  <DOPAMINE D3>
8.74

>  <DOPAMINE D4>
8.58

>  <DOPAMINE D5>
7.64

>  <Dopamine transporter>
5.5

>  <HISTAMINE H1>
8.91

>  <HISTAMINE H2>
8.64

>  <HISTAMINE H4>
5

>  <Muscarinic acetylcholine receptor M1>
7.61

>  <Muscarinic acetylcholine receptor M2>
7.1

>  <Muscarinic acetylcholine receptor M3>
7.41

>  <Muscarinic acetylcholine receptor M4>
5

>  <Muscarinic acetylcholine receptor M5>
8.02

>  <Norepinephrine transporter>
5

>  <Serotonin transporter>
5.5

$$$$
PBR28
  Marvin  02231216192D 0   1.00000     0.00000     0

 26 28  0  0  0  0  0  0  0  0999 V2000
    0.4191    0.0796    0.0000 O   0  0  0  0  0  0  0  0  0
    0.4191   -0.7454    0.0000 C   0  0  0  0  0  0  0  0  0
    1.1336   -1.1579    0.0000 C   0  0  0  0  0  0  0  0  0
    1.1336   -1.9829    0.0000 C   0  0  0  0  0  0  0  0  0
    0.4191   -2.3954    0.0000 C   0  0  0  0  0  0  0  0  0
   -0.2953   -1.9829    0.0000 C   0  0  0  0  0  0  0  0  0
   -0.2953   -1.1579    0.0000 C   0  0  0  0  0  0  0  0  0
   -1.0098   -0.7454    0.0000 N   0  0  0  0  0  0  0  0  0
   -1.7243   -1.1579    0.0000 C   0  0  0  0  0  0  0  0  0
   -2.4387   -0.7454    0.0000 C   0  0  0  0  0  0  0  0  0
   -2.4387    0.0796    0.0000 C   0  0  0  0  0  0  0  0  0
   -3.1532    0.4921    0.0000 C   0  0  0  0  0  0  0  0  0
   -3.8677    0.0796    0.0000 C   0  0  0  0  0  0  0  0  0
   -3.8677   -0.7454    0.0000 C   0  0  0  0  0  0  0  0  0
   -3.1532   -1.1579    0.0000 C   0  0  0  0  0  0  0  0  0
   -3.1532   -1.9829    0.0000 O   0  0  0  0  0  0  0  0  0
   -3.8677   -2.3954    0.0000 C   0  0  0  0  0  0  0  0  0
   -1.0098    0.0796    0.0000 C   0  0  0  0  0  0  0  0  0
   -1.7243    0.4921    0.0000 O   0  0  0  0  0  0  0  0  0
   -0.2953    0.4921    0.0000 C   0  0  0  0  0  0  0  0  0
    1.1336    0.4921    0.0000 C   0  0  0  0  0  0  0  0  0
    1.1336    1.3171    0.0000 C   0  0  0  0  0  0  0  0  0
    1.8481    1.7296    0.0000 C   0  0  0  0  0  0  0  0  0
    2.5626    1.3171    0.0000 C   0  0  0  0  0  0  0  0  0
    2.5626    0.4921    0.0000 C   0  0  0  0  0  0  0  0  0
    1.8481    0.0796    0.0000 C   0  0  0  0  0  0  0  0  0
  1  2  1  0  0  0  0
  1 21  1  0  0  0  0
  2  3  4  0  0  0  0
  2  7  4  0  0  0  0
  3  4  4  0  0  0  0
  4  5  4  0  0  0  0
  5  6  4  0  0  0  0
  6  7  4  0  0  0  0
  7  8  1  0  0  0  0
  8  9  1  0  0  0  0
  8 18  1  0  0  0  0
  9 10  1  0  0  0  0
 10 11  4  0  0  0  0
 10 15  4  0  0  0  0
 11 12  4  0  0  0  0
 12 13  4  0  0  0  0
 13 14  4  0  0  0  0
 14 15  4  0  0  0  0
 15 16  1  0  0  0  0
 16 17  1  0  0  0  0
 18 19  2  0  0  0  0
 18 20  1  0  0  0  0
 21 22  4  0  0  0  0
 21 26  4  0  0  0  0
 22 23  4  0  0  0  0
 23 24  4  0  0  0  0
 24 25  4  0  0  0  0
 25 26  4  0  0  0  0
M  END
>  <Name_Molregno>
PBR28

>  <5-HT1A>
5

>  <5-HT1B>
5

>  <5-HT1D>
5

>  <5-HT1E>
5

>  <5-HT2A>
5

>  <5-HT3>
5

>  <5-HT5>
5

>  <5-HT6>
5

>  <5-HT7>
5

>  <Alpha-1A>
5

>  <Alpha-1B>
5

>  <Alpha-2A>
5

>  <Alpha-2B>
5

>  <Alpha-2C>
5

>  <Beta-1>
5

>  <Beta-2>
5

>  <DOPAMINE D1>
5

>  <DOPAMINE D2>
5

>  <DOPAMINE D4>
5

>  <Dopamine transporter>
5

>  <HISTAMINE H1>
5

>  <HISTAMINE H2>
5

>  <HISTAMINE H4>
5

>  <Muscarinic acetylcholine receptor M2>
5

>  <Muscarinic acetylcholine receptor M5>
5

>  <Norepinephrine transporter>
5

>  <Serotonin transporter>
5

$$$$
PERGOLIDE
  Marvin  02231216192D 0   1.00000     0.00000     0

 22 25  0  0  1  0  0  0  0  0999 V2000
    2.3775   -0.9399    0.0000 S   0  0  0  0  0  0  0  0  0
    1.6635   -0.5265    0.0000 C   0  0  0  0  0  0  0  0  0
    1.6645    0.2985    0.0000 C   0  0  0  0  0  0  0  0  0
    2.3795    0.7101    0.0000 C   0  0  0  0  0  0  0  0  0
    2.3805    1.5351    0.0000 C   0  0  0  0  0  0  0  0  0
    1.6665    1.9485    0.0000 C   0  0  0  0  0  0  0  0  0
    0.9515    1.5368    0.0000 N   0  0  0  0  0  0  0  0  0
    0.9505    0.7118    0.0000 C   0  0  0  0  0  0  0  0  0
    0.2376    1.9502    0.0000 C   0  0  0  0  0  0  0  0  0
   -0.4774    1.5385    0.0000 C   0  0  0  0  0  0  0  0  0
   -1.1914    1.9519    0.0000 C   0  0  0  0  0  0  0  0  0
    1.6680    2.7726    0.0000 C   0  0  0  0  0  0  0  0  0
    2.3805    3.1851    0.0000 C   0  0  0  0  0  0  0  0  0
    3.0930    2.7726    0.0000 C   0  0  0  0  0  0  0  0  0
    3.0930    1.9476    0.0000 C   0  0  0  0  0  0  0  0  0
    3.8108    1.5351    0.0000 C   0  0  0  0  0  0  0  0  0
    4.5233    1.9476    0.0000 C   0  0  0  0  0  0  0  0  0
    4.5233    2.7726    0.0000 C   0  0  0  0  0  0  0  0  0
    3.8108    3.1851    0.0000 C   0  0  0  0  0  0  0  0  0
    3.5055    4.0422    0.0000 N   0  0  0  0  0  0  0  0  0
    2.6805    4.0422    0.0000 C   0  0  0  0  0  0  0  0  0
    2.3765   -1.7649    0.0000 C   0  0  0  0  0  0  0  0  0
  1  2  1  0  0  0  0
  1 22  1  0  0  0  0
  2  3  1  0  0  0  0
  3  4  1  0  0  0  0
  3  8  1  0  0  0  0
  4  5  1  0  0  0  0
  5  6  1  0  0  0  0
  5 15  1  0  0  0  0
  6  7  1  0  0  0  0
  6 12  1  0  0  0  0
  7  8  1  0  0  0  0
  7  9  1  0  0  0  0
  9 10  1  0  0  0  0
 10 11  1  0  0  0  0
 12 13  1  0  0  0  0
 13 14  4  0  0  0  0
 13 21  4  0  0  0  0
 14 15  4  0  0  0  0
 14 19  4  0  0  0  0
 15 16  4  0  0  0  0
 16 17  4  0  0  0  0
 17 18  4  0  0  0  0
 18 19  4  0  0  0  0
 19 20  4  0  0  0  0
 20 21  4  0  0  0  0
M  STY  1   1 DAT
M  SAL   1  1  20
M  SDT   1 MRV_IMPLICIT_H                                        
M  SDD   1     0.0000    0.0000    DR    ALL  0       0  
M  SED   1 IMPL_H1
M  END
>  <Name_Molregno>
PERGOLIDE

>  <5-HT1A>
8.56

>  <5-HT1B>
6.55

>  <5-HT1D>
7.88

>  <5-HT2A>
8.08

>  <5-HT2C>
6.53

>  <Alpha-1A>
5.98

>  <Alpha-1B>
6.16

>  <Alpha-2A>
7.3

>  <Alpha-2B>
7.49

>  <Alpha-2C>
7.17

>  <Beta-1>
5

>  <Beta-2>
5

>  <DOPAMINE D1>
6.17

>  <DOPAMINE D2>
7.8

>  <DOPAMINE D3>
8.59

>  <DOPAMINE D4>
7.25

>  <DOPAMINE D5>
6.76

$$$$
PIPAMPERONE
  Marvin  02231216192D 0   1.00000     0.00000     0

 27 29  0  0  0  0  0  0  0  0999 V2000
    0.0224    0.7508    0.0000 F   0  0  0  0  0  0  0  0  0
    0.7369    0.3383    0.0000 C   0  0  0  0  0  0  0  0  0
    1.4513    0.7508    0.0000 C   0  0  0  0  0  0  0  0  0
    2.1658    0.3383    0.0000 C   0  0  0  0  0  0  0  0  0
    2.1658   -0.4867    0.0000 C   0  0  0  0  0  0  0  0  0
    1.4513   -0.8992    0.0000 C   0  0  0  0  0  0  0  0  0
    0.7369   -0.4867    0.0000 C   0  0  0  0  0  0  0  0  0
    2.8803   -0.8992    0.0000 C   0  0  0  0  0  0  0  0  0
    2.8803   -1.7242    0.0000 O   0  0  0  0  0  0  0  0  0
    3.5947   -0.4867    0.0000 C   0  0  0  0  0  0  0  0  0
    4.3092   -0.8992    0.0000 C   0  0  0  0  0  0  0  0  0
    5.0237   -0.4867    0.0000 C   0  0  0  0  0  0  0  0  0
    5.7382   -0.8992    0.0000 N   0  0  0  0  0  0  0  0  0
    6.4526   -0.4867    0.0000 C   0  0  0  0  0  0  0  0  0
    7.1671   -0.8992    0.0000 C   0  0  0  0  0  0  0  0  0
    7.1671   -1.7242    0.0000 C   0  0  0  0  0  0  0  0  0
    7.9796   -1.5809    0.0000 N   0  0  0  0  0  0  0  0  0
    8.2617   -0.8057    0.0000 C   0  0  0  0  0  0  0  0  0
    9.0742   -0.6624    0.0000 C   0  0  0  0  0  0  0  0  0
    9.6045   -1.2944    0.0000 C   0  0  0  0  0  0  0  0  0
    9.3223   -2.0696    0.0000 C   0  0  0  0  0  0  0  0  0
    8.5099   -2.2129    0.0000 C   0  0  0  0  0  0  0  0  0
    6.4526   -2.1367    0.0000 C   0  0  0  0  0  0  0  0  0
    5.7382   -1.7242    0.0000 C   0  0  0  0  0  0  0  0  0
    7.4493   -2.4994    0.0000 C   0  0  0  0  0  0  0  0  0
    6.9190   -3.1314    0.0000 O   0  0  0  0  0  0  0  0  0
    8.2617   -2.6427    0.0000 N   0  0  0  0  0  0  0  0  0
  1  2  1  0  0  0  0
  2  3  4  0  0  0  0
  2  7  4  0  0  0  0
  3  4  4  0  0  0  0
  4  5  4  0  0  0  0
  5  6  4  0  0  0  0
  5  8  1  0  0  0  0
  6  7  4  0  0  0  0
  8  9  2  0  0  0  0
  8 10  1  0  0  0  0
 10 11  1  0  0  0  0
 11 12  1  0  0  0  0
 12 13  1  0  0  0  0
 13 14  1  0  0  0  0
 13 24  1  0  0  0  0
 14 15  1  0  0  0  0
 15 16  1  0  0  0  0
 16 17  1  0  0  0  0
 16 23  1  0  0  0  0
 16 25  1  0  0  0  0
 17 18  1  0  0  0  0
 17 22  1  0  0  0  0
 18 19  1  0  0  0  0
 19 20  1  0  0  0  0
 20 21  1  0  0  0  0
 21 22  1  0  0  0  0
 23 24  1  0  0  0  0
 25 26  2  0  0  0  0
 25 27  1  0  0  0  0
M  END
>  <Name_Molregno>
PIPAMPERONE

>  <5-HT1A>
5.56

>  <5-HT1B>
6.8

>  <5-HT1D>
6.19

>  <5-HT1E>
5.3

>  <5-HT2A>
8.21

>  <5-HT2C>
6.64

>  <Alpha-2A>
6.07

>  <Alpha-2B>
7.46

>  <Alpha-2C>
6.54

>  <Beta-1>
5.3

>  <Beta-2>
5.3

>  <DOPAMINE D2>
6.94

>  <DOPAMINE D3>
6.6

>  <DOPAMINE D4>
8.29

>  <HISTAMINE H1>
5.62

>  <Serotonin transporter>
6

$$$$
Piribedil
  Marvin  02231216192D 0   1.00000     0.00000     0

 22 25  0  0  0  0  0  0  0  0999 V2000
   -6.9931    0.7446    0.0000 O   0  0  0  0  0  0  0  0  0
   -6.2084    0.4897    0.0000 C   0  0  0  0  0  0  0  0  0
   -5.4940    0.9022    0.0000 C   0  0  0  0  0  0  0  0  0
   -4.7795    0.4897    0.0000 C   0  0  0  0  0  0  0  0  0
   -4.7795   -0.3353    0.0000 C   0  0  0  0  0  0  0  0  0
   -5.4940   -0.7478    0.0000 C   0  0  0  0  0  0  0  0  0
   -6.2084   -0.3353    0.0000 C   0  0  0  0  0  0  0  0  0
   -6.9931   -0.5902    0.0000 O   0  0  0  0  0  0  0  0  0
   -7.4780    0.0772    0.0000 C   0  0  0  0  0  0  0  0  0
   -4.0650    0.9022    0.0000 C   0  0  0  0  0  0  0  0  0
   -3.3506    0.4897    0.0000 N   0  0  0  0  0  0  0  0  0
   -2.6361    0.9022    0.0000 C   0  0  0  0  0  0  0  0  0
   -1.9216    0.4897    0.0000 C   0  0  0  0  0  0  0  0  0
   -1.9216   -0.3353    0.0000 N   0  0  0  0  0  0  0  0  0
   -2.6361   -0.7478    0.0000 C   0  0  0  0  0  0  0  0  0
   -3.3506   -0.3353    0.0000 C   0  0  0  0  0  0  0  0  0
   -1.2071   -0.7478    0.0000 C   0  0  0  0  0  0  0  0  0
   -0.4927   -0.3353    0.0000 N   0  0  0  0  0  0  0  0  0
    0.2218   -0.7478    0.0000 C   0  0  0  0  0  0  0  0  0
    0.2218   -1.5728    0.0000 C   0  0  0  0  0  0  0  0  0
   -0.4927   -1.9853    0.0000 C   0  0  0  0  0  0  0  0  0
   -1.2071   -1.5728    0.0000 N   0  0  0  0  0  0  0  0  0
  1  2  1  0  0  0  0
  1  9  1  0  0  0  0
  2  3  4  0  0  0  0
  2  7  4  0  0  0  0
  3  4  4  0  0  0  0
  4  5  4  0  0  0  0
  4 10  1  0  0  0  0
  5  6  4  0  0  0  0
  6  7  4  0  0  0  0
  7  8  1  0  0  0  0
  8  9  1  0  0  0  0
 10 11  1  0  0  0  0
 11 12  1  0  0  0  0
 11 16  1  0  0  0  0
 12 13  1  0  0  0  0
 13 14  1  0  0  0  0
 14 15  1  0  0  0  0
 14 17  1  0  0  0  0
 15 16  1  0  0  0  0
 17 18  4  0  0  0  0
 17 22  4  0  0  0  0
 18 19  4  0  0  0  0
 19 20  4  0  0  0  0
 20 21  4  0  0  0  0
 21 22  4  0  0  0  0
M  END
>  <Name_Molregno>
Piribedil

>  <5-HT1A>
6.35

>  <5-HT1B>
5

>  <5-HT1D>
5

>  <5-HT2A>
5

>  <5-HT2C>
5

>  <Alpha-1A>
6.09

>  <Alpha-1B>
5.21

>  <Alpha-2A>
7.05

>  <Alpha-2B>
6.54

>  <Alpha-2C>
7.16

>  <Beta-1>
5

>  <Beta-2>
5

>  <DOPAMINE D1>
5

>  <DOPAMINE D2>
6.88

>  <DOPAMINE D3>
6.63

>  <DOPAMINE D4>
6.51

>  <DOPAMINE D5>
5

>  <Norepinephrine transporter>
5

$$$$
Propanolol
  Marvin  02231216192D 0   1.00000     0.00000     0

 19 20  0  0  1  0  0  0  0  0999 V2000
   -0.0029    0.3857    0.0000 O   0  0  0  0  0  0  0  0  0
    0.7115   -0.0268    0.0000 C   0  0  0  0  0  0  0  0  0
    1.4260    0.3857    0.0000 C   0  0  0  0  0  0  0  0  0
    1.4260    1.2107    0.0000 O   0  0  0  0  0  0  0  0  0
    2.1405   -0.0268    0.0000 C   0  0  0  0  0  0  0  0  0
    2.8550    0.3857    0.0000 N   0  0  0  0  0  0  0  0  0
    3.5694   -0.0268    0.0000 C   0  0  0  0  0  0  0  0  0
    4.2839    0.3857    0.0000 C   0  0  0  0  0  0  0  0  0
    3.5694   -0.8518    0.0000 C   0  0  0  0  0  0  0  0  0
   -0.7174   -0.0268    0.0000 C   0  0  0  0  0  0  0  0  0
   -1.4319    0.3857    0.0000 C   0  0  0  0  0  0  0  0  0
   -2.1463   -0.0268    0.0000 C   0  0  0  0  0  0  0  0  0
   -2.1463   -0.8518    0.0000 C   0  0  0  0  0  0  0  0  0
   -1.4319   -1.2643    0.0000 C   0  0  0  0  0  0  0  0  0
   -0.7174   -0.8518    0.0000 C   0  0  0  0  0  0  0  0  0
   -2.8608    0.3857    0.0000 C   0  0  0  0  0  0  0  0  0
   -2.8608    1.2107    0.0000 C   0  0  0  0  0  0  0  0  0
   -2.1463    1.6232    0.0000 C   0  0  0  0  0  0  0  0  0
   -1.4319    1.2107    0.0000 C   0  0  0  0  0  0  0  0  0
  1  2  1  0  0  0  0
  1 10  1  0  0  0  0
  2  3  1  0  0  0  0
  3  4  1  0  0  0  0
  3  5  1  0  0  0  0
  5  6  1  0  0  0  0
  6  7  1  0  0  0  0
  7  8  1  0  0  0  0
  7  9  1  0  0  0  0
 10 11  4  0  0  0  0
 10 15  4  0  0  0  0
 11 12  4  0  0  0  0
 11 19  4  0  0  0  0
 12 13  4  0  0  0  0
 12 16  4  0  0  0  0
 13 14  4  0  0  0  0
 14 15  4  0  0  0  0
 16 17  4  0  0  0  0
 17 18  4  0  0  0  0
 18 19  4  0  0  0  0
M  END
>  <Name_Molregno>
Propanolol

>  <5-HT1A>
6.57

>  <5-HT1B>
5.87

>  <5-HT1D>
5.35

>  <5-HT2A>
5.3

>  <5-HT3>
5

>  <Beta-1>
9.34

>  <Beta-2>
9.68

>  <DOPAMINE D1>
5

>  <DOPAMINE D2>
5

>  <HISTAMINE H1>
5

$$$$
Prucalopride
  Marvin  02231216192D 0   1.00000     0.00000     0

 25 27  0  0  0  0  0  0  0  0999 V2000
   -0.3739   -1.3965    0.0000 Cl  0  0  0  0  0  0  0  0  0
    0.3406   -1.8090    0.0000 C   0  0  0  0  0  0  0  0  0
    1.0551   -1.3965    0.0000 C   0  0  0  0  0  0  0  0  0
    1.7696   -1.8090    0.0000 C   0  0  0  0  0  0  0  0  0
    1.7696   -2.6340    0.0000 C   0  0  0  0  0  0  0  0  0
    2.3827   -3.1861    0.0000 O   0  0  0  0  0  0  0  0  0
    2.0471   -3.9397    0.0000 C   0  0  0  0  0  0  0  0  0
    1.2266   -3.8535    0.0000 C   0  0  0  0  0  0  0  0  0
    1.0551   -3.0465    0.0000 C   0  0  0  0  0  0  0  0  0
    0.3406   -2.6340    0.0000 C   0  0  0  0  0  0  0  0  0
   -0.3739   -3.0465    0.0000 N   0  0  0  0  0  0  0  0  0
    2.4840   -1.3965    0.0000 C   0  0  0  0  0  0  0  0  0
    3.1985   -1.8090    0.0000 O   0  0  0  0  0  0  0  0  0
    2.4840   -0.5715    0.0000 N   0  0  0  0  0  0  0  0  0
    3.1985   -0.1590    0.0000 C   0  0  0  0  0  0  0  0  0
    3.1985    0.6660    0.0000 C   0  0  0  0  0  0  0  0  0
    3.9130    1.0785    0.0000 C   0  0  0  0  0  0  0  0  0
    4.6274    0.6660    0.0000 N   0  0  0  0  0  0  0  0  0
    4.6274   -0.1590    0.0000 C   0  0  0  0  0  0  0  0  0
    3.9130   -0.5715    0.0000 C   0  0  0  0  0  0  0  0  0
    5.3419    1.0785    0.0000 C   0  0  0  0  0  0  0  0  0
    6.0564    0.6660    0.0000 C   0  0  0  0  0  0  0  0  0
    6.7709    1.0785    0.0000 C   0  0  0  0  0  0  0  0  0
    7.4853    0.6660    0.0000 O   0  0  0  0  0  0  0  0  0
    8.1998    1.0785    0.0000 C   0  0  0  0  0  0  0  0  0
  1  2  1  0  0  0  0
  2  3  4  0  0  0  0
  2 10  4  0  0  0  0
  3  4  4  0  0  0  0
  4  5  4  0  0  0  0
  4 12  1  0  0  0  0
  5  6  1  0  0  0  0
  5  9  4  0  0  0  0
  6  7  1  0  0  0  0
  7  8  1  0  0  0  0
  8  9  1  0  0  0  0
  9 10  4  0  0  0  0
 10 11  1  0  0  0  0
 12 13  2  0  0  0  0
 12 14  1  0  0  0  0
 14 15  1  0  0  0  0
 15 16  1  0  0  0  0
 15 20  1  0  0  0  0
 16 17  1  0  0  0  0
 17 18  1  0  0  0  0
 18 19  1  0  0  0  0
 18 21  1  0  0  0  0
 19 20  1  0  0  0  0
 21 22  1  0  0  0  0
 22 23  1  0  0  0  0
 23 24  1  0  0  0  0
 24 25  1  0  0  0  0
M  END
>  <Name_Molregno>
Prucalopride

>  <5-HT1A>
5

>  <5-HT1B>
5

>  <5-HT1D>
5

>  <5-HT1E>
5

>  <5-HT2A>
5

>  <5-HT2C>
5

>  <5-HT5>
5

>  <5-HT6>
5

>  <5-HT7>
5

>  <Alpha-2A>
5

>  <Alpha-2B>
5

>  <Alpha-2C>
5

>  <Beta-1>
5

>  <Beta-2>
5

>  <DOPAMINE D2>
5

>  <DOPAMINE D3>
5

>  <DOPAMINE D4>
5.63

>  <HISTAMINE H1>
5

>  <Serotonin transporter>
5

$$$$
QUETIAPINE
  Marvin  02231216192D 0   1.00000     0.00000     0

 27 30  0  0  0  0  0  0  0  0999 V2000
    0.4015    1.2563    0.0000 S   0  0  0  0  0  0  0  0  0
    1.2173    1.3793    0.0000 C   0  0  0  0  0  0  0  0  0
    1.8221    0.8181    0.0000 C   0  0  0  0  0  0  0  0  0
    2.6104    1.0613    0.0000 C   0  0  0  0  0  0  0  0  0
    2.7940    1.8656    0.0000 C   0  0  0  0  0  0  0  0  0
    2.1892    2.4268    0.0000 C   0  0  0  0  0  0  0  0  0
    1.4009    2.1836    0.0000 C   0  0  0  0  0  0  0  0  0
    1.7604   -0.0046    0.0000 C   0  0  0  0  0  0  0  0  0
    1.0788   -0.4693    0.0000 N   0  0  0  0  0  0  0  0  0
    0.2904   -0.2261    0.0000 C   0  0  0  0  0  0  0  0  0
   -0.0110    0.5418    0.0000 C   0  0  0  0  0  0  0  0  0
   -0.8268    0.6648    0.0000 C   0  0  0  0  0  0  0  0  0
   -1.3412    0.0198    0.0000 C   0  0  0  0  0  0  0  0  0
   -1.0398   -0.7482    0.0000 C   0  0  0  0  0  0  0  0  0
   -0.2240   -0.8711    0.0000 C   0  0  0  0  0  0  0  0  0
    2.4749   -0.4171    0.0000 N   0  0  0  0  0  0  0  0  0
    3.1893   -0.0046    0.0000 C   0  0  0  0  0  0  0  0  0
    3.9038   -0.4171    0.0000 C   0  0  0  0  0  0  0  0  0
    3.9038   -1.2421    0.0000 N   0  0  0  0  0  0  0  0  0
    3.1893   -1.6546    0.0000 C   0  0  0  0  0  0  0  0  0
    2.4749   -1.2421    0.0000 C   0  0  0  0  0  0  0  0  0
    4.6183   -1.6546    0.0000 C   0  0  0  0  0  0  0  0  0
    5.3328   -1.2421    0.0000 C   0  0  0  0  0  0  0  0  0
    6.0472   -1.6546    0.0000 O   0  0  0  0  0  0  0  0  0
    6.7617   -1.2421    0.0000 C   0  0  0  0  0  0  0  0  0
    7.4762   -1.6546    0.0000 C   0  0  0  0  0  0  0  0  0
    8.1906   -1.2421    0.0000 O   0  0  0  0  0  0  0  0  0
  1  2  1  0  0  0  0
  1 11  1  0  0  0  0
  2  3  4  0  0  0  0
  2  7  4  0  0  0  0
  3  4  4  0  0  0  0
  3  8  1  0  0  0  0
  4  5  4  0  0  0  0
  5  6  4  0  0  0  0
  6  7  4  0  0  0  0
  8  9  2  0  0  0  0
  8 16  1  0  0  0  0
  9 10  1  0  0  0  0
 10 11  4  0  0  0  0
 10 15  4  0  0  0  0
 11 12  4  0  0  0  0
 12 13  4  0  0  0  0
 13 14  4  0  0  0  0
 14 15  4  0  0  0  0
 16 17  1  0  0  0  0
 16 21  1  0  0  0  0
 17 18  1  0  0  0  0
 18 19  1  0  0  0  0
 19 20  1  0  0  0  0
 19 22  1  0  0  0  0
 20 21  1  0  0  0  0
 22 23  1  0  0  0  0
 23 24  1  0  0  0  0
 24 25  1  0  0  0  0
 25 26  1  0  0  0  0
 26 27  1  0  0  0  0
M  END
>  <Name_Molregno>
QUETIAPINE

>  <5-HT1A>
6.59

>  <5-HT1B>
5.83

>  <5-HT1D>
5.52

>  <5-HT1E>
5.76

>  <5-HT2A>
6.76

>  <5-HT2C>
5.82

>  <5-HT3>
5

>  <5-HT5>
5.51

>  <5-HT6>
6.35

>  <5-HT7>
6.74

>  <Alpha-1A>
7.66

>  <Alpha-1B>
7.41

>  <Alpha-2A>
5.51

>  <Alpha-2B>
6.44

>  <Alpha-2C>
7.18

>  <Beta-1>
5.15

>  <Beta-2>
5.15

>  <DOPAMINE D1>
5.95

>  <DOPAMINE D2>
6.51

>  <DOPAMINE D3>
6.59

>  <DOPAMINE D4>
5.77

>  <DOPAMINE D5>
5.79

>  <Dopamine transporter>
5

>  <HISTAMINE H1>
8.1

>  <HISTAMINE H2>
5

>  <HISTAMINE H4>
5

>  <Muscarinic acetylcholine receptor M1>
6.71

>  <Muscarinic acetylcholine receptor M2>
6.03

>  <Muscarinic acetylcholine receptor M3>
5.69

>  <Muscarinic acetylcholine receptor M4>
6.5

>  <Muscarinic acetylcholine receptor M5>
5.58

>  <Norepinephrine transporter>
5

>  <Serotonin transporter>
5.18

$$$$
RISPERIDONE
  Marvin  02231216192D 0   1.00000     0.00000     0

 30 34  0  0  0  0  0  0  0  0999 V2000
    1.8325   -2.9394    0.0000 F   0  0  0  0  0  0  0  0  0
    2.0875   -2.1548    0.0000 C   0  0  0  0  0  0  0  0  0
    1.5354   -1.5417    0.0000 C   0  0  0  0  0  0  0  0  0
    1.7904   -0.7571    0.0000 C   0  0  0  0  0  0  0  0  0
    1.3779   -0.0426    0.0000 O   0  0  0  0  0  0  0  0  0
    1.9299    0.5705    0.0000 N   0  0  0  0  0  0  0  0  0
    2.6836    0.2349    0.0000 C   0  0  0  0  0  0  0  0  0
    2.5974   -0.5856    0.0000 C   0  0  0  0  0  0  0  0  0
    3.1494   -1.1987    0.0000 C   0  0  0  0  0  0  0  0  0
    2.8945   -1.9833    0.0000 C   0  0  0  0  0  0  0  0  0
    3.3981    0.6474    0.0000 C   0  0  0  0  0  0  0  0  0
    3.3981    1.4724    0.0000 C   0  0  0  0  0  0  0  0  0
    4.1125    1.8849    0.0000 C   0  0  0  0  0  0  0  0  0
    4.8270    1.4724    0.0000 N   0  0  0  0  0  0  0  0  0
    4.8270    0.6474    0.0000 C   0  0  0  0  0  0  0  0  0
    4.1125    0.2349    0.0000 C   0  0  0  0  0  0  0  0  0
    5.5415    1.8849    0.0000 C   0  0  0  0  0  0  0  0  0
    6.2559    1.4724    0.0000 C   0  0  0  0  0  0  0  0  0
    6.9704    1.8849    0.0000 C   0  0  0  0  0  0  0  0  0
    7.6849    1.4724    0.0000 C   0  0  0  0  0  0  0  0  0
    7.6849    0.6474    0.0000 O   0  0  0  0  0  0  0  0  0
    8.3994    1.8849    0.0000 N   0  0  0  0  0  0  0  0  0
    8.3994    2.7099    0.0000 C   0  0  0  0  0  0  0  0  0
    7.6849    3.1224    0.0000 N   0  0  0  0  0  0  0  0  0
    6.9704    2.7099    0.0000 C   0  0  0  0  0  0  0  0  0
    6.2559    3.1224    0.0000 C   0  0  0  0  0  0  0  0  0
    9.1138    3.1224    0.0000 C   0  0  0  0  0  0  0  0  0
    9.8283    2.7099    0.0000 C   0  0  0  0  0  0  0  0  0
    9.8283    1.8849    0.0000 C   0  0  0  0  0  0  0  0  0
    9.1138    1.4724    0.0000 C   0  0  0  0  0  0  0  0  0
  1  2  1  0  0  0  0
  2  3  4  0  0  0  0
  2 10  4  0  0  0  0
  3  4  4  0  0  0  0
  4  5  4  0  0  0  0
  4  8  4  0  0  0  0
  5  6  4  0  0  0  0
  6  7  4  0  0  0  0
  7  8  4  0  0  0  0
  7 11  1  0  0  0  0
  8  9  4  0  0  0  0
  9 10  4  0  0  0  0
 11 12  1  0  0  0  0
 11 16  1  0  0  0  0
 12 13  1  0  0  0  0
 13 14  1  0  0  0  0
 14 15  1  0  0  0  0
 14 17  1  0  0  0  0
 15 16  1  0  0  0  0
 17 18  1  0  0  0  0
 18 19  1  0  0  0  0
 19 20  1  0  0  0  0
 19 25  2  0  0  0  0
 20 21  2  0  0  0  0
 20 22  1  0  0  0  0
 22 23  1  0  0  0  0
 22 30  1  0  0  0  0
 23 24  2  0  0  0  0
 23 27  1  0  0  0  0
 24 25  1  0  0  0  0
 25 26  1  0  0  0  0
 27 28  1  0  0  0  0
 28 29  1  0  0  0  0
 29 30  1  0  0  0  0
M  END
>  <Name_Molregno>
RISPERIDONE

>  <5-HT1A>
6.52

>  <5-HT1B>
7.66

>  <5-HT1D>
7.6

>  <5-HT1E>
5.44

>  <5-HT2A>
9.35

>  <5-HT2C>
7.74

>  <5-HT3>
5

>  <5-HT5>
6.69

>  <5-HT6>
5.7

>  <5-HT7>
8.4

>  <Alpha-1A>
8.38

>  <Alpha-1B>
8.05

>  <Alpha-2A>
7.46

>  <Alpha-2B>
7.34

>  <Alpha-2C>
8.56

>  <Beta-1>
5.15

>  <Beta-2>
5.15

>  <DOPAMINE D1>
6.61

>  <DOPAMINE D2>
8.58

>  <DOPAMINE D3>
8.17

>  <DOPAMINE D4>
8.17

>  <DOPAMINE D5>
7.03

>  <Dopamine transporter>
5

>  <HISTAMINE H1>
7.79

>  <HISTAMINE H2>
6.92

>  <HISTAMINE H4>
5

>  <Muscarinic acetylcholine receptor M1>
5.22

>  <Muscarinic acetylcholine receptor M2>
5.14

>  <Muscarinic acetylcholine receptor M3>
5

>  <Muscarinic acetylcholine receptor M4>
5.18

>  <Muscarinic acetylcholine receptor M5>
5

>  <Norepinephrine transporter>
5

>  <Serotonin transporter>
5.67

$$$$
Ropinirole
  Marvin  02231216192D 0   1.00000     0.00000     0

 19 20  0  0  0  0  0  0  0  0999 V2000
    0.9619   -1.7047    0.0000 O   0  0  0  0  0  0  0  0  0
    1.7869   -1.7047    0.0000 C   0  0  0  0  0  0  0  0  0
    2.2718   -2.3721    0.0000 N   0  0  0  0  0  0  0  0  0
    3.0565   -2.1172    0.0000 C   0  0  0  0  0  0  0  0  0
    3.0565   -1.2922    0.0000 C   0  0  0  0  0  0  0  0  0
    2.2718   -1.0372    0.0000 C   0  0  0  0  0  0  0  0  0
    3.7709   -0.8797    0.0000 C   0  0  0  0  0  0  0  0  0
    4.4854   -1.2922    0.0000 C   0  0  0  0  0  0  0  0  0
    4.4854   -2.1172    0.0000 C   0  0  0  0  0  0  0  0  0
    3.7709   -2.5297    0.0000 C   0  0  0  0  0  0  0  0  0
    3.7709   -0.0547    0.0000 C   0  0  0  0  0  0  0  0  0
    3.0565    0.3578    0.0000 C   0  0  0  0  0  0  0  0  0
    3.0565    1.1828    0.0000 N   0  0  0  0  0  0  0  0  0
    2.3420    1.5953    0.0000 C   0  0  0  0  0  0  0  0  0
    2.3420    2.4203    0.0000 C   0  0  0  0  0  0  0  0  0
    1.6275    2.8328    0.0000 C   0  0  0  0  0  0  0  0  0
    3.7709    1.5953    0.0000 C   0  0  0  0  0  0  0  0  0
    3.7709    2.4203    0.0000 C   0  0  0  0  0  0  0  0  0
    4.4854    2.8328    0.0000 C   0  0  0  0  0  0  0  0  0
  1  2  2  0  0  0  0
  2  3  1  0  0  0  0
  2  6  1  0  0  0  0
  3  4  1  0  0  0  0
  4  5  4  0  0  0  0
  4 10  4  0  0  0  0
  5  6  1  0  0  0  0
  5  7  4  0  0  0  0
  7  8  4  0  0  0  0
  7 11  1  0  0  0  0
  8  9  4  0  0  0  0
  9 10  4  0  0  0  0
 11 12  1  0  0  0  0
 12 13  1  0  0  0  0
 13 14  1  0  0  0  0
 13 17  1  0  0  0  0
 14 15  1  0  0  0  0
 15 16  1  0  0  0  0
 17 18  1  0  0  0  0
 18 19  1  0  0  0  0
M  END
>  <Name_Molregno>
Ropinirole

>  <5-HT1A>
6.28

>  <5-HT1B>
5

>  <5-HT1D>
5.86

>  <5-HT2A>
5

>  <5-HT2C>
5

>  <5-HT5>
5

>  <5-HT6>
5

>  <5-HT7>
5.82

>  <Alpha-1A>
5

>  <Alpha-1B>
5

>  <Alpha-2A>
5.73

>  <Alpha-2B>
6.12

>  <Alpha-2C>
5.92

>  <Beta-1>
5

>  <Beta-2>
5

>  <DOPAMINE D1>
5

>  <DOPAMINE D2>
6.45

>  <DOPAMINE D3>
7.5

>  <DOPAMINE D4>
6.07

>  <DOPAMINE D5>
5

$$$$
Roxindole
  Marvin  02231216192D 0   1.00000     0.00000     0

 26 29  0  0  0  0  0  0  0  0999 V2000
   -0.4898   -0.6830    0.0000 O   0  0  0  0  0  0  0  0  0
   -1.2043   -0.2705    0.0000 C   0  0  0  0  0  0  0  0  0
   -1.9188   -0.6830    0.0000 C   0  0  0  0  0  0  0  0  0
   -2.6332   -0.2705    0.0000 C   0  0  0  0  0  0  0  0  0
   -2.6332    0.5545    0.0000 C   0  0  0  0  0  0  0  0  0
   -3.4179    0.8095    0.0000 N   0  0  0  0  0  0  0  0  0
   -3.9028    0.1420    0.0000 C   0  0  0  0  0  0  0  0  0
   -3.4179   -0.5254    0.0000 C   0  0  0  0  0  0  0  0  0
   -3.6728   -1.3100    0.0000 C   0  0  0  0  0  0  0  0  0
   -3.1208   -1.9231    0.0000 C   0  0  0  0  0  0  0  0  0
   -3.3757   -2.7077    0.0000 C   0  0  0  0  0  0  0  0  0
   -2.8237   -3.3208    0.0000 C   0  0  0  0  0  0  0  0  0
   -3.0786   -4.1055    0.0000 N   0  0  0  0  0  0  0  0  0
   -2.5266   -4.7185    0.0000 C   0  0  0  0  0  0  0  0  0
   -2.7815   -5.5032    0.0000 C   0  0  0  0  0  0  0  0  0
   -3.5885   -5.6747    0.0000 C   0  0  0  0  0  0  0  0  0
   -4.1405   -5.0616    0.0000 C   0  0  0  0  0  0  0  0  0
   -3.8856   -4.2770    0.0000 C   0  0  0  0  0  0  0  0  0
   -3.8434   -6.4593    0.0000 C   0  0  0  0  0  0  0  0  0
   -3.2914   -7.0724    0.0000 C   0  0  0  0  0  0  0  0  0
   -3.5463   -7.8570    0.0000 C   0  0  0  0  0  0  0  0  0
   -4.3533   -8.0286    0.0000 C   0  0  0  0  0  0  0  0  0
   -4.9053   -7.4155    0.0000 C   0  0  0  0  0  0  0  0  0
   -4.6504   -6.6308    0.0000 C   0  0  0  0  0  0  0  0  0
   -1.9188    0.9670    0.0000 C   0  0  0  0  0  0  0  0  0
   -1.2043    0.5545    0.0000 C   0  0  0  0  0  0  0  0  0
  1  2  1  0  0  0  0
  2  3  4  0  0  0  0
  2 26  4  0  0  0  0
  3  4  4  0  0  0  0
  4  5  4  0  0  0  0
  4  8  4  0  0  0  0
  5  6  4  0  0  0  0
  5 25  4  0  0  0  0
  6  7  4  0  0  0  0
  7  8  4  0  0  0  0
  8  9  1  0  0  0  0
  9 10  1  0  0  0  0
 10 11  1  0  0  0  0
 11 12  1  0  0  0  0
 12 13  1  0  0  0  0
 13 14  1  0  0  0  0
 13 18  1  0  0  0  0
 14 15  1  0  0  0  0
 15 16  1  0  0  0  0
 16 17  2  0  0  0  0
 16 19  1  0  0  0  0
 17 18  1  0  0  0  0
 19 20  4  0  0  0  0
 19 24  4  0  0  0  0
 20 21  4  0  0  0  0
 21 22  4  0  0  0  0
 22 23  4  0  0  0  0
 23 24  4  0  0  0  0
 25 26  4  0  0  0  0
M  STY  1   1 DAT
M  SAL   1  1   6
M  SDT   1 MRV_IMPLICIT_H                                        
M  SDD   1     0.0000    0.0000    DR    ALL  0       0  
M  SED   1 IMPL_H1
M  END
>  <Name_Molregno>
Roxindole

>  <5-HT1A>
9.94

>  <5-HT1D>
7.2

>  <5-HT2A>
8.18

>  <5-HT2C>
6.51

>  <Alpha-1A>
8.59

>  <Alpha-1B>
8.55

>  <Alpha-2A>
8.21

>  <Alpha-2B>
8.34

>  <Alpha-2C>
8.75

>  <Beta-1>
5.57

>  <Beta-2>
6.03

>  <DOPAMINE D1>
6.33

>  <DOPAMINE D2>
8.45

>  <DOPAMINE D3>
8.93

>  <DOPAMINE D4>
8.23

>  <DOPAMINE D5>
6.72

$$$$
SALMETEROL
  Marvin  02231216192D 0   1.00000     0.00000     0

 30 31  0  0  1  0  0  0  0  0999 V2000
   -0.3266    3.4775    0.0000 O   0  0  0  0  0  0  0  0  0
    0.3878    3.0650    0.0000 C   0  0  0  0  0  0  0  0  0
    1.1023    3.4775    0.0000 C   0  0  0  0  0  0  0  0  0
    1.8168    3.0650    0.0000 C   0  0  0  0  0  0  0  0  0
    1.8168    2.2400    0.0000 C   0  0  0  0  0  0  0  0  0
    1.1023    1.8275    0.0000 C   0  0  0  0  0  0  0  0  0
    0.3878    2.2400    0.0000 C   0  0  0  0  0  0  0  0  0
   -0.3266    1.8275    0.0000 C   0  0  0  0  0  0  0  0  0
   -0.3266    1.0025    0.0000 O   0  0  0  0  0  0  0  0  0
    2.5313    1.8275    0.0000 C   0  0  0  0  0  0  0  0  0
    2.5313    1.0025    0.0000 O   0  0  0  0  0  0  0  0  0
    3.2457    2.2400    0.0000 C   0  0  0  0  0  0  0  0  0
    3.9602    1.8275    0.0000 N   0  0  0  0  0  0  0  0  0
    4.6747    2.2400    0.0000 C   0  0  0  0  0  0  0  0  0
    5.3891    1.8275    0.0000 C   0  0  0  0  0  0  0  0  0
    6.1036    2.2400    0.0000 C   0  0  0  0  0  0  0  0  0
    6.8181    1.8275    0.0000 C   0  0  0  0  0  0  0  0  0
    7.5326    2.2400    0.0000 C   0  0  0  0  0  0  0  0  0
    8.2470    1.8275    0.0000 C   0  0  0  0  0  0  0  0  0
    8.9615    2.2400    0.0000 O   0  0  0  0  0  0  0  0  0
    9.6760    1.8275    0.0000 C   0  0  0  0  0  0  0  0  0
   10.3904    2.2400    0.0000 C   0  0  0  0  0  0  0  0  0
   11.1049    1.8275    0.0000 C   0  0  0  0  0  0  0  0  0
   11.8194    2.2400    0.0000 C   0  0  0  0  0  0  0  0  0
   12.5339    1.8275    0.0000 C   0  0  0  0  0  0  0  0  0
   13.2483    2.2400    0.0000 C   0  0  0  0  0  0  0  0  0
   13.9628    1.8275    0.0000 C   0  0  0  0  0  0  0  0  0
   13.9628    1.0025    0.0000 C   0  0  0  0  0  0  0  0  0
   13.2483    0.5900    0.0000 C   0  0  0  0  0  0  0  0  0
   12.5339    1.0025    0.0000 C   0  0  0  0  0  0  0  0  0
  1  2  1  0  0  0  0
  2  3  4  0  0  0  0
  2  7  4  0  0  0  0
  3  4  4  0  0  0  0
  4  5  4  0  0  0  0
  5  6  4  0  0  0  0
  5 10  1  0  0  0  0
  6  7  4  0  0  0  0
  7  8  1  0  0  0  0
  8  9  1  0  0  0  0
 10 11  1  0  0  0  0
 10 12  1  0  0  0  0
 12 13  1  0  0  0  0
 13 14  1  0  0  0  0
 14 15  1  0  0  0  0
 15 16  1  0  0  0  0
 16 17  1  0  0  0  0
 17 18  1  0  0  0  0
 18 19  1  0  0  0  0
 19 20  1  0  0  0  0
 20 21  1  0  0  0  0
 21 22  1  0  0  0  0
 22 23  1  0  0  0  0
 23 24  1  0  0  0  0
 24 25  1  0  0  0  0
 25 26  4  0  0  0  0
 25 30  4  0  0  0  0
 26 27  4  0  0  0  0
 27 28  4  0  0  0  0
 28 29  4  0  0  0  0
 29 30  4  0  0  0  0
M  END
>  <Name_Molregno>
SALMETEROL

>  <Beta-1>
5.95

>  <Beta-2>
8.5

$$$$
SB204070
  Marvin  02231216192D 0   1.00000     0.00000     0

 26 28  0  0  0  0  0  0  0  0999 V2000
   -1.8829   -5.3794    0.0000 Cl  0  0  0  0  0  0  0  0  0
   -1.1685   -4.9669    0.0000 C   0  0  0  0  0  0  0  0  0
   -1.1685   -4.1419    0.0000 C   0  0  0  0  0  0  0  0  0
   -0.4540   -3.7294    0.0000 C   0  0  0  0  0  0  0  0  0
    0.2605   -4.1419    0.0000 C   0  0  0  0  0  0  0  0  0
    0.9749   -3.7294    0.0000 O   0  0  0  0  0  0  0  0  0
    1.6894   -4.1419    0.0000 C   0  0  0  0  0  0  0  0  0
    1.6894   -4.9669    0.0000 C   0  0  0  0  0  0  0  0  0
    0.9749   -5.3794    0.0000 O   0  0  0  0  0  0  0  0  0
    0.2605   -4.9669    0.0000 C   0  0  0  0  0  0  0  0  0
   -0.4540   -5.3794    0.0000 C   0  0  0  0  0  0  0  0  0
   -0.4540   -6.2044    0.0000 N   0  0  0  0  0  0  0  0  0
   -0.4540   -2.9044    0.0000 C   0  0  0  0  0  0  0  0  0
    0.2605   -2.4919    0.0000 O   0  0  0  0  0  0  0  0  0
    0.2605   -1.6669    0.0000 C   0  0  0  0  0  0  0  0  0
    0.9749   -1.2544    0.0000 C   0  0  0  0  0  0  0  0  0
    0.9749   -0.4294    0.0000 C   0  0  0  0  0  0  0  0  0
    1.6894   -0.0169    0.0000 C   0  0  0  0  0  0  0  0  0
    2.4039   -0.4294    0.0000 N   0  0  0  0  0  0  0  0  0
    2.4039   -1.2544    0.0000 C   0  0  0  0  0  0  0  0  0
    1.6894   -1.6669    0.0000 C   0  0  0  0  0  0  0  0  0
    3.1184   -0.0169    0.0000 C   0  0  0  0  0  0  0  0  0
    3.1184    0.8081    0.0000 C   0  0  0  0  0  0  0  0  0
    3.8328    1.2206    0.0000 C   0  0  0  0  0  0  0  0  0
    3.8328    2.0456    0.0000 C   0  0  0  0  0  0  0  0  0
   -1.1685   -2.4919    0.0000 O   0  0  0  0  0  0  0  0  0
  1  2  1  0  0  0  0
  2  3  4  0  0  0  0
  2 11  4  0  0  0  0
  3  4  4  0  0  0  0
  4  5  4  0  0  0  0
  4 13  1  0  0  0  0
  5  6  1  0  0  0  0
  5 10  4  0  0  0  0
  6  7  1  0  0  0  0
  7  8  1  0  0  0  0
  8  9  1  0  0  0  0
  9 10  1  0  0  0  0
 10 11  4  0  0  0  0
 11 12  1  0  0  0  0
 13 14  1  0  0  0  0
 13 26  2  0  0  0  0
 14 15  1  0  0  0  0
 15 16  1  0  0  0  0
 16 17  1  0  0  0  0
 16 21  1  0  0  0  0
 17 18  1  0  0  0  0
 18 19  1  0  0  0  0
 19 20  1  0  0  0  0
 19 22  1  0  0  0  0
 20 21  1  0  0  0  0
 22 23  1  0  0  0  0
 23 24  1  0  0  0  0
 24 25  1  0  0  0  0
M  END
>  <Name_Molregno>
SB204070

>  <5-HT1E>
5

>  <Beta-1>
6

>  <Beta-2>
6

>  <DOPAMINE D3>
6

$$$$
SERTINDOLE
  Marvin  02231216192D 0   1.00000     0.00000     0

 31 35  0  0  0  0  0  0  0  0999 V2000
    1.9546   -2.6271    0.0000 Cl  0  0  0  0  0  0  0  0  0
    1.2402   -2.2146    0.0000 C   0  0  0  0  0  0  0  0  0
    0.5257   -2.6271    0.0000 C   0  0  0  0  0  0  0  0  0
   -0.1888   -2.2146    0.0000 C   0  0  0  0  0  0  0  0  0
   -0.1888   -1.3896    0.0000 C   0  0  0  0  0  0  0  0  0
   -0.9734   -1.1347    0.0000 N   0  0  0  0  0  0  0  0  0
   -1.4583   -1.8021    0.0000 C   0  0  0  0  0  0  0  0  0
   -0.9734   -2.4695    0.0000 C   0  0  0  0  0  0  0  0  0
   -1.2283   -3.2542    0.0000 C   0  0  0  0  0  0  0  0  0
   -0.6763   -3.8672    0.0000 C   0  0  0  0  0  0  0  0  0
   -0.9312   -4.6519    0.0000 C   0  0  0  0  0  0  0  0  0
   -1.7382   -4.8234    0.0000 N   0  0  0  0  0  0  0  0  0
   -2.2902   -4.2103    0.0000 C   0  0  0  0  0  0  0  0  0
   -2.0353   -3.4257    0.0000 C   0  0  0  0  0  0  0  0  0
   -1.9931   -5.6080    0.0000 C   0  0  0  0  0  0  0  0  0
   -2.8001   -5.7795    0.0000 C   0  0  0  0  0  0  0  0  0
   -3.0551   -6.5642    0.0000 N   0  0  0  0  0  0  0  0  0
   -2.5701   -7.2316    0.0000 C   0  0  0  0  0  0  0  0  0
   -3.0551   -7.8990    0.0000 C   0  0  0  0  0  0  0  0  0
   -3.8397   -7.6441    0.0000 N   0  0  0  0  0  0  0  0  0
   -3.8397   -6.8191    0.0000 C   0  0  0  0  0  0  0  0  0
   -4.5071   -6.3342    0.0000 O   0  0  0  0  0  0  0  0  0
   -1.2283   -0.3500    0.0000 C   0  0  0  0  0  0  0  0  0
   -2.0353   -0.1785    0.0000 C   0  0  0  0  0  0  0  0  0
   -2.2902    0.6061    0.0000 C   0  0  0  0  0  0  0  0  0
   -1.7382    1.2192    0.0000 C   0  0  0  0  0  0  0  0  0
   -1.9931    2.0038    0.0000 F   0  0  0  0  0  0  0  0  0
   -0.9312    1.0477    0.0000 C   0  0  0  0  0  0  0  0  0
   -0.6763    0.2631    0.0000 C   0  0  0  0  0  0  0  0  0
    0.5257   -0.9771    0.0000 C   0  0  0  0  0  0  0  0  0
    1.2402   -1.3896    0.0000 C   0  0  0  0  0  0  0  0  0
  1  2  1  0  0  0  0
  2  3  4  0  0  0  0
  2 31  4  0  0  0  0
  3  4  4  0  0  0  0
  4  5  4  0  0  0  0
  4  8  4  0  0  0  0
  5  6  4  0  0  0  0
  5 30  4  0  0  0  0
  6  7  4  0  0  0  0
  6 23  1  0  0  0  0
  7  8  4  0  0  0  0
  8  9  1  0  0  0  0
  9 10  1  0  0  0  0
  9 14  1  0  0  0  0
 10 11  1  0  0  0  0
 11 12  1  0  0  0  0
 12 13  1  0  0  0  0
 12 15  1  0  0  0  0
 13 14  1  0  0  0  0
 15 16  1  0  0  0  0
 16 17  1  0  0  0  0
 17 18  1  0  0  0  0
 17 21  1  0  0  0  0
 18 19  1  0  0  0  0
 19 20  1  0  0  0  0
 20 21  1  0  0  0  0
 21 22  2  0  0  0  0
 23 24  4  0  0  0  0
 23 29  4  0  0  0  0
 24 25  4  0  0  0  0
 25 26  4  0  0  0  0
 26 27  1  0  0  0  0
 26 28  4  0  0  0  0
 28 29  4  0  0  0  0
 30 31  4  0  0  0  0
M  END
>  <Name_Molregno>
SERTINDOLE

>  <5-HT1A>
6.36

>  <5-HT1B>
7.22

>  <5-HT1D>
7.36

>  <5-HT1E>
6.37

>  <5-HT2A>
9.49

>  <5-HT2C>
8.64

>  <5-HT6>
8.27

>  <5-HT7>
7.55

>  <Alpha-1A>
8.74

>  <Alpha-2A>
6.19

>  <Alpha-2B>
6.35

>  <Alpha-2C>
6.35

>  <Beta-1>
5.3

>  <Beta-2>
5.3

>  <DOPAMINE D2>
8.54

>  <DOPAMINE D3>
8.35

>  <DOPAMINE D4>
8.2

>  <HISTAMINE H1>
6.76

>  <Muscarinic acetylcholine receptor M3>
5.57

>  <Serotonin transporter>
6

$$$$
SR144528
  Marvin  02231216192D 0   1.00000     0.00000     0

 34 38  0  0  1  0  0  0  0  0999 V2000
   -3.4859   -7.8445    0.0000 Cl  0  0  0  0  0  0  0  0  0
   -3.3410   -7.0323    0.0000 C   0  0  0  0  0  0  0  0  0
   -3.9720   -6.5008    0.0000 C   0  0  0  0  0  0  0  0  0
   -3.8271   -5.6886    0.0000 C   0  0  0  0  0  0  0  0  0
   -3.0513   -5.4080    0.0000 C   0  0  0  0  0  0  0  0  0
   -2.4203   -5.9395    0.0000 C   0  0  0  0  0  0  0  0  0
   -2.5652   -6.7517    0.0000 C   0  0  0  0  0  0  0  0  0
   -1.9343   -7.2833    0.0000 C   0  0  0  0  0  0  0  0  0
   -2.9064   -4.5958    0.0000 C   0  0  0  0  0  0  0  0  0
   -3.4783   -4.0012    0.0000 N   0  0  0  0  0  0  0  0  0
   -3.0895   -3.2735    0.0000 N   0  0  0  0  0  0  0  0  0
   -2.2773   -3.4184    0.0000 C   0  0  0  0  0  0  0  0  0
   -2.1641   -4.2356    0.0000 C   0  0  0  0  0  0  0  0  0
   -1.6827   -2.8465    0.0000 C   0  0  0  0  0  0  0  0  0
   -1.8807   -2.0456    0.0000 O   0  0  0  0  0  0  0  0  0
   -0.8901   -3.0755    0.0000 N   0  0  0  0  0  0  0  0  0
   -0.2955   -2.5036    0.0000 C   0  0  0  0  0  0  0  0  0
    0.0698   -1.8431    0.0000 C   0  0  0  0  0  0  0  0  0
    0.7101   -1.3929    0.0000 C   0  0  0  0  0  0  0  0  0
    0.5501   -0.5775    0.0000 C   0  0  0  0  0  0  0  0  0
    0.4800   -2.1133    0.0000 C   0  0  0  0  0  0  0  0  0
    1.2105   -2.4836    0.0000 C   0  0  0  0  0  0  0  0  0
    1.5056   -1.8582    0.0000 C   0  0  0  0  0  0  0  0  0
    0.4788   -2.9383    0.0000 C   0  0  0  0  0  0  0  0  0
   -0.7153   -1.5897    0.0000 C   0  0  0  0  0  0  0  0  0
   -0.2665   -1.0898    0.0000 C   0  0  0  0  0  0  0  0  0
   -4.2955   -4.1144    0.0000 C   0  0  0  0  0  0  0  0  0
   -4.8021   -3.4633    0.0000 C   0  0  0  0  0  0  0  0  0
   -5.6193   -3.5764    0.0000 C   0  0  0  0  0  0  0  0  0
   -6.1259   -2.9253    0.0000 C   0  0  0  0  0  0  0  0  0
   -5.8153   -2.1610    0.0000 C   0  0  0  0  0  0  0  0  0
   -4.9981   -2.0478    0.0000 C   0  0  0  0  0  0  0  0  0
   -4.4915   -2.6989    0.0000 C   0  0  0  0  0  0  0  0  0
   -6.3219   -1.5099    0.0000 C   0  0  0  0  0  0  0  0  0
  1  2  1  0  0  0  0
  2  3  4  0  0  0  0
  2  7  4  0  0  0  0
  3  4  4  0  0  0  0
  4  5  4  0  0  0  0
  5  6  4  0  0  0  0
  5  9  1  0  0  0  0
  6  7  4  0  0  0  0
  7  8  1  0  0  0  0
  9 10  4  0  0  0  0
  9 13  4  0  0  0  0
 10 11  4  0  0  0  0
 10 27  1  0  0  0  0
 11 12  4  0  0  0  0
 12 13  4  0  0  0  0
 12 14  1  0  0  0  0
 14 15  2  0  0  0  0
 14 16  1  0  0  0  0
 16 17  1  0  0  0  0
 17 18  1  0  0  0  0
 17 21  1  0  0  0  0
 18 19  1  0  0  0  0
 18 25  1  0  0  0  0
 18 26  1  0  0  0  0
 19 20  1  0  0  0  0
 19 23  1  0  0  0  0
 20 21  1  0  0  0  0
 21 22  1  0  0  0  0
 21 24  1  0  0  0  0
 22 23  1  0  0  0  0
 27 28  1  0  0  0  0
 28 29  4  0  0  0  0
 28 33  4  0  0  0  0
 29 30  4  0  0  0  0
 30 31  4  0  0  0  0
 31 32  4  0  0  0  0
 31 34  1  0  0  0  0
 32 33  4  0  0  0  0
M  END
>  <Name_Molregno>
SR144528

>  <5-HT1A>
5

>  <5-HT1B>
5

>  <5-HT1D>
5

>  <5-HT2A>
5

>  <5-HT2C>
5

>  <5-HT3>
5

>  <Beta-1>
5

>  <Beta-2>
5

>  <DOPAMINE D1>
5

>  <DOPAMINE D2>
5

>  <DOPAMINE D3>
5

>  <DOPAMINE D4>
5

>  <HISTAMINE H1>
5

>  <HISTAMINE H2>
5

>  <HISTAMINE H3>
5

>  <Muscarinic acetylcholine receptor M1>
5

>  <Muscarinic acetylcholine receptor M2>
5

>  <Muscarinic acetylcholine receptor M4>
5

$$$$
Terbutaline
  Marvin  02231216192D 0   1.00000     0.00000     0

 16 16  0  0  1  0  0  0  0  0999 V2000
    1.3541    2.4742    0.0000 O   0  0  0  0  0  0  0  0  0
    1.3541    1.6492    0.0000 C   0  0  0  0  0  0  0  0  0
    2.0685    1.2367    0.0000 C   0  0  0  0  0  0  0  0  0
    2.0685    0.4117    0.0000 C   0  0  0  0  0  0  0  0  0
    1.3541   -0.0008    0.0000 C   0  0  0  0  0  0  0  0  0
    0.6396    0.4117    0.0000 C   0  0  0  0  0  0  0  0  0
   -0.0749   -0.0008    0.0000 O   0  0  0  0  0  0  0  0  0
    0.6396    1.2367    0.0000 C   0  0  0  0  0  0  0  0  0
    2.7830   -0.0008    0.0000 C   0  0  0  0  0  0  0  0  0
    2.7830   -0.8258    0.0000 O   0  0  0  0  0  0  0  0  0
    3.4975    0.4117    0.0000 C   0  0  0  0  0  0  0  0  0
    4.2120   -0.0008    0.0000 N   0  0  0  0  0  0  0  0  0
    4.9264    0.4117    0.0000 C   0  0  0  0  0  0  0  0  0
    5.6409    0.8242    0.0000 C   0  0  0  0  0  0  0  0  0
    5.3389   -0.3028    0.0000 C   0  0  0  0  0  0  0  0  0
    4.5139    1.1262    0.0000 C   0  0  0  0  0  0  0  0  0
  1  2  1  0  0  0  0
  2  3  4  0  0  0  0
  2  8  4  0  0  0  0
  3  4  4  0  0  0  0
  4  5  4  0  0  0  0
  4  9  1  0  0  0  0
  5  6  4  0  0  0  0
  6  7  1  0  0  0  0
  6  8  4  0  0  0  0
  9 10  1  0  0  0  0
  9 11  1  0  0  0  0
 11 12  1  0  0  0  0
 12 13  1  0  0  0  0
 13 14  1  0  0  0  0
 13 15  1  0  0  0  0
 13 16  1  0  0  0  0
M  END
>  <Name_Molregno>
Terbutaline

>  <Beta-1>
5

>  <Beta-2>
5.3

$$$$
TERGURIDE
  Marvin  02231216192D 0   1.00000     0.00000     0

 25 28  0  0  1  0  0  0  0  0999 V2000
   -0.3965   -3.1617    0.0000 O   0  0  0  0  0  0  0  0  0
    0.3175   -3.5751    0.0000 C   0  0  0  0  0  0  0  0  0
    1.0325   -3.1634    0.0000 N   0  0  0  0  0  0  0  0  0
    1.0334   -2.3384    0.0000 C   0  0  0  0  0  0  0  0  0
    1.7484   -1.9268    0.0000 C   0  0  0  0  0  0  0  0  0
    1.7494   -1.1018    0.0000 C   0  0  0  0  0  0  0  0  0
    1.0354   -0.6884    0.0000 C   0  0  0  0  0  0  0  0  0
    0.3205   -1.1001    0.0000 N   0  0  0  0  0  0  0  0  0
    0.3195   -1.9251    0.0000 C   0  0  0  0  0  0  0  0  0
   -0.3935   -0.6867    0.0000 C   0  0  0  0  0  0  0  0  0
    1.0369    0.1357    0.0000 C   0  0  0  0  0  0  0  0  0
    1.7494    0.5482    0.0000 C   0  0  0  0  0  0  0  0  0
    2.4619    0.1357    0.0000 C   0  0  0  0  0  0  0  0  0
    2.4619   -0.6893    0.0000 C   0  0  0  0  0  0  0  0  0
    3.1798   -1.1018    0.0000 C   0  0  0  0  0  0  0  0  0
    3.8923   -0.6893    0.0000 C   0  0  0  0  0  0  0  0  0
    3.8923    0.1357    0.0000 C   0  0  0  0  0  0  0  0  0
    3.1798    0.5482    0.0000 C   0  0  0  0  0  0  0  0  0
    2.8744    1.4054    0.0000 N   0  0  0  0  0  0  0  0  0
    2.0494    1.4054    0.0000 C   0  0  0  0  0  0  0  0  0
    0.3165   -4.4001    0.0000 N   0  0  0  0  0  0  0  0  0
   -0.3985   -4.8117    0.0000 C   0  0  0  0  0  0  0  0  0
   -0.3994   -5.6367    0.0000 C   0  0  0  0  0  0  0  0  0
    1.0305   -4.8134    0.0000 C   0  0  0  0  0  0  0  0  0
    1.0295   -5.6384    0.0000 C   0  0  0  0  0  0  0  0  0
  1  2  2  0  0  0  0
  2  3  1  0  0  0  0
  2 21  1  0  0  0  0
  3  4  1  0  0  0  0
  4  5  1  0  0  0  0
  4  9  1  0  0  0  0
  5  6  1  0  0  0  0
  6  7  1  0  0  0  0
  6 14  1  0  0  0  0
  7  8  1  0  0  0  0
  7 11  1  0  0  0  0
  8  9  1  0  0  0  0
  8 10  1  0  0  0  0
 11 12  1  0  0  0  0
 12 13  4  0  0  0  0
 12 20  4  0  0  0  0
 13 14  4  0  0  0  0
 13 18  4  0  0  0  0
 14 15  4  0  0  0  0
 15 16  4  0  0  0  0
 16 17  4  0  0  0  0
 17 18  4  0  0  0  0
 18 19  4  0  0  0  0
 19 20  4  0  0  0  0
 21 22  1  0  0  0  0
 21 24  1  0  0  0  0
 22 23  1  0  0  0  0
 24 25  1  0  0  0  0
M  STY  1   1 DAT
M  SAL   1  1  19
M  SDT   1 MRV_IMPLICIT_H                                        
M  SDD   1     0.0000    0.0000    DR    ALL  0       0  
M  SED   1 IMPL_H1
M  END
>  <Name_Molregno>
TERGURIDE

>  <5-HT1A>
8.46

>  <5-HT1B>
6.59

>  <5-HT1D>
7.79

>  <5-HT2A>
8.32

>  <5-HT2C>
7.32

>  <Alpha-1A>
8.45

>  <Alpha-1B>
7.46

>  <Alpha-2A>
9.53

>  <Alpha-2B>
9.35

>  <Alpha-2C>
9.12

>  <Beta-1>
6.18

>  <Beta-2>
7.7

>  <DOPAMINE D1>
7.55

>  <DOPAMINE D2>
9.06

>  <DOPAMINE D3>
9

>  <DOPAMINE D4>
8.18

>  <DOPAMINE D5>
7.63

$$$$
THIORIDAZINE
  Marvin  02231216192D 0   1.00000     0.00000     0

 25 28  0  0  1  0  0  0  0  0999 V2000
    1.0601   -0.3753    0.0000 S   0  0  0  0  0  0  0  0  0
    1.7746    0.0372    0.0000 C   0  0  0  0  0  0  0  0  0
    1.7746    0.8622    0.0000 C   0  0  0  0  0  0  0  0  0
    1.0601    1.2747    0.0000 N   0  0  0  0  0  0  0  0  0
    0.3456    0.8622    0.0000 C   0  0  0  0  0  0  0  0  0
    0.3456    0.0372    0.0000 C   0  0  0  0  0  0  0  0  0
   -0.3689   -0.3753    0.0000 C   0  0  0  0  0  0  0  0  0
   -1.0833    0.0372    0.0000 C   0  0  0  0  0  0  0  0  0
   -1.0833    0.8622    0.0000 C   0  0  0  0  0  0  0  0  0
   -0.3689    1.2747    0.0000 C   0  0  0  0  0  0  0  0  0
    1.0601    2.0997    0.0000 C   0  0  0  0  0  0  0  0  0
    0.3456    2.5122    0.0000 C   0  0  0  0  0  0  0  0  0
    0.3456    3.3372    0.0000 C   0  0  0  0  0  0  0  0  0
   -0.3689    3.7497    0.0000 N   0  0  0  0  0  0  0  0  0
   -0.3689    4.5747    0.0000 C   0  0  0  0  0  0  0  0  0
    0.3456    4.9872    0.0000 C   0  0  0  0  0  0  0  0  0
    1.0601    4.5747    0.0000 C   0  0  0  0  0  0  0  0  0
    1.0601    3.7497    0.0000 C   0  0  0  0  0  0  0  0  0
   -1.0833    3.3372    0.0000 C   0  0  0  0  0  0  0  0  0
    2.4890    1.2747    0.0000 C   0  0  0  0  0  0  0  0  0
    3.2035    0.8622    0.0000 C   0  0  0  0  0  0  0  0  0
    3.9180    1.2747    0.0000 S   0  0  0  0  0  0  0  0  0
    3.9180    2.0997    0.0000 C   0  0  0  0  0  0  0  0  0
    3.2035    0.0372    0.0000 C   0  0  0  0  0  0  0  0  0
    2.4890   -0.3753    0.0000 C   0  0  0  0  0  0  0  0  0
  1  2  1  0  0  0  0
  1  6  1  0  0  0  0
  2  3  4  0  0  0  0
  2 25  4  0  0  0  0
  3  4  1  0  0  0  0
  3 20  4  0  0  0  0
  4  5  1  0  0  0  0
  4 11  1  0  0  0  0
  5  6  4  0  0  0  0
  5 10  4  0  0  0  0
  6  7  4  0  0  0  0
  7  8  4  0  0  0  0
  8  9  4  0  0  0  0
  9 10  4  0  0  0  0
 11 12  1  0  0  0  0
 12 13  1  0  0  0  0
 13 14  1  0  0  0  0
 13 18  1  0  0  0  0
 14 15  1  0  0  0  0
 14 19  1  0  0  0  0
 15 16  1  0  0  0  0
 16 17  1  0  0  0  0
 17 18  1  0  0  0  0
 20 21  4  0  0  0  0
 21 22  1  0  0  0  0
 21 24  4  0  0  0  0
 22 23  1  0  0  0  0
 24 25  4  0  0  0  0
M  END
>  <Name_Molregno>
THIORIDAZINE

>  <5-HT1A>
6.85

>  <5-HT1B>
6.96

>  <5-HT1D>
6.24

>  <5-HT1E>
6.71

>  <5-HT2A>
7.95

>  <5-HT2C>
7.28

>  <5-HT3>
5

>  <5-HT5>
6.44

>  <5-HT6>
7.24

>  <5-HT7>
7.05

>  <Alpha-1A>
8.6

>  <Alpha-1B>
8.62

>  <Alpha-2A>
6.87

>  <Alpha-2B>
6.47

>  <Alpha-2C>
7.13

>  <Beta-1>
5

>  <Beta-2>
5

>  <DOPAMINE D1>
7.03

>  <DOPAMINE D2>
8.31

>  <DOPAMINE D3>
8.59

>  <DOPAMINE D4>
8.21

>  <DOPAMINE D5>
6.6

>  <Dopamine transporter>
5.77

>  <HISTAMINE H1>
7.79

>  <HISTAMINE H2>
6.87

>  <HISTAMINE H4>
5.62

>  <Muscarinic acetylcholine receptor M1>
8.21

>  <Muscarinic acetylcholine receptor M2>
7.26

>  <Muscarinic acetylcholine receptor M3>
7.6

>  <Muscarinic acetylcholine receptor M4>
7.38

>  <Muscarinic acetylcholine receptor M5>
7.9

>  <Norepinephrine transporter>
6.07

>  <Serotonin transporter>
5.9

$$$$
TRAZODONE
  Marvin  02231216192D 0   1.00000     0.00000     0

 26 29  0  0  0  0  0  0  0  0999 V2000
    0.6158   -2.7707    0.0000 Cl  0  0  0  0  0  0  0  0  0
    1.4408   -2.7707    0.0000 C   0  0  0  0  0  0  0  0  0
    1.8533   -2.0563    0.0000 C   0  0  0  0  0  0  0  0  0
    2.6783   -2.0563    0.0000 C   0  0  0  0  0  0  0  0  0
    3.0908   -1.3418    0.0000 N   0  0  0  0  0  0  0  0  0
    2.6783   -0.6273    0.0000 C   0  0  0  0  0  0  0  0  0
    3.0908    0.0872    0.0000 C   0  0  0  0  0  0  0  0  0
    3.9158    0.0872    0.0000 N   0  0  0  0  0  0  0  0  0
    4.3283   -0.6273    0.0000 C   0  0  0  0  0  0  0  0  0
    3.9158   -1.3418    0.0000 C   0  0  0  0  0  0  0  0  0
    4.3283    0.8016    0.0000 C   0  0  0  0  0  0  0  0  0
    5.1533    0.8016    0.0000 C   0  0  0  0  0  0  0  0  0
    5.5658    1.5161    0.0000 C   0  0  0  0  0  0  0  0  0
    6.3908    1.5161    0.0000 N   0  0  0  0  0  0  0  0  0
    6.8757    0.8487    0.0000 N   0  0  0  0  0  0  0  0  0
    7.6604    1.1036    0.0000 C   0  0  0  0  0  0  0  0  0
    7.6604    1.9286    0.0000 N   0  0  0  0  0  0  0  0  0
    8.3748    2.3411    0.0000 C   0  0  0  0  0  0  0  0  0
    9.0893    1.9286    0.0000 C   0  0  0  0  0  0  0  0  0
    9.0893    1.1036    0.0000 C   0  0  0  0  0  0  0  0  0
    8.3748    0.6911    0.0000 C   0  0  0  0  0  0  0  0  0
    6.8757    2.1835    0.0000 C   0  0  0  0  0  0  0  0  0
    6.6208    2.9682    0.0000 O   0  0  0  0  0  0  0  0  0
    3.0908   -2.7707    0.0000 C   0  0  0  0  0  0  0  0  0
    2.6783   -3.4852    0.0000 C   0  0  0  0  0  0  0  0  0
    1.8533   -3.4852    0.0000 C   0  0  0  0  0  0  0  0  0
  1  2  1  0  0  0  0
  2  3  4  0  0  0  0
  2 26  4  0  0  0  0
  3  4  4  0  0  0  0
  4  5  1  0  0  0  0
  4 24  4  0  0  0  0
  5  6  1  0  0  0  0
  5 10  1  0  0  0  0
  6  7  1  0  0  0  0
  7  8  1  0  0  0  0
  8  9  1  0  0  0  0
  8 11  1  0  0  0  0
  9 10  1  0  0  0  0
 11 12  1  0  0  0  0
 12 13  1  0  0  0  0
 13 14  1  0  0  0  0
 14 15  1  0  0  0  0
 14 22  1  0  0  0  0
 15 16  2  0  0  0  0
 16 17  1  0  0  0  0
 16 21  1  0  0  0  0
 17 18  1  0  0  0  0
 17 22  1  0  0  0  0
 18 19  2  0  0  0  0
 19 20  1  0  0  0  0
 20 21  2  0  0  0  0
 22 23  2  0  0  0  0
 24 25  4  0  0  0  0
 25 26  4  0  0  0  0
M  END
>  <Name_Molregno>
TRAZODONE

>  <5-HT1A>
6.97

>  <5-HT1B>
5

>  <5-HT1D>
6.97

>  <5-HT1E>
5

>  <5-HT2A>
7.46

>  <5-HT2C>
6.65

>  <5-HT3>
5

>  <5-HT5>
5

>  <5-HT6>
5

>  <5-HT7>
5.75

>  <Alpha-1A>
6.82

>  <Alpha-2A>
6.14

>  <Alpha-2C>
6.81

>  <Beta-1>
5

>  <Beta-2>
5

>  <DOPAMINE D1>
5.43

>  <DOPAMINE D2>
5.42

>  <DOPAMINE D4>
6.15

>  <DOPAMINE D5>
5

>  <Dopamine transporter>
5.07

>  <HISTAMINE H1>
6.31

>  <HISTAMINE H2>
5.48

>  <HISTAMINE H4>
5

>  <Muscarinic acetylcholine receptor M1>
5

>  <Muscarinic acetylcholine receptor M2>
5

>  <Muscarinic acetylcholine receptor M3>
5

>  <Muscarinic acetylcholine receptor M4>
5

>  <Muscarinic acetylcholine receptor M5>
5

>  <Norepinephrine transporter>
5.02

>  <Serotonin transporter>
6.14

$$$$
ZIPRASIDONE
  Marvin  02231216192D 0   1.00000     0.00000     0

 28 32  0  0  0  0  0  0  0  0999 V2000
   -5.2868    0.2535    0.0000 Cl  0  0  0  0  0  0  0  0  0
   -4.7347    0.8666    0.0000 C   0  0  0  0  0  0  0  0  0
   -4.9897    1.6513    0.0000 C   0  0  0  0  0  0  0  0  0
   -4.4376    2.2643    0.0000 C   0  0  0  0  0  0  0  0  0
   -4.5239    3.0848    0.0000 N   0  0  0  0  0  0  0  0  0
   -3.7702    3.4204    0.0000 C   0  0  0  0  0  0  0  0  0
   -3.5987    4.2274    0.0000 O   0  0  0  0  0  0  0  0  0
   -3.2182    2.8073    0.0000 C   0  0  0  0  0  0  0  0  0
   -3.6307    2.0928    0.0000 C   0  0  0  0  0  0  0  0  0
   -3.3757    1.3082    0.0000 C   0  0  0  0  0  0  0  0  0
   -3.9278    0.6951    0.0000 C   0  0  0  0  0  0  0  0  0
   -3.6728   -0.0895    0.0000 C   0  0  0  0  0  0  0  0  0
   -2.8658   -0.2610    0.0000 C   0  0  0  0  0  0  0  0  0
   -2.6109   -1.0457    0.0000 N   0  0  0  0  0  0  0  0  0
   -1.8039   -1.2172    0.0000 C   0  0  0  0  0  0  0  0  0
   -1.5490   -2.0018    0.0000 C   0  0  0  0  0  0  0  0  0
   -2.1010   -2.6149    0.0000 N   0  0  0  0  0  0  0  0  0
   -2.9080   -2.4434    0.0000 C   0  0  0  0  0  0  0  0  0
   -3.1629   -1.6588    0.0000 C   0  0  0  0  0  0  0  0  0
   -1.8461   -3.3995    0.0000 C   0  0  0  0  0  0  0  0  0
   -2.3310   -4.0670    0.0000 N   0  0  0  0  0  0  0  0  0
   -1.8461   -4.7344    0.0000 S   0  0  0  0  0  0  0  0  0
   -1.0615   -4.4795    0.0000 C   0  0  0  0  0  0  0  0  0
   -1.0615   -3.6545    0.0000 C   0  0  0  0  0  0  0  0  0
   -0.3470   -3.2420    0.0000 C   0  0  0  0  0  0  0  0  0
    0.3675   -3.6545    0.0000 C   0  0  0  0  0  0  0  0  0
    0.3675   -4.4795    0.0000 C   0  0  0  0  0  0  0  0  0
   -0.3470   -4.8920    0.0000 C   0  0  0  0  0  0  0  0  0
  1  2  1  0  0  0  0
  2  3  4  0  0  0  0
  2 11  4  0  0  0  0
  3  4  4  0  0  0  0
  4  5  1  0  0  0  0
  4  9  4  0  0  0  0
  5  6  1  0  0  0  0
  6  7  2  0  0  0  0
  6  8  1  0  0  0  0
  8  9  1  0  0  0  0
  9 10  4  0  0  0  0
 10 11  4  0  0  0  0
 11 12  1  0  0  0  0
 12 13  1  0  0  0  0
 13 14  1  0  0  0  0
 14 15  1  0  0  0  0
 14 19  1  0  0  0  0
 15 16  1  0  0  0  0
 16 17  1  0  0  0  0
 17 18  1  0  0  0  0
 17 20  1  0  0  0  0
 18 19  1  0  0  0  0
 20 21  4  0  0  0  0
 20 24  4  0  0  0  0
 21 22  4  0  0  0  0
 22 23  4  0  0  0  0
 23 24  4  0  0  0  0
 23 28  4  0  0  0  0
 24 25  4  0  0  0  0
 25 26  4  0  0  0  0
 26 27  4  0  0  0  0
 27 28  4  0  0  0  0
M  END
>  <Name_Molregno>
ZIPRASIDONE

>  <5-HT1A>
8.19

>  <5-HT1B>
8.7

>  <5-HT1D>
8.32

>  <5-HT1E>
6.17

>  <5-HT2A>
9.54

>  <5-HT2C>
8.82

>  <5-HT3>
5.7

>  <5-HT5>
6.54

>  <5-HT6>
7.17

>  <5-HT7>
8.23

>  <Alpha-1A>
7.74

>  <Alpha-1B>
8.05

>  <Alpha-2A>
6.8

>  <Alpha-2B>
7.32

>  <Alpha-2C>
7.15

>  <Beta-1>
5.3

>  <Beta-2>
5.15

>  <DOPAMINE D1>
7.1

>  <DOPAMINE D2>
8.39

>  <DOPAMINE D3>
8.21

>  <DOPAMINE D4>
7.43

>  <DOPAMINE D5>
6.82

>  <Dopamine transporter>
5

>  <HISTAMINE H1>
7.51

>  <HISTAMINE H2>
5.46

>  <HISTAMINE H4>
5

>  <Muscarinic acetylcholine receptor M1>
5.53

>  <Muscarinic acetylcholine receptor M2>
5.26

>  <Muscarinic acetylcholine receptor M3>
5.3

>  <Muscarinic acetylcholine receptor M4>
5.4

>  <Muscarinic acetylcholine receptor M5>
5.4

>  <Norepinephrine transporter>
7.36

>  <Serotonin transporter>
6.92

$$$$
ZOTEPINE
  Marvin  02231216192D 0   1.00000     0.00000     0

 22 24  0  0  0  0  0  0  0  0999 V2000
    1.8575   -4.4413    0.0000 Cl  0  0  0  0  0  0  0  0  0
    1.0691   -4.1981    0.0000 C   0  0  0  0  0  0  0  0  0
    0.8856   -3.3938    0.0000 C   0  0  0  0  0  0  0  0  0
    0.0972   -3.1507    0.0000 C   0  0  0  0  0  0  0  0  0
   -0.5076   -3.7118    0.0000 C   0  0  0  0  0  0  0  0  0
   -1.3233   -3.5888    0.0000 S   0  0  0  0  0  0  0  0  0
   -1.7358   -2.8744    0.0000 C   0  0  0  0  0  0  0  0  0
   -1.4344   -2.1064    0.0000 C   0  0  0  0  0  0  0  0  0
   -0.6461   -1.8632    0.0000 C   0  0  0  0  0  0  0  0  0
    0.0356   -2.3280    0.0000 C   0  0  0  0  0  0  0  0  0
    0.7500   -1.9155    0.0000 O   0  0  0  0  0  0  0  0  0
    1.4645   -2.3280    0.0000 C   0  0  0  0  0  0  0  0  0
    2.1790   -1.9155    0.0000 C   0  0  0  0  0  0  0  0  0
    2.8934   -2.3280    0.0000 N   0  0  0  0  0  0  0  0  0
    3.6079   -1.9155    0.0000 C   0  0  0  0  0  0  0  0  0
    2.8934   -3.1530    0.0000 C   0  0  0  0  0  0  0  0  0
   -1.9488   -1.4614    0.0000 C   0  0  0  0  0  0  0  0  0
   -2.7646   -1.5843    0.0000 C   0  0  0  0  0  0  0  0  0
   -3.0660   -2.3523    0.0000 C   0  0  0  0  0  0  0  0  0
   -2.5516   -2.9973    0.0000 C   0  0  0  0  0  0  0  0  0
   -0.3240   -4.5161    0.0000 C   0  0  0  0  0  0  0  0  0
    0.4644   -4.7593    0.0000 C   0  0  0  0  0  0  0  0  0
  1  2  1  0  0  0  0
  2  3  4  0  0  0  0
  2 22  4  0  0  0  0
  3  4  4  0  0  0  0
  4  5  4  0  0  0  0
  4 10  1  0  0  0  0
  5  6  1  0  0  0  0
  5 21  4  0  0  0  0
  6  7  1  0  0  0  0
  7  8  4  0  0  0  0
  7 20  4  0  0  0  0
  8  9  1  0  0  0  0
  8 17  4  0  0  0  0
  9 10  2  0  0  0  0
 10 11  1  0  0  0  0
 11 12  1  0  0  0  0
 12 13  1  0  0  0  0
 13 14  1  0  0  0  0
 14 15  1  0  0  0  0
 14 16  1  0  0  0  0
 17 18  4  0  0  0  0
 18 19  4  0  0  0  0
 19 20  4  0  0  0  0
 21 22  4  0  0  0  0
M  END
>  <Name_Molregno>
ZOTEPINE

>  <5-HT1A>
6.41

>  <5-HT1B>
7.23

>  <5-HT1D>
7.02

>  <5-HT1E>
6.23

>  <5-HT2A>
8.58

>  <5-HT2C>
8.49

>  <5-HT3>
6.33

>  <5-HT5>
7.54

>  <5-HT6>
8.22

>  <5-HT7>
7.92

>  <Alpha-1A>
8.15

>  <Alpha-1B>
8.3

>  <Alpha-2A>
6.68

>  <Alpha-2B>
8.27

>  <Alpha-2C>
7.02

>  <Beta-1>
5.19

>  <Beta-2>
5.32

>  <DOPAMINE D1>
7.15

>  <DOPAMINE D2>
7.98

>  <DOPAMINE D3>
8.19

>  <DOPAMINE D4>
7.57

>  <DOPAMINE D5>
6.61

>  <Dopamine transporter>
5.44

>  <HISTAMINE H1>
8.64

>  <HISTAMINE H2>
6.3

>  <HISTAMINE H4>
5.7

>  <Muscarinic acetylcholine receptor M1>
6.37

>  <Muscarinic acetylcholine receptor M2>
5.92

>  <Muscarinic acetylcholine receptor M3>
6.07

>  <Muscarinic acetylcholine receptor M4>
6.06

>  <Muscarinic acetylcholine receptor M5>
5.8

>  <Norepinephrine transporter>
6.28

>  <Serotonin transporter>
6.41

$$$$
