2724
  Marvin  02231216192D 0   1.00000     0.00000     0

 16 17  0  0  1  0  0  0  0  0999 V2000
    1.7558    2.8334    0.0000 O   0  0  0  0  0  0  0  0  0
    1.7558    2.0084    0.0000 C   0  0  0  0  0  0  0  0  0
    2.4703    1.5959    0.0000 C   0  0  0  0  0  0  0  0  0
    2.4703    0.7709    0.0000 C   0  0  0  0  0  0  0  0  0
    1.7558    0.3584    0.0000 C   0  0  0  0  0  0  0  0  0
    1.0413    0.7709    0.0000 C   0  0  0  0  0  0  0  0  0
    1.0413    1.5959    0.0000 C   0  0  0  0  0  0  0  0  0
    3.1847    0.3584    0.0000 C   0  0  0  0  0  0  0  0  0
    3.8992    0.7709    0.0000 C   0  0  0  0  0  0  0  0  0
    4.6137    0.3584    0.0000 C   0  0  0  0  0  0  0  0  0
    4.6137   -0.4666    0.0000 C   0  0  0  0  0  0  0  0  0
    3.8992   -0.8791    0.0000 N   0  0  0  0  0  0  0  0  0
    3.1847   -0.4666    0.0000 C   0  0  0  0  0  0  0  0  0
    3.8992   -1.7041    0.0000 C   0  0  0  0  0  0  0  0  0
    3.1847   -2.1166    0.0000 C   0  0  0  0  0  0  0  0  0
    3.1847   -2.9416    0.0000 C   0  0  0  0  0  0  0  0  0
  1  2  1  0  0  0  0
  2  3  4  0  0  0  0
  2  7  4  0  0  0  0
  3  4  4  0  0  0  0
  4  5  4  0  0  0  0
  4  8  1  0  0  0  0
  5  6  4  0  0  0  0
  6  7  4  0  0  0  0
  8  9  1  0  0  0  0
  8 13  1  0  0  0  0
  9 10  1  0  0  0  0
 10 11  1  0  0  0  0
 11 12  1  0  0  0  0
 12 13  1  0  0  0  0
 12 14  1  0  0  0  0
 14 15  1  0  0  0  0
 15 16  1  0  0  0  0
M  END
>  <Name_Molregno>
2724

>  <5-HT1A>
5.73

>  <5-HT1E>
5

>  <5-HT3>
5

>  <5-HT5>
5

>  <5-HT6>
5

>  <Alpha-1A>
5

>  <Alpha-1B>
5

>  <Beta-2>
5

>  <DOPAMINE D1>
5

>  <DOPAMINE D2>
6.47

>  <DOPAMINE D3>
6.93

>  <DOPAMINE D4>
6.29

>  <DOPAMINE D5>
5.31

>  <Dopamine transporter>
5

>  <Muscarinic acetylcholine receptor M1>
5

>  <Muscarinic acetylcholine receptor M2>
5

>  <Muscarinic acetylcholine receptor M3>
5

>  <Muscarinic acetylcholine receptor M4>
5

>  <Muscarinic acetylcholine receptor M5>
5

>  <Norepinephrine transporter>
5.64

>  <Serotonin transporter>
5

$$$$
4778
  Marvin  02231216192D 0   1.00000     0.00000     0

 20 22  0  0  1  0  0  0  0  0999 V2000
    0.1938   -0.4763    0.0000 Cl  0  0  0  0  0  0  0  0  0
    0.9083   -0.0638    0.0000 C   0  0  0  0  0  0  0  0  0
    1.6227   -0.4763    0.0000 C   0  0  0  0  0  0  0  0  0
    2.3372   -0.0638    0.0000 C   0  0  0  0  0  0  0  0  0
    2.3372    0.7612    0.0000 C   0  0  0  0  0  0  0  0  0
    1.6227    1.1737    0.0000 C   0  0  0  0  0  0  0  0  0
    0.9083    0.7612    0.0000 C   0  0  0  0  0  0  0  0  0
    0.1938    1.1737    0.0000 O   0  0  0  0  0  0  0  0  0
    2.9822    1.2756    0.0000 C   0  0  0  0  0  0  0  0  0
    3.7865    1.0920    0.0000 C   0  0  0  0  0  0  0  0  0
    4.1445    0.3487    0.0000 N   0  0  0  0  0  0  0  0  0
    3.7865   -0.3946    0.0000 C   0  0  0  0  0  0  0  0  0
    2.9822   -0.5782    0.0000 C   0  0  0  0  0  0  0  0  0
    4.9695    0.3487    0.0000 C   0  0  0  0  0  0  0  0  0
    2.7986    2.0799    0.0000 C   0  0  0  0  0  0  0  0  0
    2.0103    2.3230    0.0000 C   0  0  0  0  0  0  0  0  0
    1.8267    3.1274    0.0000 C   0  0  0  0  0  0  0  0  0
    2.4315    3.6885    0.0000 C   0  0  0  0  0  0  0  0  0
    3.2198    3.4453    0.0000 C   0  0  0  0  0  0  0  0  0
    3.4034    2.6410    0.0000 C   0  0  0  0  0  0  0  0  0
  1  2  1  0  0  0  0
  2  3  4  0  0  0  0
  2  7  4  0  0  0  0
  3  4  4  0  0  0  0
  4  5  4  0  0  0  0
  4 13  1  0  0  0  0
  5  6  4  0  0  0  0
  5  9  1  0  0  0  0
  6  7  4  0  0  0  0
  7  8  1  0  0  0  0
  9 10  1  0  0  0  0
  9 15  1  0  0  0  0
 10 11  1  0  0  0  0
 11 12  1  0  0  0  0
 11 14  1  0  0  0  0
 12 13  1  0  0  0  0
 15 16  4  0  0  0  0
 15 20  4  0  0  0  0
 16 17  4  0  0  0  0
 17 18  4  0  0  0  0
 18 19  4  0  0  0  0
 19 20  4  0  0  0  0
M  END
>  <Name_Molregno>
4778

>  <5-HT1A>
6.18

>  <5-HT2A>
7.88

>  <5-HT2C>
7.39

>  <5-HT3>
5

>  <DOPAMINE D1>
8.84

>  <DOPAMINE D2>
6.09

>  <DOPAMINE D3>
5.65

>  <DOPAMINE D4>
5.51

>  <DOPAMINE D5>
8.49

>  <HISTAMINE H1>
7

$$$$
66613
  Marvin  02231216192D 0   1.00000     0.00000     0

 14 15  0  0  1  0  0  0  0  0999 V2000
   -3.5937   -0.7341    0.0000 O   0  0  0  0  0  0  0  0  0
   -2.8091   -0.9890    0.0000 C   0  0  0  0  0  0  0  0  0
   -2.0946   -0.5765    0.0000 C   0  0  0  0  0  0  0  0  0
   -1.3801   -0.9890    0.0000 C   0  0  0  0  0  0  0  0  0
   -1.3801   -1.8140    0.0000 C   0  0  0  0  0  0  0  0  0
   -2.0946   -2.2265    0.0000 C   0  0  0  0  0  0  0  0  0
   -2.8091   -1.8140    0.0000 C   0  0  0  0  0  0  0  0  0
   -3.5937   -2.0690    0.0000 O   0  0  0  0  0  0  0  0  0
   -4.0786   -1.4015    0.0000 C   0  0  0  0  0  0  0  0  0
   -0.6657   -0.5765    0.0000 C   0  0  0  0  0  0  0  0  0
   -0.6657    0.2485    0.0000 C   0  0  0  0  0  0  0  0  0
    0.0488    0.6610    0.0000 N   0  0  0  0  0  0  0  0  0
    0.0488    1.4860    0.0000 C   0  0  0  0  0  0  0  0  0
   -1.3801    0.6610    0.0000 C   0  0  0  0  0  0  0  0  0
  1  2  1  0  0  0  0
  1  9  1  0  0  0  0
  2  3  4  0  0  0  0
  2  7  4  0  0  0  0
  3  4  4  0  0  0  0
  4  5  4  0  0  0  0
  4 10  1  0  0  0  0
  5  6  4  0  0  0  0
  6  7  4  0  0  0  0
  7  8  1  0  0  0  0
  8  9  1  0  0  0  0
 10 11  1  0  0  0  0
 11 12  1  0  0  0  0
 11 14  1  0  0  0  0
 12 13  1  0  0  0  0
M  END
>  <Name_Molregno>
66613

>  <5-HT1A>
5

>  <5-HT1B>
5

>  <5-HT1D>
5

>  <5-HT1E>
5

>  <5-HT2A>
5

>  <5-HT3>
5

>  <5-HT5>
5

>  <5-HT6>
5

>  <5-HT7>
5

>  <Alpha-1A>
5

>  <Alpha-1B>
5

>  <Alpha-2A>
5.6

>  <Alpha-2B>
5.75

>  <Alpha-2C>
5.95

>  <Beta-1>
5

>  <Beta-2>
5

>  <DOPAMINE D1>
5

>  <DOPAMINE D2>
5

>  <DOPAMINE D3>
5

>  <DOPAMINE D4>
5

>  <DOPAMINE D5>
5

>  <Dopamine transporter>
5

>  <HISTAMINE H1>
5.67

>  <HISTAMINE H2>
5

>  <Muscarinic acetylcholine receptor M1>
5

>  <Muscarinic acetylcholine receptor M2>
5

>  <Muscarinic acetylcholine receptor M3>
5.73

>  <Muscarinic acetylcholine receptor M4>
5.08

>  <Muscarinic acetylcholine receptor M5>
5.2

>  <Norepinephrine transporter>
5

>  <Serotonin transporter>
7.24

$$$$
88815
  Marvin  02231216192D 0   1.00000     0.00000     0

 14 15  0  0  1  0  0  0  0  0999 V2000
   -3.2072   -0.1654    0.0000 S   0  0  0  0  0  0  0  0  0
   -2.4226   -0.4204    0.0000 C   0  0  0  0  0  0  0  0  0
   -1.7081   -0.0079    0.0000 C   0  0  0  0  0  0  0  0  0
   -0.9937   -0.4204    0.0000 C   0  0  0  0  0  0  0  0  0
   -0.2792   -0.0079    0.0000 N   0  0  0  0  0  0  0  0  0
    0.4353   -0.4204    0.0000 C   0  0  0  0  0  0  0  0  0
    1.1498   -0.0079    0.0000 C   0  0  0  0  0  0  0  0  0
    1.8642   -0.4204    0.0000 C   0  0  0  0  0  0  0  0  0
   -0.9937   -1.2454    0.0000 C   0  0  0  0  0  0  0  0  0
   -1.7081   -1.6579    0.0000 C   0  0  0  0  0  0  0  0  0
   -2.4226   -1.2454    0.0000 C   0  0  0  0  0  0  0  0  0
   -3.2072   -1.5003    0.0000 N   0  0  0  0  0  0  0  0  0
   -3.6921   -0.8329    0.0000 C   0  0  0  0  0  0  0  0  0
   -4.5171   -0.8329    0.0000 N   0  0  0  0  0  0  0  0  0
  1  2  4  0  0  0  0
  1 13  4  0  0  0  0
  2  3  1  0  0  0  0
  2 11  4  0  0  0  0
  3  4  1  0  0  0  0
  4  5  1  0  0  0  0
  4  9  1  0  0  0  0
  5  6  1  0  0  0  0
  6  7  1  0  0  0  0
  7  8  1  0  0  0  0
  9 10  1  0  0  0  0
 10 11  1  0  0  0  0
 11 12  4  0  0  0  0
 12 13  4  0  0  0  0
 13 14  1  0  0  0  0
M  END
>  <Name_Molregno>
88815

>  <5-HT1A>
5.67

>  <5-HT1B>
5.26

>  <5-HT1D>
5.39

>  <5-HT1E>
5

>  <5-HT2A>
5

>  <5-HT2C>
5

>  <5-HT3>
5

>  <5-HT5>
5

>  <5-HT6>
5

>  <5-HT7>
5.93

>  <Alpha-1A>
5

>  <Alpha-1B>
5

>  <Alpha-2A>
6.44

>  <Alpha-2B>
6.68

>  <Alpha-2C>
6.14

>  <Beta-1>
5

>  <Beta-2>
5

>  <DOPAMINE D1>
5

>  <DOPAMINE D2>
6.55

>  <DOPAMINE D3>
8.51

>  <DOPAMINE D4>
7.4

>  <DOPAMINE D5>
5

>  <Dopamine transporter>
5

>  <HISTAMINE H1>
5

>  <HISTAMINE H2>
5.57

>  <HISTAMINE H4>
5

>  <Muscarinic acetylcholine receptor M1>
5

>  <Muscarinic acetylcholine receptor M2>
5

>  <Muscarinic acetylcholine receptor M3>
5

>  <Muscarinic acetylcholine receptor M4>
5

>  <Muscarinic acetylcholine receptor M5>
5

>  <Norepinephrine transporter>
5

>  <Serotonin transporter>
5

$$$$
120674
  Marvin  02231216192D 0   1.00000     0.00000     0

 27 29  0  0  1  0  0  0  0  0999 V2000
    4.4208    6.3587    0.0000 F   0  0  0  0  0  0  0  0  0
    4.4208    5.5337    0.0000 C   0  0  0  0  0  0  0  0  0
    5.1353    5.1212    0.0000 C   0  0  0  0  0  0  0  0  0
    5.1353    4.2962    0.0000 C   0  0  0  0  0  0  0  0  0
    4.4208    3.8837    0.0000 C   0  0  0  0  0  0  0  0  0
    3.7063    4.2962    0.0000 C   0  0  0  0  0  0  0  0  0
    3.7063    5.1212    0.0000 C   0  0  0  0  0  0  0  0  0
    4.4208    3.0587    0.0000 C   0  0  0  0  0  0  0  0  0
    5.1353    2.6462    0.0000 C   0  0  0  0  0  0  0  0  0
    5.1353    1.8212    0.0000 N   0  0  0  0  0  0  0  0  0
    5.8497    1.4087    0.0000 C   0  0  0  0  0  0  0  0  0
    5.8497    0.5837    0.0000 C   0  0  0  0  0  0  0  0  0
    5.1353    0.1712    0.0000 C   0  0  0  0  0  0  0  0  0
    4.4208    0.5837    0.0000 C   0  0  0  0  0  0  0  0  0
    4.4208    1.4087    0.0000 C   0  0  0  0  0  0  0  0  0
    5.1353   -0.6538    0.0000 C   0  0  0  0  0  0  0  0  0
    4.4208   -1.0663    0.0000 O   0  0  0  0  0  0  0  0  0
    5.8497   -1.0663    0.0000 C   0  0  0  0  0  0  0  0  0
    6.5642   -0.6538    0.0000 C   0  0  0  0  0  0  0  0  0
    7.2787   -1.0663    0.0000 C   0  0  0  0  0  0  0  0  0
    7.2787   -1.8913    0.0000 C   0  0  0  0  0  0  0  0  0
    6.5642   -2.3038    0.0000 C   0  0  0  0  0  0  0  0  0
    6.5642   -3.1288    0.0000 O   0  0  0  0  0  0  0  0  0
    7.2787   -3.5413    0.0000 C   0  0  0  0  0  0  0  0  0
    5.8497   -1.8913    0.0000 C   0  0  0  0  0  0  0  0  0
    5.1353   -2.3038    0.0000 O   0  0  0  0  0  0  0  0  0
    5.1353   -3.1288    0.0000 C   0  0  0  0  0  0  0  0  0
  1  2  1  0  0  0  0
  2  3  4  0  0  0  0
  2  7  4  0  0  0  0
  3  4  4  0  0  0  0
  4  5  4  0  0  0  0
  5  6  4  0  0  0  0
  5  8  1  0  0  0  0
  6  7  4  0  0  0  0
  8  9  1  0  0  0  0
  9 10  1  0  0  0  0
 10 11  1  0  0  0  0
 10 15  1  0  0  0  0
 11 12  1  0  0  0  0
 12 13  1  0  0  0  0
 13 14  1  0  0  0  0
 13 16  1  0  0  0  0
 14 15  1  0  0  0  0
 16 17  1  0  0  0  0
 16 18  1  0  0  0  0
 18 19  4  0  0  0  0
 18 25  4  0  0  0  0
 19 20  4  0  0  0  0
 20 21  4  0  0  0  0
 21 22  4  0  0  0  0
 22 23  1  0  0  0  0
 22 25  4  0  0  0  0
 23 24  1  0  0  0  0
 25 26  1  0  0  0  0
 26 27  1  0  0  0  0
M  END
>  <Name_Molregno>
120674

>  <5-HT1A>
5

>  <5-HT1E>
5

>  <5-HT2A>
9.16

>  <5-HT2C>
7.37

>  <5-HT3>
5

>  <5-HT5>
5

>  <5-HT6>
5.46

>  <Alpha-1A>
6.41

>  <Alpha-1B>
6.37

>  <Alpha-2A>
5.72

>  <Alpha-2B>
6.57

>  <Alpha-2C>
5.84

>  <Beta-1>
5

>  <Beta-2>
5

>  <DOPAMINE D1>
5.67

>  <DOPAMINE D2>
5.23

>  <DOPAMINE D4>
5.42

>  <DOPAMINE D5>
5

>  <Dopamine transporter>
5

>  <HISTAMINE H1>
7.18

>  <HISTAMINE H4>
5

>  <Muscarinic acetylcholine receptor M1>
5

>  <Muscarinic acetylcholine receptor M2>
5

>  <Muscarinic acetylcholine receptor M3>
5

>  <Muscarinic acetylcholine receptor M4>
5

>  <Muscarinic acetylcholine receptor M5>
5

>  <Norepinephrine transporter>
5

>  <Serotonin transporter>
5

$$$$
199111
  Marvin  02231216192D 0   1.00000     0.00000     0

 14 15  0  0  1  0  0  0  0  0999 V2000
   -0.1663    0.8600    0.0000 N   0  0  0  0  0  0  0  0  0
    0.5482    0.4475    0.0000 C   0  0  0  0  0  0  0  0  0
    1.2627    0.8600    0.0000 C   0  0  0  0  0  0  0  0  0
    1.2627    1.6850    0.0000 C   0  0  0  0  0  0  0  0  0
    1.9771    2.0975    0.0000 C   0  0  0  0  0  0  0  0  0
    2.6916    1.6850    0.0000 C   0  0  0  0  0  0  0  0  0
    2.6916    0.8600    0.0000 C   0  0  0  0  0  0  0  0  0
    1.9771    0.4475    0.0000 C   0  0  0  0  0  0  0  0  0
    1.9771   -0.3775    0.0000 N   0  0  0  0  0  0  0  0  0
    2.6916   -0.7900    0.0000 C   0  0  0  0  0  0  0  0  0
    2.6916   -1.6150    0.0000 C   0  0  0  0  0  0  0  0  0
    1.2627   -0.7900    0.0000 C   0  0  0  0  0  0  0  0  0
    0.5482    2.0975    0.0000 C   0  0  0  0  0  0  0  0  0
   -0.1663    1.6850    0.0000 C   0  0  0  0  0  0  0  0  0
  1  2  4  0  0  0  0
  1 14  4  0  0  0  0
  2  3  4  0  0  0  0
  3  4  4  0  0  0  0
  3  8  1  0  0  0  0
  4  5  1  0  0  0  0
  4 13  4  0  0  0  0
  5  6  1  0  0  0  0
  6  7  1  0  0  0  0
  7  8  1  0  0  0  0
  8  9  1  0  0  0  0
  9 10  1  0  0  0  0
  9 12  1  0  0  0  0
 10 11  1  0  0  0  0
 13 14  4  0  0  0  0
M  END
>  <Name_Molregno>
199111

>  <5-HT1A>
5

>  <5-HT1B>
5

>  <5-HT2C>
5

>  <5-HT3>
5

>  <5-HT5>
5

>  <5-HT6>
5

>  <5-HT7>
5

>  <Beta-1>
5

>  <Beta-2>
5

>  <DOPAMINE D1>
5

>  <DOPAMINE D2>
5

>  <DOPAMINE D3>
5

>  <DOPAMINE D4>
5

>  <DOPAMINE D5>
5

>  <HISTAMINE H1>
5

>  <HISTAMINE H2>
5

>  <Muscarinic acetylcholine receptor M1>
5

>  <Muscarinic acetylcholine receptor M2>
5

>  <Muscarinic acetylcholine receptor M3>
5

>  <Muscarinic acetylcholine receptor M4>
5

>  <Muscarinic acetylcholine receptor M5>
5

$$$$
326779
  Marvin  02231216192D 0   1.00000     0.00000     0

 22 26  0  0  1  0  0  0  0  0999 V2000
   -0.5211   -2.3623    0.0000 O   0  0  0  0  0  0  0  0  0
   -1.1353   -1.8115    0.0000 C   0  0  0  0  0  0  0  0  0
   -1.9556   -1.8993    0.0000 N   0  0  0  0  0  0  0  0  0
   -2.4418   -1.2328    0.0000 C   0  0  0  0  0  0  0  0  0
   -2.1077   -0.4784    0.0000 C   0  0  0  0  0  0  0  0  0
   -1.2874   -0.3906    0.0000 C   0  0  0  0  0  0  0  0  0
   -0.8011   -1.0571    0.0000 C   0  0  0  0  0  0  0  0  0
    0.0195   -1.1418    0.0000 C   0  0  0  0  0  0  0  0  0
    0.1926   -1.9484    0.0000 C   0  0  0  0  0  0  0  0  0
    0.9964   -1.5965    0.0000 C   0  0  0  0  0  0  0  0  0
    1.7350   -1.9288    0.0000 C   0  0  0  0  0  0  0  0  0
    1.8876   -2.6918    0.0000 C   0  0  0  0  0  0  0  0  0
    1.1391   -2.3449    0.0000 N   0  0  0  0  0  0  0  0  0
    0.2998   -2.7038    0.0000 C   0  0  0  0  0  0  0  0  0
    1.2788   -1.3063    0.0000 C   0  0  0  0  0  0  0  0  0
    1.0341   -0.7004    0.0000 C   0  0  0  0  0  0  0  0  0
   -2.5939    0.1881    0.0000 C   0  0  0  0  0  0  0  0  0
   -3.4142    0.1002    0.0000 C   0  0  0  0  0  0  0  0  0
   -3.9004    0.7667    0.0000 C   0  0  0  0  0  0  0  0  0
   -3.5663    1.5211    0.0000 C   0  0  0  0  0  0  0  0  0
   -2.7460    1.6089    0.0000 C   0  0  0  0  0  0  0  0  0
   -2.2598    0.9424    0.0000 C   0  0  0  0  0  0  0  0  0
  1  2  1  0  0  0  0
  1  9  1  0  0  0  0
  2  3  4  0  0  0  0
  2  7  4  0  0  0  0
  3  4  4  0  0  0  0
  4  5  4  0  0  0  0
  5  6  4  0  0  0  0
  5 17  1  0  0  0  0
  6  7  4  0  0  0  0
  7  8  1  0  0  0  0
  8  9  1  0  0  0  0
  9 10  1  0  0  0  0
  9 14  1  0  0  0  0
 10 11  1  0  0  0  0
 10 16  1  0  0  0  0
 11 12  1  0  0  0  0
 12 13  1  0  0  0  0
 13 14  1  0  0  0  0
 13 15  1  0  0  0  0
 15 16  1  0  0  0  0
 17 18  4  0  0  0  0
 17 22  4  0  0  0  0
 18 19  4  0  0  0  0
 19 20  4  0  0  0  0
 20 21  4  0  0  0  0
 21 22  4  0  0  0  0
M  END
>  <Name_Molregno>
326779

>  <5-HT3>
7.14

$$$$
326783
  Marvin  02231216192D 0   1.00000     0.00000     0

 22 25  0  0  1  0  0  0  0  0999 V2000
   -2.7931    1.6441    0.0000 S   0  0  0  0  0  0  0  0  0
   -1.9836    1.4847    0.0000 C   0  0  0  0  0  0  0  0  0
   -1.8851    0.6656    0.0000 C   0  0  0  0  0  0  0  0  0
   -2.6336    0.3188    0.0000 N   0  0  0  0  0  0  0  0  0
   -3.1948    0.9235    0.0000 C   0  0  0  0  0  0  0  0  0
   -4.0139    0.8250    0.0000 C   0  0  0  0  0  0  0  0  0
   -4.3381    0.0664    0.0000 C   0  0  0  0  0  0  0  0  0
   -5.1572   -0.0322    0.0000 C   0  0  0  0  0  0  0  0  0
   -5.6521    0.6279    0.0000 C   0  0  0  0  0  0  0  0  0
   -5.3279    1.3865    0.0000 C   0  0  0  0  0  0  0  0  0
   -4.5088    1.4851    0.0000 C   0  0  0  0  0  0  0  0  0
   -1.1645    0.2639    0.0000 C   0  0  0  0  0  0  0  0  0
   -1.1521   -0.5610    0.0000 O   0  0  0  0  0  0  0  0  0
   -0.4563    0.6871    0.0000 N   0  0  0  0  0  0  0  0  0
    0.2643    0.2854    0.0000 C   0  0  0  0  0  0  0  0  0
    1.0681    0.6373    0.0000 C   0  0  0  0  0  0  0  0  0
    1.8067    0.3050    0.0000 C   0  0  0  0  0  0  0  0  0
    1.9593   -0.4580    0.0000 C   0  0  0  0  0  0  0  0  0
    1.2108   -0.1111    0.0000 N   0  0  0  0  0  0  0  0  0
    0.3715   -0.4700    0.0000 C   0  0  0  0  0  0  0  0  0
    1.3505    0.9275    0.0000 C   0  0  0  0  0  0  0  0  0
    1.1058    1.5334    0.0000 C   0  0  0  0  0  0  0  0  0
  1  2  4  0  0  0  0
  1  5  4  0  0  0  0
  2  3  4  0  0  0  0
  3  4  4  0  0  0  0
  3 12  1  0  0  0  0
  4  5  4  0  0  0  0
  5  6  1  0  0  0  0
  6  7  4  0  0  0  0
  6 11  4  0  0  0  0
  7  8  4  0  0  0  0
  8  9  4  0  0  0  0
  9 10  4  0  0  0  0
 10 11  4  0  0  0  0
 12 13  2  0  0  0  0
 12 14  1  0  0  0  0
 14 15  1  0  0  0  0
 15 16  1  0  0  0  0
 15 20  1  0  0  0  0
 16 17  1  0  0  0  0
 16 22  1  0  0  0  0
 17 18  1  0  0  0  0
 18 19  1  0  0  0  0
 19 20  1  0  0  0  0
 19 21  1  0  0  0  0
 21 22  1  0  0  0  0
M  END
>  <Name_Molregno>
326783

>  <5-HT3>
6.18

$$$$
326786
  Marvin  02231216192D 0   1.00000     0.00000     0

 22 25  0  0  1  0  0  0  0  0999 V2000
    0.0389   -0.3529    0.0000 S   0  0  0  0  0  0  0  0  0
   -0.5223    0.2518    0.0000 C   0  0  0  0  0  0  0  0  0
   -0.1206    0.9724    0.0000 C   0  0  0  0  0  0  0  0  0
    0.6889    0.8130    0.0000 C   0  0  0  0  0  0  0  0  0
    0.7874   -0.0061    0.0000 C   0  0  0  0  0  0  0  0  0
    1.5080   -0.4078    0.0000 C   0  0  0  0  0  0  0  0  0
    1.5204   -1.2327    0.0000 O   0  0  0  0  0  0  0  0  0
    2.2162    0.0153    0.0000 N   0  0  0  0  0  0  0  0  0
    2.9368   -0.3864    0.0000 C   0  0  0  0  0  0  0  0  0
    3.7406   -0.0345    0.0000 C   0  0  0  0  0  0  0  0  0
    4.4792   -0.3668    0.0000 C   0  0  0  0  0  0  0  0  0
    4.6318   -1.1298    0.0000 C   0  0  0  0  0  0  0  0  0
    3.8833   -0.7829    0.0000 N   0  0  0  0  0  0  0  0  0
    3.0440   -1.1418    0.0000 C   0  0  0  0  0  0  0  0  0
    4.0230    0.2557    0.0000 C   0  0  0  0  0  0  0  0  0
    3.7783    0.8616    0.0000 C   0  0  0  0  0  0  0  0  0
   -1.3414    0.1532    0.0000 C   0  0  0  0  0  0  0  0  0
   -1.6656   -0.6054    0.0000 C   0  0  0  0  0  0  0  0  0
   -2.4847   -0.7039    0.0000 C   0  0  0  0  0  0  0  0  0
   -2.9796   -0.0438    0.0000 C   0  0  0  0  0  0  0  0  0
   -2.6554    0.7148    0.0000 C   0  0  0  0  0  0  0  0  0
   -1.8363    0.8133    0.0000 C   0  0  0  0  0  0  0  0  0
  1  2  4  0  0  0  0
  1  5  4  0  0  0  0
  2  3  4  0  0  0  0
  2 17  1  0  0  0  0
  3  4  4  0  0  0  0
  4  5  4  0  0  0  0
  5  6  1  0  0  0  0
  6  7  2  0  0  0  0
  6  8  1  0  0  0  0
  8  9  1  0  0  0  0
  9 10  1  0  0  0  0
  9 14  1  0  0  0  0
 10 11  1  0  0  0  0
 10 16  1  0  0  0  0
 11 12  1  0  0  0  0
 12 13  1  0  0  0  0
 13 14  1  0  0  0  0
 13 15  1  0  0  0  0
 15 16  1  0  0  0  0
 17 18  4  0  0  0  0
 17 22  4  0  0  0  0
 18 19  4  0  0  0  0
 19 20  4  0  0  0  0
 20 21  4  0  0  0  0
 21 22  4  0  0  0  0
M  END
>  <Name_Molregno>
326786

>  <5-HT3>
5.73

$$$$
326790
  Marvin  02231216192D 0   1.00000     0.00000     0

 24 28  0  0  1  0  0  0  0  0999 V2000
   -0.7222   -2.2251    0.0000 O   0  0  0  0  0  0  0  0  0
   -1.3364   -1.6742    0.0000 C   0  0  0  0  0  0  0  0  0
   -2.1567   -1.7620    0.0000 N   0  0  0  0  0  0  0  0  0
   -2.6429   -1.0955    0.0000 C   0  0  0  0  0  0  0  0  0
   -2.3088   -0.3412    0.0000 C   0  0  0  0  0  0  0  0  0
   -2.7950    0.3253    0.0000 N   0  0  0  0  0  0  0  0  0
   -3.6153    0.2375    0.0000 C   0  0  0  0  0  0  0  0  0
   -4.1015    0.9040    0.0000 C   0  0  0  0  0  0  0  0  0
   -4.9219    0.8162    0.0000 C   0  0  0  0  0  0  0  0  0
   -5.4081    1.4827    0.0000 C   0  0  0  0  0  0  0  0  0
   -5.0740    2.2370    0.0000 C   0  0  0  0  0  0  0  0  0
   -4.2536    2.3248    0.0000 N   0  0  0  0  0  0  0  0  0
   -3.7674    1.6583    0.0000 C   0  0  0  0  0  0  0  0  0
   -1.4885   -0.2534    0.0000 C   0  0  0  0  0  0  0  0  0
   -1.0023   -0.9199    0.0000 C   0  0  0  0  0  0  0  0  0
   -0.1816   -1.0045    0.0000 C   0  0  0  0  0  0  0  0  0
   -0.0086   -1.8112    0.0000 C   0  0  0  0  0  0  0  0  0
    0.7952   -1.4593    0.0000 C   0  0  0  0  0  0  0  0  0
    1.5338   -1.7916    0.0000 C   0  0  0  0  0  0  0  0  0
    1.6864   -2.5546    0.0000 C   0  0  0  0  0  0  0  0  0
    0.9379   -2.2077    0.0000 N   0  0  0  0  0  0  0  0  0
    0.0986   -2.5666    0.0000 C   0  0  0  0  0  0  0  0  0
    1.0776   -1.1691    0.0000 C   0  0  0  0  0  0  0  0  0
    0.8329   -0.5632    0.0000 C   0  0  0  0  0  0  0  0  0
  1  2  1  0  0  0  0
  1 17  1  0  0  0  0
  2  3  4  0  0  0  0
  2 15  4  0  0  0  0
  3  4  4  0  0  0  0
  4  5  4  0  0  0  0
  5  6  1  0  0  0  0
  5 14  4  0  0  0  0
  6  7  1  0  0  0  0
  7  8  1  0  0  0  0
  8  9  4  0  0  0  0
  8 13  4  0  0  0  0
  9 10  4  0  0  0  0
 10 11  4  0  0  0  0
 11 12  4  0  0  0  0
 12 13  4  0  0  0  0
 14 15  4  0  0  0  0
 15 16  1  0  0  0  0
 16 17  1  0  0  0  0
 17 18  1  0  0  0  0
 17 22  1  0  0  0  0
 18 19  1  0  0  0  0
 18 24  1  0  0  0  0
 19 20  1  0  0  0  0
 20 21  1  0  0  0  0
 21 22  1  0  0  0  0
 21 23  1  0  0  0  0
 23 24  1  0  0  0  0
M  END
>  <Name_Molregno>
326790

>  <5-HT3>
5.65

$$$$
326793
  Marvin  02231216192D 0   1.00000     0.00000     0

 21 24  0  0  1  0  0  0  0  0999 V2000
    0.0037   -0.5444    0.0000 S   0  0  0  0  0  0  0  0  0
   -0.5575    0.0603    0.0000 C   0  0  0  0  0  0  0  0  0
   -0.1558    0.7809    0.0000 C   0  0  0  0  0  0  0  0  0
    0.6537    0.6215    0.0000 C   0  0  0  0  0  0  0  0  0
    0.7522   -0.1976    0.0000 C   0  0  0  0  0  0  0  0  0
    1.4728   -0.5993    0.0000 C   0  0  0  0  0  0  0  0  0
    1.4852   -1.4242    0.0000 O   0  0  0  0  0  0  0  0  0
    2.1810   -0.1761    0.0000 N   0  0  0  0  0  0  0  0  0
    2.9016   -0.5779    0.0000 C   0  0  0  0  0  0  0  0  0
    3.7054   -0.2260    0.0000 C   0  0  0  0  0  0  0  0  0
    4.4440   -0.5583    0.0000 C   0  0  0  0  0  0  0  0  0
    4.5966   -1.3213    0.0000 C   0  0  0  0  0  0  0  0  0
    3.8481   -0.9744    0.0000 N   0  0  0  0  0  0  0  0  0
    3.0088   -1.3333    0.0000 C   0  0  0  0  0  0  0  0  0
    3.9878    0.0642    0.0000 C   0  0  0  0  0  0  0  0  0
    3.7431    0.6701    0.0000 C   0  0  0  0  0  0  0  0  0
   -1.3766   -0.0382    0.0000 C   0  0  0  0  0  0  0  0  0
   -1.7783   -0.7588    0.0000 S   0  0  0  0  0  0  0  0  0
   -2.5878   -0.5994    0.0000 C   0  0  0  0  0  0  0  0  0
   -2.6863    0.2197    0.0000 C   0  0  0  0  0  0  0  0  0
   -1.9378    0.5665    0.0000 C   0  0  0  0  0  0  0  0  0
  1  2  4  0  0  0  0
  1  5  4  0  0  0  0
  2  3  4  0  0  0  0
  2 17  1  0  0  0  0
  3  4  4  0  0  0  0
  4  5  4  0  0  0  0
  5  6  1  0  0  0  0
  6  7  2  0  0  0  0
  6  8  1  0  0  0  0
  8  9  1  0  0  0  0
  9 10  1  0  0  0  0
  9 14  1  0  0  0  0
 10 11  1  0  0  0  0
 10 16  1  0  0  0  0
 11 12  1  0  0  0  0
 12 13  1  0  0  0  0
 13 14  1  0  0  0  0
 13 15  1  0  0  0  0
 15 16  1  0  0  0  0
 17 18  4  0  0  0  0
 17 21  4  0  0  0  0
 18 19  4  0  0  0  0
 19 20  4  0  0  0  0
 20 21  4  0  0  0  0
M  END
>  <Name_Molregno>
326793

>  <5-HT3>
5.98

$$$$
326796
  Marvin  02231216192D 0   1.00000     0.00000     0

 20 23  0  0  1  0  0  0  0  0999 V2000
    1.9489    1.1731    0.0000 S   0  0  0  0  0  0  0  0  0
    2.1204    1.9800    0.0000 C   0  0  0  0  0  0  0  0  0
    1.4059    2.3925    0.0000 C   0  0  0  0  0  0  0  0  0
    0.7928    1.8405    0.0000 C   0  0  0  0  0  0  0  0  0
    1.1284    1.0868    0.0000 C   0  0  0  0  0  0  0  0  0
    0.7159    0.3724    0.0000 C   0  0  0  0  0  0  0  0  0
   -0.1091    0.3724    0.0000 O   0  0  0  0  0  0  0  0  0
    1.1284   -0.3421    0.0000 N   0  0  0  0  0  0  0  0  0
    0.7159   -1.0566    0.0000 C   0  0  0  0  0  0  0  0  0
    1.0557   -1.8656    0.0000 C   0  0  0  0  0  0  0  0  0
    0.7123   -2.5991    0.0000 C   0  0  0  0  0  0  0  0  0
   -0.0529   -2.7402    0.0000 C   0  0  0  0  0  0  0  0  0
    0.3052   -1.9970    0.0000 N   0  0  0  0  0  0  0  0  0
   -0.0410   -1.1524    0.0000 C   0  0  0  0  0  0  0  0  0
    1.3416   -2.1523    0.0000 C   0  0  0  0  0  0  0  0  0
    1.9511   -1.9167    0.0000 C   0  0  0  0  0  0  0  0  0
    1.4059    3.2175    0.0000 C   0  0  0  0  0  0  0  0  0
    2.1204    3.6300    0.0000 C   0  0  0  0  0  0  0  0  0
    2.8349    3.2175    0.0000 C   0  0  0  0  0  0  0  0  0
    2.8349    2.3925    0.0000 C   0  0  0  0  0  0  0  0  0
  1  2  4  0  0  0  0
  1  5  4  0  0  0  0
  2  3  4  0  0  0  0
  2 20  4  0  0  0  0
  3  4  4  0  0  0  0
  3 17  4  0  0  0  0
  4  5  4  0  0  0  0
  5  6  1  0  0  0  0
  6  7  2  0  0  0  0
  6  8  1  0  0  0  0
  8  9  1  0  0  0  0
  9 10  1  0  0  0  0
  9 14  1  0  0  0  0
 10 11  1  0  0  0  0
 10 16  1  0  0  0  0
 11 12  1  0  0  0  0
 12 13  1  0  0  0  0
 13 14  1  0  0  0  0
 13 15  1  0  0  0  0
 15 16  1  0  0  0  0
 17 18  4  0  0  0  0
 18 19  4  0  0  0  0
 19 20  4  0  0  0  0
M  END
>  <Name_Molregno>
326796

>  <5-HT3>
7.3

$$$$
326797
  Marvin  02231216192D 0   1.00000     0.00000     0

 22 25  0  0  1  0  0  0  0  0999 V2000
   -2.7931    1.6441    0.0000 S   0  0  0  0  0  0  0  0  0
   -1.9836    1.4847    0.0000 C   0  0  0  0  0  0  0  0  0
   -1.8851    0.6656    0.0000 C   0  0  0  0  0  0  0  0  0
   -2.6336    0.3188    0.0000 C   0  0  0  0  0  0  0  0  0
   -3.1948    0.9235    0.0000 C   0  0  0  0  0  0  0  0  0
   -4.0139    0.8250    0.0000 C   0  0  0  0  0  0  0  0  0
   -4.3381    0.0664    0.0000 C   0  0  0  0  0  0  0  0  0
   -5.1572   -0.0322    0.0000 C   0  0  0  0  0  0  0  0  0
   -5.6521    0.6279    0.0000 C   0  0  0  0  0  0  0  0  0
   -5.3279    1.3865    0.0000 C   0  0  0  0  0  0  0  0  0
   -4.5088    1.4851    0.0000 C   0  0  0  0  0  0  0  0  0
   -1.1645    0.2639    0.0000 C   0  0  0  0  0  0  0  0  0
   -1.1521   -0.5610    0.0000 O   0  0  0  0  0  0  0  0  0
   -0.4563    0.6871    0.0000 N   0  0  0  0  0  0  0  0  0
    0.2643    0.2854    0.0000 C   0  0  0  0  0  0  0  0  0
    1.0681    0.6373    0.0000 C   0  0  0  0  0  0  0  0  0
    1.8067    0.3050    0.0000 C   0  0  0  0  0  0  0  0  0
    1.9593   -0.4580    0.0000 C   0  0  0  0  0  0  0  0  0
    1.2108   -0.1111    0.0000 N   0  0  0  0  0  0  0  0  0
    0.3715   -0.4700    0.0000 C   0  0  0  0  0  0  0  0  0
    1.3505    0.9275    0.0000 C   0  0  0  0  0  0  0  0  0
    1.1058    1.5334    0.0000 C   0  0  0  0  0  0  0  0  0
  1  2  4  0  0  0  0
  1  5  4  0  0  0  0
  2  3  4  0  0  0  0
  3  4  4  0  0  0  0
  3 12  1  0  0  0  0
  4  5  4  0  0  0  0
  5  6  1  0  0  0  0
  6  7  4  0  0  0  0
  6 11  4  0  0  0  0
  7  8  4  0  0  0  0
  8  9  4  0  0  0  0
  9 10  4  0  0  0  0
 10 11  4  0  0  0  0
 12 13  2  0  0  0  0
 12 14  1  0  0  0  0
 14 15  1  0  0  0  0
 15 16  1  0  0  0  0
 15 20  1  0  0  0  0
 16 17  1  0  0  0  0
 16 22  1  0  0  0  0
 17 18  1  0  0  0  0
 18 19  1  0  0  0  0
 19 20  1  0  0  0  0
 19 21  1  0  0  0  0
 21 22  1  0  0  0  0
M  END
>  <Name_Molregno>
326797

>  <5-HT3>
6.39

$$$$
335202
  Marvin  02231216192D 0   1.00000     0.00000     0

 31 34  0  0  0  0  0  0  0  0999 V2000
   -5.3316    5.4643    0.0000 O   0  0  0  0  0  0  0  0  0
   -6.0461    5.8768    0.0000 C   0  0  0  0  0  0  0  0  0
   -4.6172    5.8768    0.0000 C   0  0  0  0  0  0  0  0  0
   -3.9027    5.4643    0.0000 C   0  0  0  0  0  0  0  0  0
   -3.1882    5.8768    0.0000 C   0  0  0  0  0  0  0  0  0
   -3.1882    6.7018    0.0000 C   0  0  0  0  0  0  0  0  0
   -3.9027    7.1143    0.0000 C   0  0  0  0  0  0  0  0  0
   -4.6172    6.7018    0.0000 C   0  0  0  0  0  0  0  0  0
   -2.4737    7.1143    0.0000 C   0  0  0  0  0  0  0  0  0
   -1.7593    6.7018    0.0000 C   0  0  0  0  0  0  0  0  0
   -1.7593    5.8768    0.0000 C   0  0  0  0  0  0  0  0  0
   -2.4737    5.4643    0.0000 C   0  0  0  0  0  0  0  0  0
   -2.4737    4.6393    0.0000 N   0  0  0  0  0  0  0  0  0
   -1.7593    4.2268    0.0000 C   0  0  0  0  0  0  0  0  0
   -1.7593    3.4018    0.0000 C   0  0  0  0  0  0  0  0  0
   -2.4737    2.9893    0.0000 N   0  0  0  0  0  0  0  0  0
   -3.1882    3.4018    0.0000 C   0  0  0  0  0  0  0  0  0
   -3.1882    4.2268    0.0000 C   0  0  0  0  0  0  0  0  0
   -2.4737    2.1643    0.0000 C   0  0  0  0  0  0  0  0  0
   -1.7593    1.7518    0.0000 C   0  0  0  0  0  0  0  0  0
   -1.7593    0.9268    0.0000 C   0  0  0  0  0  0  0  0  0
   -1.0448    0.5143    0.0000 C   0  0  0  0  0  0  0  0  0
   -1.0448   -0.3107    0.0000 N   0  0  0  0  0  0  0  0  0
   -0.3303   -0.7232    0.0000 N   0  0  0  0  0  0  0  0  0
   -0.3303   -1.5482    0.0000 C   0  0  0  0  0  0  0  0  0
   -1.0448   -1.9607    0.0000 C   0  0  0  0  0  0  0  0  0
   -1.0448   -2.7857    0.0000 O   0  0  0  0  0  0  0  0  0
   -1.7593   -1.5482    0.0000 N   0  0  0  0  0  0  0  0  0
   -2.4737   -1.9607    0.0000 C   0  0  0  0  0  0  0  0  0
   -1.7593   -0.7232    0.0000 C   0  0  0  0  0  0  0  0  0
   -2.4737   -0.3107    0.0000 O   0  0  0  0  0  0  0  0  0
  1  2  1  0  0  0  0
  1  3  1  0  0  0  0
  3  4  4  0  0  0  0
  3  8  4  0  0  0  0
  4  5  4  0  0  0  0
  5  6  4  0  0  0  0
  5 12  4  0  0  0  0
  6  7  4  0  0  0  0
  6  9  4  0  0  0  0
  7  8  4  0  0  0  0
  9 10  4  0  0  0  0
 10 11  4  0  0  0  0
 11 12  4  0  0  0  0
 12 13  1  0  0  0  0
 13 14  1  0  0  0  0
 13 18  1  0  0  0  0
 14 15  1  0  0  0  0
 15 16  1  0  0  0  0
 16 17  1  0  0  0  0
 16 19  1  0  0  0  0
 17 18  1  0  0  0  0
 19 20  1  0  0  0  0
 20 21  1  0  0  0  0
 21 22  1  0  0  0  0
 22 23  1  0  0  0  0
 23 24  1  0  0  0  0
 23 30  1  0  0  0  0
 24 25  2  0  0  0  0
 25 26  1  0  0  0  0
 26 27  2  0  0  0  0
 26 28  1  0  0  0  0
 28 29  1  0  0  0  0
 28 30  1  0  0  0  0
 30 31  2  0  0  0  0
M  END
>  <Name_Molregno>
335202

>  <5-HT1A>
8.87

>  <5-HT2A>
7.38

>  <5-HT2C>
7

>  <5-HT3>
5

>  <5-HT5>
6.64

>  <5-HT6>
6.92

>  <5-HT7>
8.04

>  <Alpha-2A>
5.99

>  <Alpha-2B>
6.5

>  <Alpha-2C>
7.63

>  <Beta-1>
6.32

>  <Beta-2>
7.22

>  <DOPAMINE D1>
5.13

>  <DOPAMINE D2>
7.66

>  <DOPAMINE D3>
7.2

>  <DOPAMINE D4>
8.07

>  <DOPAMINE D5>
5

>  <Dopamine transporter>
6.39

>  <HISTAMINE H1>
6.82

>  <HISTAMINE H2>
6.52

>  <HISTAMINE H3>
5

>  <HISTAMINE H4>
5

>  <Norepinephrine transporter>
5.16

>  <Serotonin transporter>
5.21

$$$$
335730
  Marvin  02231216192D 0   1.00000     0.00000     0

 14 15  0  0  1  0  0  0  0  0999 V2000
    0.1624   -1.0405    0.0000 O   0  0  0  0  0  0  0  0  0
   -0.5521   -0.6280    0.0000 C   0  0  0  0  0  0  0  0  0
   -1.2666   -1.0405    0.0000 C   0  0  0  0  0  0  0  0  0
   -1.9811   -0.6280    0.0000 C   0  0  0  0  0  0  0  0  0
   -2.7657   -0.8829    0.0000 N   0  0  0  0  0  0  0  0  0
   -3.2506   -0.2155    0.0000 N   0  0  0  0  0  0  0  0  0
   -2.7657    0.4520    0.0000 C   0  0  0  0  0  0  0  0  0
   -1.9811    0.1970    0.0000 C   0  0  0  0  0  0  0  0  0
   -1.2666    0.6095    0.0000 C   0  0  0  0  0  0  0  0  0
   -0.5521    0.1970    0.0000 C   0  0  0  0  0  0  0  0  0
   -3.0206   -1.6675    0.0000 C   0  0  0  0  0  0  0  0  0
   -3.8276   -1.8391    0.0000 C   0  0  0  0  0  0  0  0  0
   -4.0825   -2.6237    0.0000 N   0  0  0  0  0  0  0  0  0
   -4.3796   -1.2260    0.0000 C   0  0  0  0  0  0  0  0  0
  1  2  1  0  0  0  0
  2  3  4  0  0  0  0
  2 10  4  0  0  0  0
  3  4  4  0  0  0  0
  4  5  4  0  0  0  0
  4  8  4  0  0  0  0
  5  6  4  0  0  0  0
  5 11  1  0  0  0  0
  6  7  4  0  0  0  0
  7  8  4  0  0  0  0
  8  9  4  0  0  0  0
  9 10  4  0  0  0  0
 11 12  1  0  0  0  0
 12 13  1  0  0  0  0
 12 14  1  0  0  0  0
M  END
>  <Name_Molregno>
335730

>  <5-HT1A>
6.85

>  <5-HT1B>
5

>  <5-HT1D>
5.1

>  <5-HT2A>
7.45

>  <5-HT2C>
8

>  <5-HT3>
5

>  <5-HT5>
5

>  <5-HT6>
5

>  <Alpha-1A>
4.52

>  <Alpha-1B>
4.52

>  <Alpha-2A>
5.64

>  <Alpha-2C>
5.33

>  <Norepinephrine transporter>
5

>  <Serotonin transporter>
5

$$$$
341626
  Marvin  02231216192D 0   1.00000     0.00000     0

 28 32  0  0  0  0  0  0  0  0999 V2000
   -0.6040   -0.8644    0.0000 N   0  0  0  0  0  0  0  0  0
   -0.3491   -0.0798    0.0000 C   0  0  0  0  0  0  0  0  0
    0.4579    0.0918    0.0000 C   0  0  0  0  0  0  0  0  0
    1.0099   -0.5213    0.0000 N   0  0  0  0  0  0  0  0  0
    0.7550   -1.3060    0.0000 C   0  0  0  0  0  0  0  0  0
   -0.0520   -1.4775    0.0000 C   0  0  0  0  0  0  0  0  0
    1.4224   -1.7909    0.0000 C   0  0  0  0  0  0  0  0  0
    2.0899   -1.3060    0.0000 C   0  0  0  0  0  0  0  0  0
    1.8349   -0.5213    0.0000 C   0  0  0  0  0  0  0  0  0
    2.3870    0.0918    0.0000 C   0  0  0  0  0  0  0  0  0
    3.1939   -0.0798    0.0000 C   0  0  0  0  0  0  0  0  0
    3.4489   -0.8644    0.0000 C   0  0  0  0  0  0  0  0  0
    2.8968   -1.4775    0.0000 C   0  0  0  0  0  0  0  0  0
    1.4224   -2.6159    0.0000 C   0  0  0  0  0  0  0  0  0
    2.1369   -3.0284    0.0000 N   0  0  0  0  0  0  0  0  0
    2.1369   -3.8534    0.0000 C   0  0  0  0  0  0  0  0  0
    2.8514   -2.6159    0.0000 C   0  0  0  0  0  0  0  0  0
   -1.0165    0.4051    0.0000 C   0  0  0  0  0  0  0  0  0
   -1.6840   -0.0798    0.0000 C   0  0  0  0  0  0  0  0  0
   -1.4290   -0.8644    0.0000 C   0  0  0  0  0  0  0  0  0
   -1.9811   -1.4775    0.0000 C   0  0  0  0  0  0  0  0  0
   -2.7880   -1.3060    0.0000 C   0  0  0  0  0  0  0  0  0
   -3.0430   -0.5213    0.0000 C   0  0  0  0  0  0  0  0  0
   -2.4909    0.0918    0.0000 C   0  0  0  0  0  0  0  0  0
   -1.0165    1.2301    0.0000 C   0  0  0  0  0  0  0  0  0
   -0.3020    1.6426    0.0000 N   0  0  0  0  0  0  0  0  0
   -0.3020    2.4676    0.0000 C   0  0  0  0  0  0  0  0  0
    0.4124    1.2301    0.0000 C   0  0  0  0  0  0  0  0  0
  1  2  4  0  0  0  0
  1  6  1  0  0  0  0
  1 20  4  0  0  0  0
  2  3  1  0  0  0  0
  2 18  4  0  0  0  0
  3  4  1  0  0  0  0
  4  5  4  0  0  0  0
  4  9  4  0  0  0  0
  5  6  1  0  0  0  0
  5  7  4  0  0  0  0
  7  8  4  0  0  0  0
  7 14  1  0  0  0  0
  8  9  4  0  0  0  0
  8 13  4  0  0  0  0
  9 10  4  0  0  0  0
 10 11  4  0  0  0  0
 11 12  4  0  0  0  0
 12 13  4  0  0  0  0
 14 15  1  0  0  0  0
 15 16  1  0  0  0  0
 15 17  1  0  0  0  0
 18 19  4  0  0  0  0
 18 25  1  0  0  0  0
 19 20  4  0  0  0  0
 19 24  4  0  0  0  0
 20 21  4  0  0  0  0
 21 22  4  0  0  0  0
 22 23  4  0  0  0  0
 23 24  4  0  0  0  0
 25 26  1  0  0  0  0
 26 27  1  0  0  0  0
 26 28  1  0  0  0  0
M  END
>  <Name_Molregno>
341626

>  <5-HT3>
4.33

$$$$
341633
  Marvin  02231216192D 0   1.00000     0.00000     0

 30 34  0  0  0  0  0  0  0  0999 V2000
    2.0274   -1.3121    0.0000 N   0  3  0  0  0  0  0  0  0
    1.3129   -0.8996    0.0000 C   0  0  0  0  0  0  0  0  0
    1.3129   -0.0746    0.0000 C   0  0  0  0  0  0  0  0  0
    1.9804    0.4103    0.0000 C   0  0  0  0  0  0  0  0  0
    1.7254    1.1949    0.0000 N   0  0  0  0  0  0  0  0  0
    2.2775    1.8080    0.0000 C   0  0  0  0  0  0  0  0  0
    3.0844    1.6365    0.0000 C   0  0  0  0  0  0  0  0  0
    3.3394    0.8518    0.0000 N   0  0  0  0  0  0  0  0  0
    2.7873    0.2388    0.0000 C   0  0  0  0  0  0  0  0  0
    4.1644    0.8518    0.0000 C   0  0  0  0  0  0  0  0  0
    4.4193    1.6365    0.0000 C   0  0  0  0  0  0  0  0  0
    5.2263    1.8080    0.0000 C   0  0  0  0  0  0  0  0  0
    5.7783    1.1949    0.0000 C   0  0  0  0  0  0  0  0  0
    5.5234    0.4103    0.0000 C   0  0  0  0  0  0  0  0  0
    4.7164    0.2388    0.0000 C   0  0  0  0  0  0  0  0  0
    3.7519    2.1214    0.0000 C   0  0  0  0  0  0  0  0  0
    3.7519    2.9464    0.0000 C   0  0  0  0  0  0  0  0  0
    4.4663    3.3589    0.0000 N   0  3  0  0  0  0  0  0  0
    5.1808    3.7714    0.0000 C   0  0  0  0  0  0  0  0  0
    4.0538    4.0734    0.0000 C   0  0  0  0  0  0  0  0  0
    4.8788    2.6444    0.0000 C   0  0  0  0  0  0  0  0  0
    0.9004    1.1949    0.0000 C   0  0  0  0  0  0  0  0  0
    0.6455    0.4103    0.0000 C   0  0  0  0  0  0  0  0  0
   -0.1615    0.2388    0.0000 C   0  0  0  0  0  0  0  0  0
   -0.7135    0.8518    0.0000 C   0  0  0  0  0  0  0  0  0
   -0.4586    1.6365    0.0000 C   0  0  0  0  0  0  0  0  0
    0.3484    1.8080    0.0000 C   0  0  0  0  0  0  0  0  0
    2.7419   -1.7246    0.0000 C   0  0  0  0  0  0  0  0  0
    1.6149   -2.0266    0.0000 C   0  0  0  0  0  0  0  0  0
    2.4399   -0.5977    0.0000 C   0  0  0  0  0  0  0  0  0
  1  2  1  0  0  0  0
  1 28  1  0  0  0  0
  1 29  1  0  0  0  0
  1 30  1  0  0  0  0
  2  3  1  0  0  0  0
  3  4  4  0  0  0  0
  3 23  4  0  0  0  0
  4  5  4  0  0  0  0
  4  9  1  0  0  0  0
  5  6  1  0  0  0  0
  5 22  4  0  0  0  0
  6  7  1  0  0  0  0
  7  8  4  0  0  0  0
  7 16  4  0  0  0  0
  8  9  1  0  0  0  0
  8 10  4  0  0  0  0
 10 11  4  0  0  0  0
 10 15  4  0  0  0  0
 11 12  4  0  0  0  0
 11 16  4  0  0  0  0
 12 13  4  0  0  0  0
 13 14  4  0  0  0  0
 14 15  4  0  0  0  0
 16 17  1  0  0  0  0
 17 18  1  0  0  0  0
 18 19  1  0  0  0  0
 18 20  1  0  0  0  0
 18 21  1  0  0  0  0
 22 23  4  0  0  0  0
 22 27  4  0  0  0  0
 23 24  4  0  0  0  0
 24 25  4  0  0  0  0
 25 26  4  0  0  0  0
 26 27  4  0  0  0  0
M  CHG  2   1   1  18   1
M  END
>  <Name_Molregno>
341633

>  <5-HT3>
4.74

$$$$
341711
  Marvin  02231216192D 0   1.00000     0.00000     0

 34 38  0  0  0  0  0  0  0  0999 V2000
    2.0599   -2.2710    0.0000 N   0  3  0  0  0  0  0  0  0
    1.3455   -1.8585    0.0000 C   0  0  0  0  0  0  0  0  0
    1.3455   -1.0335    0.0000 C   0  0  0  0  0  0  0  0  0
    2.0129   -0.5486    0.0000 C   0  0  0  0  0  0  0  0  0
    1.7580    0.2360    0.0000 N   0  0  0  0  0  0  0  0  0
    2.3100    0.8491    0.0000 C   0  0  0  0  0  0  0  0  0
    3.1170    0.6776    0.0000 C   0  0  0  0  0  0  0  0  0
    3.3719   -0.1071    0.0000 N   0  0  0  0  0  0  0  0  0
    2.8199   -0.7201    0.0000 C   0  0  0  0  0  0  0  0  0
    4.1969   -0.1071    0.0000 C   0  0  0  0  0  0  0  0  0
    4.4518    0.6776    0.0000 C   0  0  0  0  0  0  0  0  0
    5.2588    0.8491    0.0000 C   0  0  0  0  0  0  0  0  0
    5.8108    0.2360    0.0000 C   0  0  0  0  0  0  0  0  0
    5.5559   -0.5486    0.0000 C   0  0  0  0  0  0  0  0  0
    4.7489   -0.7201    0.0000 C   0  0  0  0  0  0  0  0  0
    3.7844    1.1625    0.0000 C   0  0  0  0  0  0  0  0  0
    3.7844    1.9875    0.0000 C   0  0  0  0  0  0  0  0  0
    4.4989    2.4000    0.0000 N   0  3  0  0  0  0  0  0  0
    5.2133    2.8125    0.0000 C   0  0  0  0  0  0  0  0  0
    5.2133    3.6375    0.0000 C   0  0  0  0  0  0  0  0  0
    5.9278    4.0500    0.0000 C   0  0  0  0  0  0  0  0  0
    4.0864    3.1145    0.0000 C   0  0  0  0  0  0  0  0  0
    4.9114    1.6855    0.0000 C   0  0  0  0  0  0  0  0  0
    0.9330    0.2360    0.0000 C   0  0  0  0  0  0  0  0  0
    0.6780   -0.5486    0.0000 C   0  0  0  0  0  0  0  0  0
   -0.1290   -0.7201    0.0000 C   0  0  0  0  0  0  0  0  0
   -0.6810   -0.1071    0.0000 C   0  0  0  0  0  0  0  0  0
   -0.4260    0.6776    0.0000 C   0  0  0  0  0  0  0  0  0
    0.3809    0.8491    0.0000 C   0  0  0  0  0  0  0  0  0
    2.7744   -2.6835    0.0000 C   0  0  0  0  0  0  0  0  0
    2.7744   -3.5085    0.0000 C   0  0  0  0  0  0  0  0  0
    3.4889   -3.9210    0.0000 C   0  0  0  0  0  0  0  0  0
    1.6474   -2.9855    0.0000 C   0  0  0  0  0  0  0  0  0
    2.4724   -1.5566    0.0000 C   0  0  0  0  0  0  0  0  0
  1  2  1  0  0  0  0
  1 30  1  0  0  0  0
  1 33  1  0  0  0  0
  1 34  1  0  0  0  0
  2  3  1  0  0  0  0
  3  4  4  0  0  0  0
  3 25  4  0  0  0  0
  4  5  4  0  0  0  0
  4  9  1  0  0  0  0
  5  6  1  0  0  0  0
  5 24  4  0  0  0  0
  6  7  1  0  0  0  0
  7  8  4  0  0  0  0
  7 16  4  0  0  0  0
  8  9  1  0  0  0  0
  8 10  4  0  0  0  0
 10 11  4  0  0  0  0
 10 15  4  0  0  0  0
 11 12  4  0  0  0  0
 11 16  4  0  0  0  0
 12 13  4  0  0  0  0
 13 14  4  0  0  0  0
 14 15  4  0  0  0  0
 16 17  1  0  0  0  0
 17 18  1  0  0  0  0
 18 19  1  0  0  0  0
 18 22  1  0  0  0  0
 18 23  1  0  0  0  0
 19 20  1  0  0  0  0
 20 21  2  0  0  0  0
 24 25  4  0  0  0  0
 24 29  4  0  0  0  0
 25 26  4  0  0  0  0
 26 27  4  0  0  0  0
 27 28  4  0  0  0  0
 28 29  4  0  0  0  0
 30 31  1  0  0  0  0
 31 32  2  0  0  0  0
M  CHG  2   1   1  18   1
M  END
>  <Name_Molregno>
341711

>  <5-HT3>
4.33

$$$$
342514
  Marvin  02231216192D 0   1.00000     0.00000     0

 20 23  0  0  1  0  0  0  0  0999 V2000
   -3.9747   -0.6378    0.0000 O   0  0  0  0  0  0  0  0  0
   -4.5268   -1.2508    0.0000 C   0  0  0  0  0  0  0  0  0
   -5.3338   -1.0793    0.0000 C   0  0  0  0  0  0  0  0  0
   -6.1184   -1.3343    0.0000 C   0  0  0  0  0  0  0  0  0
   -5.9468   -0.5273    0.0000 C   0  0  0  0  0  0  0  0  0
   -3.1678   -0.8093    0.0000 C   0  0  0  0  0  0  0  0  0
   -2.6157   -0.1962    0.0000 C   0  0  0  0  0  0  0  0  0
   -1.8088   -0.3677    0.0000 N   0  0  0  0  0  0  0  0  0
   -1.2567    0.2454    0.0000 C   0  0  0  0  0  0  0  0  0
   -0.4317    0.2454    0.0000 N   0  0  0  0  0  0  0  0  0
   -0.1768    1.0300    0.0000 C   0  0  0  0  0  0  0  0  0
   -0.8442    1.5149    0.0000 C   0  0  0  0  0  0  0  0  0
   -1.5117    1.0300    0.0000 C   0  0  0  0  0  0  0  0  0
   -2.3187    1.2015    0.0000 C   0  0  0  0  0  0  0  0  0
   -2.8707    0.5884    0.0000 C   0  0  0  0  0  0  0  0  0
    0.6302    1.2015    0.0000 C   0  0  0  0  0  0  0  0  0
    1.1822    0.5884    0.0000 N   0  0  0  0  0  0  0  0  0
    0.9273   -0.1962    0.0000 C   0  0  0  0  0  0  0  0  0
    0.1203   -0.3677    0.0000 C   0  0  0  0  0  0  0  0  0
   -0.1346   -1.1523    0.0000 C   0  0  0  0  0  0  0  0  0
  1  2  1  0  0  0  0
  1  6  1  0  0  0  0
  2  3  1  0  0  0  0
  3  4  1  0  0  0  0
  3  5  1  0  0  0  0
  4  5  1  0  0  0  0
  6  7  1  0  0  0  0
  7  8  4  0  0  0  0
  7 15  4  0  0  0  0
  8  9  4  0  0  0  0
  9 10  1  0  0  0  0
  9 13  4  0  0  0  0
 10 11  1  0  0  0  0
 10 19  1  0  0  0  0
 11 12  1  0  0  0  0
 11 16  1  0  0  0  0
 12 13  1  0  0  0  0
 13 14  4  0  0  0  0
 14 15  4  0  0  0  0
 16 17  1  0  0  0  0
 17 18  1  0  0  0  0
 18 19  1  0  0  0  0
 19 20  1  0  0  0  0
M  END
>  <Name_Molregno>
342514

>  <5-HT1A>
6.14

>  <5-HT1B>
6.14

>  <5-HT1D>
6.44

>  <5-HT2A>
7.13

>  <5-HT2C>
8.44

>  <5-HT3>
6

>  <5-HT5>
6.14

>  <5-HT6>
6.14

>  <5-HT7>
6

>  <Beta-1>
6

>  <DOPAMINE D4>
6.14

>  <Dopamine transporter>
6

>  <Norepinephrine transporter>
6

>  <Serotonin transporter>
6

$$$$
344371
  Marvin  02231216192D 0   1.00000     0.00000     0

 27 29  0  0  0  0  0  0  0  0999 V2000
   -8.3424    3.5017    0.0000 O   0  0  0  0  0  0  0  0  0
   -9.0569    3.9142    0.0000 C   0  0  0  0  0  0  0  0  0
   -8.3424    2.6767    0.0000 C   0  0  0  0  0  0  0  0  0
   -7.6279    2.2642    0.0000 C   0  0  0  0  0  0  0  0  0
   -7.6279    1.4392    0.0000 C   0  0  0  0  0  0  0  0  0
   -6.9134    1.0267    0.0000 N   0  0  0  0  0  0  0  0  0
   -6.1990    1.4392    0.0000 C   0  0  0  0  0  0  0  0  0
   -5.4845    1.0267    0.0000 C   0  0  0  0  0  0  0  0  0
   -5.4845    0.2017    0.0000 N   0  0  0  0  0  0  0  0  0
   -6.1990   -0.2108    0.0000 C   0  0  0  0  0  0  0  0  0
   -6.9134    0.2017    0.0000 C   0  0  0  0  0  0  0  0  0
   -4.7700   -0.2108    0.0000 C   0  0  0  0  0  0  0  0  0
   -4.0556    0.2017    0.0000 C   0  0  0  0  0  0  0  0  0
   -3.3411   -0.2108    0.0000 C   0  0  0  0  0  0  0  0  0
   -2.6266    0.2017    0.0000 C   0  0  0  0  0  0  0  0  0
   -1.9121   -0.2108    0.0000 N   0  0  0  0  0  0  0  0  0
   -1.1977    0.2017    0.0000 N   0  0  0  0  0  0  0  0  0
   -0.4832   -0.2108    0.0000 C   0  0  0  0  0  0  0  0  0
   -0.4832   -1.0358    0.0000 C   0  0  0  0  0  0  0  0  0
    0.2313   -1.4483    0.0000 O   0  0  0  0  0  0  0  0  0
   -1.1977   -1.4483    0.0000 N   0  0  0  0  0  0  0  0  0
   -1.1977   -2.2733    0.0000 C   0  0  0  0  0  0  0  0  0
   -1.9121   -1.0358    0.0000 C   0  0  0  0  0  0  0  0  0
   -2.6266   -1.4483    0.0000 O   0  0  0  0  0  0  0  0  0
   -8.3424    1.0267    0.0000 C   0  0  0  0  0  0  0  0  0
   -9.0569    1.4392    0.0000 C   0  0  0  0  0  0  0  0  0
   -9.0569    2.2642    0.0000 C   0  0  0  0  0  0  0  0  0
  1  2  1  0  0  0  0
  1  3  1  0  0  0  0
  3  4  4  0  0  0  0
  3 27  4  0  0  0  0
  4  5  4  0  0  0  0
  5  6  1  0  0  0  0
  5 25  4  0  0  0  0
  6  7  1  0  0  0  0
  6 11  1  0  0  0  0
  7  8  1  0  0  0  0
  8  9  1  0  0  0  0
  9 10  1  0  0  0  0
  9 12  1  0  0  0  0
 10 11  1  0  0  0  0
 12 13  1  0  0  0  0
 13 14  1  0  0  0  0
 14 15  1  0  0  0  0
 15 16  1  0  0  0  0
 16 17  1  0  0  0  0
 16 23  1  0  0  0  0
 17 18  2  0  0  0  0
 18 19  1  0  0  0  0
 19 20  2  0  0  0  0
 19 21  1  0  0  0  0
 21 22  1  0  0  0  0
 21 23  1  0  0  0  0
 23 24  2  0  0  0  0
 25 26  4  0  0  0  0
 26 27  4  0  0  0  0
M  END
>  <Name_Molregno>
344371

>  <5-HT1A>
8.96

>  <5-HT1B>
6.64

>  <5-HT1E>
5

>  <5-HT2A>
5.68

>  <5-HT3>
5

>  <5-HT5>
5

>  <5-HT6>
5

>  <5-HT7>
6.48

>  <Alpha-1A>
6.38

>  <Alpha-1B>
6.42

>  <Alpha-2A>
6.6

>  <Alpha-2C>
6.96

>  <DOPAMINE D2>
5.59

>  <DOPAMINE D3>
5

>  <DOPAMINE D4>
5

>  <DOPAMINE D5>
5

>  <Dopamine transporter>
5

>  <HISTAMINE H1>
6.08

>  <HISTAMINE H2>
5.67

>  <HISTAMINE H3>
5

>  <HISTAMINE H4>
5

>  <Norepinephrine transporter>
5

>  <Serotonin transporter>
5

$$$$
352768
  Marvin  02231216192D 0   1.00000     0.00000     0

 20 23  0  0  1  0  0  0  0  0999 V2000
   -1.1830   -2.1370    0.0000 O   0  0  0  0  0  0  0  0  0
   -1.3546   -1.3301    0.0000 C   0  0  0  0  0  0  0  0  0
   -2.0690   -0.9176    0.0000 C   0  0  0  0  0  0  0  0  0
   -2.0690   -0.0926    0.0000 C   0  0  0  0  0  0  0  0  0
   -1.3546    0.3199    0.0000 C   0  0  0  0  0  0  0  0  0
   -0.6401   -0.0926    0.0000 C   0  0  0  0  0  0  0  0  0
   -0.6401   -0.9176    0.0000 C   0  0  0  0  0  0  0  0  0
   -0.0270   -1.4696    0.0000 C   0  0  0  0  0  0  0  0  0
   -0.3625   -2.2233    0.0000 C   0  0  0  0  0  0  0  0  0
   -2.7835    0.3199    0.0000 C   0  0  0  0  0  0  0  0  0
   -2.7835    1.1449    0.0000 O   0  0  0  0  0  0  0  0  0
   -3.4980   -0.0926    0.0000 N   0  0  0  0  0  0  0  0  0
   -4.2124    0.3199    0.0000 C   0  0  0  0  0  0  0  0  0
   -5.0214   -0.0199    0.0000 C   0  0  0  0  0  0  0  0  0
   -5.7550    0.3235    0.0000 C   0  0  0  0  0  0  0  0  0
   -5.8961    1.0887    0.0000 C   0  0  0  0  0  0  0  0  0
   -5.1529    0.7306    0.0000 N   0  0  0  0  0  0  0  0  0
   -4.3083    1.0769    0.0000 C   0  0  0  0  0  0  0  0  0
   -5.3082   -0.3058    0.0000 C   0  0  0  0  0  0  0  0  0
   -5.0726   -0.9153    0.0000 C   0  0  0  0  0  0  0  0  0
  1  2  4  0  0  0  0
  1  9  4  0  0  0  0
  2  3  4  0  0  0  0
  2  7  4  0  0  0  0
  3  4  4  0  0  0  0
  4  5  4  0  0  0  0
  4 10  1  0  0  0  0
  5  6  4  0  0  0  0
  6  7  4  0  0  0  0
  7  8  4  0  0  0  0
  8  9  4  0  0  0  0
 10 11  2  0  0  0  0
 10 12  1  0  0  0  0
 12 13  1  0  0  0  0
 13 14  1  0  0  0  0
 13 18  1  0  0  0  0
 14 15  1  0  0  0  0
 14 20  1  0  0  0  0
 15 16  1  0  0  0  0
 16 17  1  0  0  0  0
 17 18  1  0  0  0  0
 17 19  1  0  0  0  0
 19 20  1  0  0  0  0
M  END
>  <Name_Molregno>
352768

>  <5-HT3>
6.27

$$$$
352807
  Marvin  02231216192D 0   1.00000     0.00000     0

 20 23  0  0  1  0  0  0  0  0999 V2000
    3.6476   -3.3415    0.0000 O   0  0  0  0  0  0  0  0  0
    3.8191   -2.5345    0.0000 C   0  0  0  0  0  0  0  0  0
    3.1046   -2.1220    0.0000 C   0  0  0  0  0  0  0  0  0
    3.1046   -1.2970    0.0000 C   0  0  0  0  0  0  0  0  0
    3.8191   -0.8845    0.0000 C   0  0  0  0  0  0  0  0  0
    4.5335   -1.2970    0.0000 N   0  0  0  0  0  0  0  0  0
    4.5335   -2.1220    0.0000 C   0  0  0  0  0  0  0  0  0
    3.8191   -0.0595    0.0000 C   0  0  0  0  0  0  0  0  0
    4.5335    0.3530    0.0000 O   0  0  0  0  0  0  0  0  0
    3.1046    0.3530    0.0000 N   0  0  0  0  0  0  0  0  0
    3.1046    1.1780    0.0000 C   0  0  0  0  0  0  0  0  0
    2.4058    1.7087    0.0000 C   0  0  0  0  0  0  0  0  0
    2.3364    2.5157    0.0000 C   0  0  0  0  0  0  0  0  0
    2.9286    3.0205    0.0000 C   0  0  0  0  0  0  0  0  0
    2.9900    2.1978    0.0000 N   0  0  0  0  0  0  0  0  0
    3.7122    1.6395    0.0000 C   0  0  0  0  0  0  0  0  0
    2.0149    1.8141    0.0000 C   0  0  0  0  0  0  0  0  0
    1.6048    1.3053    0.0000 C   0  0  0  0  0  0  0  0  0
    2.4915   -2.6740    0.0000 C   0  0  0  0  0  0  0  0  0
    2.8271   -3.4277    0.0000 C   0  0  0  0  0  0  0  0  0
  1  2  4  0  0  0  0
  1 20  4  0  0  0  0
  2  3  4  0  0  0  0
  2  7  4  0  0  0  0
  3  4  4  0  0  0  0
  3 19  4  0  0  0  0
  4  5  4  0  0  0  0
  5  6  4  0  0  0  0
  5  8  1  0  0  0  0
  6  7  4  0  0  0  0
  8  9  2  0  0  0  0
  8 10  1  0  0  0  0
 10 11  1  0  0  0  0
 11 12  1  0  0  0  0
 11 16  1  0  0  0  0
 12 13  1  0  0  0  0
 12 18  1  0  0  0  0
 13 14  1  0  0  0  0
 14 15  1  0  0  0  0
 15 16  1  0  0  0  0
 15 17  1  0  0  0  0
 17 18  1  0  0  0  0
 19 20  4  0  0  0  0
M  END
>  <Name_Molregno>
352807

>  <5-HT3>
6.24

$$$$
352875
  Marvin  02231216192D 0   1.00000     0.00000     0

 20 23  0  0  1  0  0  0  0  0999 V2000
   -1.1830   -2.1370    0.0000 S   0  0  0  0  0  0  0  0  0
   -1.3546   -1.3301    0.0000 C   0  0  0  0  0  0  0  0  0
   -2.0690   -0.9176    0.0000 C   0  0  0  0  0  0  0  0  0
   -2.0690   -0.0926    0.0000 C   0  0  0  0  0  0  0  0  0
   -1.3546    0.3199    0.0000 C   0  0  0  0  0  0  0  0  0
   -0.6401   -0.0926    0.0000 C   0  0  0  0  0  0  0  0  0
   -0.6401   -0.9176    0.0000 C   0  0  0  0  0  0  0  0  0
   -0.0270   -1.4696    0.0000 C   0  0  0  0  0  0  0  0  0
   -0.3625   -2.2233    0.0000 C   0  0  0  0  0  0  0  0  0
   -2.7835    0.3199    0.0000 C   0  0  0  0  0  0  0  0  0
   -2.7835    1.1449    0.0000 O   0  0  0  0  0  0  0  0  0
   -3.4980   -0.0926    0.0000 N   0  0  0  0  0  0  0  0  0
   -4.2124    0.3199    0.0000 C   0  0  0  0  0  0  0  0  0
   -5.0214   -0.0199    0.0000 C   0  0  0  0  0  0  0  0  0
   -5.7550    0.3235    0.0000 C   0  0  0  0  0  0  0  0  0
   -5.8961    1.0887    0.0000 C   0  0  0  0  0  0  0  0  0
   -5.1529    0.7306    0.0000 N   0  0  0  0  0  0  0  0  0
   -4.3083    1.0769    0.0000 C   0  0  0  0  0  0  0  0  0
   -5.3082   -0.3058    0.0000 C   0  0  0  0  0  0  0  0  0
   -5.0726   -0.9153    0.0000 C   0  0  0  0  0  0  0  0  0
  1  2  4  0  0  0  0
  1  9  4  0  0  0  0
  2  3  4  0  0  0  0
  2  7  4  0  0  0  0
  3  4  4  0  0  0  0
  4  5  4  0  0  0  0
  4 10  1  0  0  0  0
  5  6  4  0  0  0  0
  6  7  4  0  0  0  0
  7  8  4  0  0  0  0
  8  9  4  0  0  0  0
 10 11  2  0  0  0  0
 10 12  1  0  0  0  0
 12 13  1  0  0  0  0
 13 14  1  0  0  0  0
 13 18  1  0  0  0  0
 14 15  1  0  0  0  0
 14 20  1  0  0  0  0
 15 16  1  0  0  0  0
 16 17  1  0  0  0  0
 17 18  1  0  0  0  0
 17 19  1  0  0  0  0
 19 20  1  0  0  0  0
M  END
>  <Name_Molregno>
352875

>  <5-HT3>
6.75

$$$$
352902
  Marvin  02231216192D 0   1.00000     0.00000     0

 20 23  0  0  1  0  0  0  0  0999 V2000
    3.6476   -3.3415    0.0000 O   0  0  0  0  0  0  0  0  0
    3.8191   -2.5345    0.0000 C   0  0  0  0  0  0  0  0  0
    3.1046   -2.1220    0.0000 C   0  0  0  0  0  0  0  0  0
    3.1046   -1.2970    0.0000 C   0  0  0  0  0  0  0  0  0
    3.8191   -0.8845    0.0000 C   0  0  0  0  0  0  0  0  0
    4.5335   -1.2970    0.0000 C   0  0  0  0  0  0  0  0  0
    4.5335   -2.1220    0.0000 C   0  0  0  0  0  0  0  0  0
    3.8191   -0.0595    0.0000 C   0  0  0  0  0  0  0  0  0
    4.5335    0.3530    0.0000 O   0  0  0  0  0  0  0  0  0
    3.1046    0.3530    0.0000 N   0  0  0  0  0  0  0  0  0
    3.1046    1.1780    0.0000 C   0  0  0  0  0  0  0  0  0
    2.4058    1.7087    0.0000 C   0  0  0  0  0  0  0  0  0
    2.3364    2.5157    0.0000 C   0  0  0  0  0  0  0  0  0
    2.9286    3.0205    0.0000 C   0  0  0  0  0  0  0  0  0
    2.9900    2.1978    0.0000 N   0  0  0  0  0  0  0  0  0
    3.7122    1.6395    0.0000 C   0  0  0  0  0  0  0  0  0
    2.0149    1.8141    0.0000 C   0  0  0  0  0  0  0  0  0
    1.6048    1.3053    0.0000 C   0  0  0  0  0  0  0  0  0
    2.4915   -2.6740    0.0000 C   0  0  0  0  0  0  0  0  0
    2.8271   -3.4277    0.0000 C   0  0  0  0  0  0  0  0  0
  1  2  4  0  0  0  0
  1 20  4  0  0  0  0
  2  3  4  0  0  0  0
  2  7  4  0  0  0  0
  3  4  4  0  0  0  0
  3 19  4  0  0  0  0
  4  5  4  0  0  0  0
  5  6  4  0  0  0  0
  5  8  1  0  0  0  0
  6  7  4  0  0  0  0
  8  9  2  0  0  0  0
  8 10  1  0  0  0  0
 10 11  1  0  0  0  0
 11 12  1  0  0  0  0
 11 16  1  0  0  0  0
 12 13  1  0  0  0  0
 12 18  1  0  0  0  0
 13 14  1  0  0  0  0
 14 15  1  0  0  0  0
 15 16  1  0  0  0  0
 15 17  1  0  0  0  0
 17 18  1  0  0  0  0
 19 20  4  0  0  0  0
M  END
>  <Name_Molregno>
352902

>  <5-HT3>
6.21

$$$$
373376
  Marvin  02231216192D 0   1.00000     0.00000     0

 20 22  0  0  1  0  0  0  0  0999 V2000
    2.1624   -5.2159    0.0000 Cl  0  0  0  0  0  0  0  0  0
    2.5756   -4.5019    0.0000 C   0  0  0  0  0  0  0  0  0
    2.1638   -3.7870    0.0000 C   0  0  0  0  0  0  0  0  0
    2.5770   -3.0729    0.0000 C   0  0  0  0  0  0  0  0  0
    3.4020   -3.0738    0.0000 C   0  0  0  0  0  0  0  0  0
    3.8138   -3.7886    0.0000 C   0  0  0  0  0  0  0  0  0
    4.6388   -3.7894    0.0000 Cl  0  0  0  0  0  0  0  0  0
    3.4006   -4.5027    0.0000 C   0  0  0  0  0  0  0  0  0
    2.1652   -2.3581    0.0000 C   0  0  0  0  0  0  0  0  0
    2.5784   -1.6440    0.0000 O   0  0  0  0  0  0  0  0  0
    2.1666   -0.9291    0.0000 C   0  0  0  0  0  0  0  0  0
    2.0284   -0.1117    0.0000 C   0  0  0  0  0  0  0  0  0
    1.0996   -0.1272    0.0000 C   0  0  0  0  0  0  0  0  0
    0.5390    0.3127    0.0000 N   0  0  0  0  0  0  0  0  0
    0.6787   -0.5004    0.0000 C   0  0  0  0  0  0  0  0  0
    1.6504   -0.5004    0.0000 C   0  0  0  0  0  0  0  0  0
    0.1588   -1.2127    0.0000 C   0  0  0  0  0  0  0  0  0
    0.7791   -0.8358    0.0000 C   0  0  0  0  0  0  0  0  0
    0.1164    1.0212    0.0000 C   0  0  0  0  0  0  0  0  0
    1.3402   -2.3573    0.0000 O   0  0  0  0  0  0  0  0  0
  1  2  1  0  0  0  0
  2  3  4  0  0  0  0
  2  8  4  0  0  0  0
  3  4  4  0  0  0  0
  4  5  4  0  0  0  0
  4  9  1  0  0  0  0
  5  6  4  0  0  0  0
  6  7  1  0  0  0  0
  6  8  4  0  0  0  0
  9 10  1  0  0  0  0
  9 20  2  0  0  0  0
 10 11  1  0  0  0  0
 11 12  1  0  0  0  0
 11 16  1  0  0  0  0
 12 13  1  0  0  0  0
 13 14  1  0  0  0  0
 13 18  1  0  0  0  0
 14 15  1  0  0  0  0
 14 19  1  0  0  0  0
 15 16  1  0  0  0  0
 15 17  1  0  0  0  0
 17 18  1  0  0  0  0
M  END
>  <Name_Molregno>
373376

>  <5-HT1A>
5

>  <5-HT1D>
5

>  <5-HT3>
8

>  <DOPAMINE D1>
5

>  <DOPAMINE D2>
5

$$$$
382415
  Marvin  02231216192D 0   1.00000     0.00000     0

 18 19  0  0  0  0  0  0  0  0999 V2000
   -0.7360    1.4792    0.0000 S   0  0  0  0  0  0  0  0  0
   -0.9909    0.6946    0.0000 C   0  0  0  0  0  0  0  0  0
   -1.8159    0.6946    0.0000 C   0  0  0  0  0  0  0  0  0
   -2.0709    1.4792    0.0000 N   0  0  0  0  0  0  0  0  0
   -1.4034    1.9642    0.0000 C   0  0  0  0  0  0  0  0  0
   -1.4034    2.7892    0.0000 C   0  0  0  0  0  0  0  0  0
   -0.6890    3.2017    0.0000 F   0  0  0  0  0  0  0  0  0
   -2.3008    0.0272    0.0000 C   0  0  0  0  0  0  0  0  0
   -2.7858   -0.6403    0.0000 C   0  0  0  0  0  0  0  0  0
   -3.2707   -1.3077    0.0000 C   0  0  0  0  0  0  0  0  0
   -2.9351   -2.0614    0.0000 C   0  0  0  0  0  0  0  0  0
   -3.4201   -2.7288    0.0000 C   0  0  0  0  0  0  0  0  0
   -4.2405   -2.6426    0.0000 C   0  0  0  0  0  0  0  0  0
   -4.5761   -1.8889    0.0000 C   0  0  0  0  0  0  0  0  0
   -5.3966   -1.8027    0.0000 F   0  0  0  0  0  0  0  0  0
   -4.0912   -1.2215    0.0000 C   0  0  0  0  0  0  0  0  0
   -3.0845   -3.4825    0.0000 C   0  0  0  0  0  0  0  0  0
   -2.7489   -4.2362    0.0000 N   0  0  0  0  0  0  0  0  0
  1  2  4  0  0  0  0
  1  5  4  0  0  0  0
  2  3  4  0  0  0  0
  3  4  4  0  0  0  0
  3  8  1  0  0  0  0
  4  5  4  0  0  0  0
  5  6  1  0  0  0  0
  6  7  1  0  0  0  0
  8  9  3  0  0  0  0
  9 10  1  0  0  0  0
 10 11  4  0  0  0  0
 10 16  4  0  0  0  0
 11 12  4  0  0  0  0
 12 13  4  0  0  0  0
 12 17  1  0  0  0  0
 13 14  4  0  0  0  0
 14 15  1  0  0  0  0
 14 16  4  0  0  0  0
 17 18  3  0  0  0  0
M  END
>  <Name_Molregno>
382415

>  <5-HT1A>
5

>  <5-HT1B>
5

>  <5-HT1D>
5

>  <5-HT1E>
5

>  <5-HT2A>
5

>  <5-HT2C>
5

>  <5-HT3>
5

>  <5-HT5>
5

>  <5-HT6>
5

>  <5-HT7>
5

>  <Alpha-1A>
5

>  <Alpha-1B>
5

>  <Alpha-2A>
5

>  <Alpha-2B>
5

>  <Alpha-2C>
5

>  <Beta-1>
5

>  <Beta-2>
5

>  <DOPAMINE D1>
5

>  <DOPAMINE D2>
5

>  <DOPAMINE D3>
5

>  <DOPAMINE D4>
5

>  <DOPAMINE D5>
5

>  <Dopamine transporter>
5

>  <HISTAMINE H1>
5

>  <HISTAMINE H2>
5

>  <HISTAMINE H3>
5

>  <HISTAMINE H4>
5

>  <Muscarinic acetylcholine receptor M1>
5

>  <Muscarinic acetylcholine receptor M2>
5

>  <Muscarinic acetylcholine receptor M3>
5

>  <Muscarinic acetylcholine receptor M4>
5

>  <Muscarinic acetylcholine receptor M5>
5

>  <Norepinephrine transporter>
5

>  <Serotonin transporter>
5

$$$$
388365
  Marvin  02231216192D 0   1.00000     0.00000     0

 44 55  0  0  1  0  0  0  0  0999 V2000
   -1.7044    2.2653    0.0000 O   0  0  0  0  0  0  0  0  0
   -0.7323    2.2704    0.0000 C   0  0  0  0  0  0  0  0  0
    0.0720    2.7347    0.0000 N   0  0  0  0  0  0  0  0  0
    0.9833    1.9433    0.0000 C   0  0  0  0  0  0  0  0  0
    1.1453    1.0317    0.0000 C   0  0  0  0  0  0  0  0  0
    0.3476    0.5980    0.0000 C   0  0  0  0  0  0  0  0  0
    0.0977   -0.1582    0.0000 N   0  0  0  0  0  0  0  0  0
   -0.8404   -0.0482    0.0000 C   0  0  0  0  0  0  0  0  0
   -1.1249    1.0358    0.0000 C   0  0  0  0  0  0  0  0  0
   -0.3899    1.2257    0.0000 C   0  0  0  0  0  0  0  0  0
    0.2679    1.6953    0.0000 C   0  0  0  0  0  0  0  0  0
    0.5446    2.7364    0.0000 C   0  0  0  0  0  0  0  0  0
   -0.3706    3.0736    0.0000 O   0  0  0  0  0  0  0  0  0
   -1.1869    2.7685    0.0000 C   0  0  0  0  0  0  0  0  0
   -1.3723    1.8477    0.0000 C   0  0  0  0  0  0  0  0  0
    1.4015    2.2199    0.0000 N   0  0  0  0  0  0  0  0  0
    0.8298    1.3939    0.0000 C   0  0  0  0  0  0  0  0  0
    1.2380    0.5641    0.0000 C   0  0  0  0  0  0  0  0  0
    0.5738    0.0844    0.0000 C   0  0  0  0  0  0  0  0  0
    0.2582   -0.7137    0.0000 N   0  0  0  0  0  0  0  0  0
   -0.7009   -0.6316    0.0000 C   0  0  0  0  0  0  0  0  0
   -1.2554    0.2544    0.0000 C   0  0  0  0  0  0  0  0  0
   -0.6114    0.8633    0.0000 C   0  0  0  0  0  0  0  0  0
   -0.2425    1.6100    0.0000 C   0  0  0  0  0  0  0  0  0
   -0.1065    0.4584    0.0000 C   0  0  0  0  0  0  0  0  0
   -1.9874    0.7195    0.0000 C   0  0  0  0  0  0  0  0  0
   -2.2036    1.5478    0.0000 C   0  0  0  0  0  0  0  0  0
    1.1194   -0.9980    0.0000 C   0  0  0  0  0  0  0  0  0
    1.6823   -0.3156    0.0000 C   0  0  0  0  0  0  0  0  0
    2.0763    1.0181    0.0000 C   0  0  0  0  0  0  0  0  0
    2.1539    1.8394    0.0000 C   0  0  0  0  0  0  0  0  0
    2.9040    2.1829    0.0000 C   0  0  0  0  0  0  0  0  0
    3.5765    1.7050    0.0000 C   0  0  0  0  0  0  0  0  0
    3.4989    0.8836    0.0000 C   0  0  0  0  0  0  0  0  0
    2.7488    0.5402    0.0000 C   0  0  0  0  0  0  0  0  0
   -0.6851    0.4473    0.0000 C   0  0  0  0  0  0  0  0  0
    1.0140   -0.3417    0.0000 C   0  0  0  0  0  0  0  0  0
    1.6536    0.2847    0.0000 C   0  0  0  0  0  0  0  0  0
    0.1508    3.5560    0.0000 C   0  0  0  0  0  0  0  0  0
   -0.5210    4.0349    0.0000 C   0  0  0  0  0  0  0  0  0
   -0.4421    4.8561    0.0000 C   0  0  0  0  0  0  0  0  0
    0.3085    5.1984    0.0000 C   0  0  0  0  0  0  0  0  0
    0.9803    4.7195    0.0000 C   0  0  0  0  0  0  0  0  0
    0.9014    3.8983    0.0000 C   0  0  0  0  0  0  0  0  0
  1  2  1  0  0  0  0
  1 27  1  0  0  0  0
  2  3  1  0  0  0  0
  2 24  1  0  0  0  0
  3  4  1  0  0  0  0
  3 39  1  0  0  0  0
  4  5  1  0  0  0  0
  4 11  1  0  0  0  0
  5  6  1  0  0  0  0
  5 38  1  0  0  0  0
  6  7  1  0  0  0  0
  6 36  1  0  0  0  0
  7  8  1  0  0  0  0
  7 37  1  0  0  0  0
  8  9  1  0  0  0  0
  9 10  1  0  0  0  0
  9 15  2  0  0  0  0
 10 11  1  0  0  0  0
 10 36  1  0  0  0  0
 11 12  1  0  0  0  0
 12 13  1  0  0  0  0
 12 16  1  0  0  0  0
 13 14  1  0  0  0  0
 14 15  1  0  0  0  0
 16 17  1  0  0  0  0
 16 31  1  0  0  0  0
 17 18  1  0  0  0  0
 17 24  1  0  0  0  0
 18 19  1  0  0  0  0
 18 29  1  0  0  0  0
 18 30  1  0  0  0  0
 19 20  1  0  0  0  0
 19 25  1  0  0  0  0
 20 21  1  0  0  0  0
 20 28  1  0  0  0  0
 21 22  1  0  0  0  0
 22 23  1  0  0  0  0
 22 26  2  0  0  0  0
 23 24  1  0  0  0  0
 23 25  1  0  0  0  0
 26 27  1  0  0  0  0
 28 29  1  0  0  0  0
 30 31  4  0  0  0  0
 30 35  4  0  0  0  0
 31 32  4  0  0  0  0
 32 33  4  0  0  0  0
 33 34  4  0  0  0  0
 34 35  4  0  0  0  0
 37 38  1  0  0  0  0
 39 40  4  0  0  0  0
 39 44  4  0  0  0  0
 40 41  4  0  0  0  0
 41 42  4  0  0  0  0
 42 43  4  0  0  0  0
 43 44  4  0  0  0  0
M  END
>  <Name_Molregno>
388365

>  <5-HT3>
5.51

$$$$
388366
  Marvin  02231216192D 0   1.00000     0.00000     0

 46 57  0  0  1  0  0  0  0  0999 V2000
   -2.8449    2.2085    0.0000 O   0  0  0  0  0  0  0  0  0
   -1.8727    2.2136    0.0000 C   0  0  0  0  0  0  0  0  0
   -1.0685    2.6779    0.0000 N   0  0  0  0  0  0  0  0  0
   -0.1571    1.8865    0.0000 C   0  0  0  0  0  0  0  0  0
    0.0048    0.9749    0.0000 C   0  0  0  0  0  0  0  0  0
   -0.7929    0.5412    0.0000 C   0  0  0  0  0  0  0  0  0
   -1.0428   -0.2150    0.0000 N   0  3  0  0  0  0  0  0  0
   -1.9809   -0.1050    0.0000 C   0  0  0  0  0  0  0  0  0
   -2.2654    0.9790    0.0000 C   0  0  0  0  0  0  0  0  0
   -1.5304    1.1689    0.0000 C   0  0  0  0  0  0  0  0  0
   -0.8726    1.6385    0.0000 C   0  0  0  0  0  0  0  0  0
   -0.5959    2.6796    0.0000 C   0  0  0  0  0  0  0  0  0
   -1.5110    3.0168    0.0000 O   0  0  0  0  0  0  0  0  0
   -2.3274    2.7117    0.0000 C   0  0  0  0  0  0  0  0  0
   -2.5127    1.7909    0.0000 C   0  0  0  0  0  0  0  0  0
    0.2610    2.1631    0.0000 N   0  0  0  0  0  0  0  0  0
   -0.3106    1.3371    0.0000 C   0  0  0  0  0  0  0  0  0
    0.0976    0.5073    0.0000 C   0  0  0  0  0  0  0  0  0
   -0.5667    0.0276    0.0000 C   0  0  0  0  0  0  0  0  0
   -0.8823   -0.7705    0.0000 N   0  3  0  0  0  0  0  0  0
   -1.8414   -0.6884    0.0000 C   0  0  0  0  0  0  0  0  0
   -2.3959    0.1976    0.0000 C   0  0  0  0  0  0  0  0  0
   -1.7519    0.8065    0.0000 C   0  0  0  0  0  0  0  0  0
   -1.3830    1.5532    0.0000 C   0  0  0  0  0  0  0  0  0
   -1.2470    0.4016    0.0000 C   0  0  0  0  0  0  0  0  0
   -3.1278    0.6627    0.0000 C   0  0  0  0  0  0  0  0  0
   -3.3441    1.4910    0.0000 C   0  0  0  0  0  0  0  0  0
   -0.0211   -1.0548    0.0000 C   0  0  0  0  0  0  0  0  0
    0.5419   -0.3724    0.0000 C   0  0  0  0  0  0  0  0  0
   -0.9915   -1.7217    0.0000 C   0  0  0  0  0  0  0  0  0
    0.9359    0.9612    0.0000 C   0  0  0  0  0  0  0  0  0
    1.0135    1.7826    0.0000 C   0  0  0  0  0  0  0  0  0
    1.7636    2.1261    0.0000 C   0  0  0  0  0  0  0  0  0
    2.4361    1.6482    0.0000 C   0  0  0  0  0  0  0  0  0
    2.3585    0.8268    0.0000 C   0  0  0  0  0  0  0  0  0
    1.6084    0.4834    0.0000 C   0  0  0  0  0  0  0  0  0
   -1.8256    0.3905    0.0000 C   0  0  0  0  0  0  0  0  0
   -0.1265   -0.3985    0.0000 C   0  0  0  0  0  0  0  0  0
    0.5131    0.2279    0.0000 C   0  0  0  0  0  0  0  0  0
   -1.4160   -1.1248    0.0000 C   0  0  0  0  0  0  0  0  0
   -0.9897    3.4992    0.0000 C   0  0  0  0  0  0  0  0  0
   -1.6614    3.9781    0.0000 C   0  0  0  0  0  0  0  0  0
   -1.5826    4.7993    0.0000 C   0  0  0  0  0  0  0  0  0
   -0.8320    5.1416    0.0000 C   0  0  0  0  0  0  0  0  0
   -0.1602    4.6627    0.0000 C   0  0  0  0  0  0  0  0  0
   -0.2390    3.8415    0.0000 C   0  0  0  0  0  0  0  0  0
  1  2  1  0  0  0  0
  1 27  1  0  0  0  0
  2  3  1  0  0  0  0
  2 24  1  0  0  0  0
  3  4  1  0  0  0  0
  3 41  1  0  0  0  0
  4  5  1  0  0  0  0
  4 11  1  0  0  0  0
  5  6  1  0  0  0  0
  5 39  1  0  0  0  0
  6  7  1  0  0  0  0
  6 37  1  0  0  0  0
  7  8  1  0  0  0  0
  7 38  1  0  0  0  0
  7 40  1  0  0  0  0
  8  9  1  0  0  0  0
  9 10  1  0  0  0  0
  9 15  2  0  0  0  0
 10 11  1  0  0  0  0
 10 37  1  0  0  0  0
 11 12  1  0  0  0  0
 12 13  1  0  0  0  0
 12 16  1  0  0  0  0
 13 14  1  0  0  0  0
 14 15  1  0  0  0  0
 16 17  1  0  0  0  0
 16 32  1  0  0  0  0
 17 18  1  0  0  0  0
 17 24  1  0  0  0  0
 18 19  1  0  0  0  0
 18 29  1  0  0  0  0
 18 31  1  0  0  0  0
 19 20  1  0  0  0  0
 19 25  1  0  0  0  0
 20 21  1  0  0  0  0
 20 28  1  0  0  0  0
 20 30  1  0  0  0  0
 21 22  1  0  0  0  0
 22 23  1  0  0  0  0
 22 26  2  0  0  0  0
 23 24  1  0  0  0  0
 23 25  1  0  0  0  0
 26 27  1  0  0  0  0
 28 29  1  0  0  0  0
 31 32  4  0  0  0  0
 31 36  4  0  0  0  0
 32 33  4  0  0  0  0
 33 34  4  0  0  0  0
 34 35  4  0  0  0  0
 35 36  4  0  0  0  0
 38 39  1  0  0  0  0
 41 42  4  0  0  0  0
 41 46  4  0  0  0  0
 42 43  4  0  0  0  0
 43 44  4  0  0  0  0
 44 45  4  0  0  0  0
 45 46  4  0  0  0  0
M  CHG  2   7   1  20   1
M  END
>  <Name_Molregno>
388366

>  <5-HT3>
5.58

$$$$
388367
  Marvin  02231216192D 0   1.00000     0.00000     0

 47 58  0  0  1  0  0  0  0  0999 V2000
   -0.9347    2.2635    0.0000 O   0  0  0  0  0  0  0  0  0
    0.0374    2.2686    0.0000 C   0  0  0  0  0  0  0  0  0
    0.8417    2.7330    0.0000 N   0  0  0  0  0  0  0  0  0
    1.7531    1.9416    0.0000 C   0  0  0  0  0  0  0  0  0
    1.9150    1.0300    0.0000 C   0  0  0  0  0  0  0  0  0
    1.1173    0.5963    0.0000 C   0  0  0  0  0  0  0  0  0
    0.8674   -0.1599    0.0000 N   0  3  0  0  0  0  0  0  0
   -0.0707   -0.0500    0.0000 C   0  0  0  0  0  0  0  0  0
   -0.3552    1.0341    0.0000 C   0  0  0  0  0  0  0  0  0
    0.3798    1.2240    0.0000 C   0  0  0  0  0  0  0  0  0
    1.0376    1.6936    0.0000 C   0  0  0  0  0  0  0  0  0
    1.3143    2.7347    0.0000 C   0  0  0  0  0  0  0  0  0
    0.3992    3.0718    0.0000 O   0  0  0  0  0  0  0  0  0
   -0.4172    2.7667    0.0000 C   0  0  0  0  0  0  0  0  0
   -0.6025    1.8459    0.0000 C   0  0  0  0  0  0  0  0  0
    2.1712    2.2181    0.0000 N   0  0  0  0  0  0  0  0  0
    1.5996    1.3921    0.0000 C   0  0  0  0  0  0  0  0  0
    2.0078    0.5624    0.0000 C   0  0  0  0  0  0  0  0  0
    1.3435    0.0827    0.0000 C   0  0  0  0  0  0  0  0  0
    1.0279   -0.7154    0.0000 N   0  0  0  0  0  0  0  0  0
    0.0688   -0.6333    0.0000 C   0  0  0  0  0  0  0  0  0
   -0.4857    0.2527    0.0000 C   0  0  0  0  0  0  0  0  0
    0.1583    0.8616    0.0000 C   0  0  0  0  0  0  0  0  0
    0.5272    1.6083    0.0000 C   0  0  0  0  0  0  0  0  0
    0.6632    0.4567    0.0000 C   0  0  0  0  0  0  0  0  0
   -1.2176    0.7177    0.0000 C   0  0  0  0  0  0  0  0  0
   -1.4339    1.5460    0.0000 C   0  0  0  0  0  0  0  0  0
    1.8891   -0.9997    0.0000 C   0  0  0  0  0  0  0  0  0
    2.4521   -0.3173    0.0000 C   0  0  0  0  0  0  0  0  0
    2.8460    1.0163    0.0000 C   0  0  0  0  0  0  0  0  0
    2.9236    1.8376    0.0000 C   0  0  0  0  0  0  0  0  0
    3.6737    2.1811    0.0000 C   0  0  0  0  0  0  0  0  0
    4.3462    1.7032    0.0000 C   0  0  0  0  0  0  0  0  0
    4.2686    0.8819    0.0000 C   0  0  0  0  0  0  0  0  0
    3.5185    0.5384    0.0000 C   0  0  0  0  0  0  0  0  0
    0.0846    0.4455    0.0000 C   0  0  0  0  0  0  0  0  0
    1.7837   -0.3434    0.0000 C   0  0  0  0  0  0  0  0  0
    2.4233    0.2830    0.0000 C   0  0  0  0  0  0  0  0  0
    0.5194   -1.1049    0.0000 C   0  0  0  0  0  0  0  0  0
   -0.1531   -1.6291    0.0000 C   0  0  0  0  0  0  0  0  0
   -0.0392   -2.4462    0.0000 C   0  0  0  0  0  0  0  0  0
    0.9205    3.5542    0.0000 C   0  0  0  0  0  0  0  0  0
    0.2488    4.0331    0.0000 C   0  0  0  0  0  0  0  0  0
    0.3276    4.8543    0.0000 C   0  0  0  0  0  0  0  0  0
    1.0782    5.1967    0.0000 C   0  0  0  0  0  0  0  0  0
    1.7500    4.7178    0.0000 C   0  0  0  0  0  0  0  0  0
    1.6712    3.8965    0.0000 C   0  0  0  0  0  0  0  0  0
  1  2  1  0  0  0  0
  1 27  1  0  0  0  0
  2  3  1  0  0  0  0
  2 24  1  0  0  0  0
  3  4  1  0  0  0  0
  3 42  1  0  0  0  0
  4  5  1  0  0  0  0
  4 11  1  0  0  0  0
  5  6  1  0  0  0  0
  5 38  1  0  0  0  0
  6  7  1  0  0  0  0
  6 36  1  0  0  0  0
  7  8  1  0  0  0  0
  7 37  1  0  0  0  0
  7 39  1  0  0  0  0
  8  9  1  0  0  0  0
  9 10  1  0  0  0  0
  9 15  2  0  0  0  0
 10 11  1  0  0  0  0
 10 36  1  0  0  0  0
 11 12  1  0  0  0  0
 12 13  1  0  0  0  0
 12 16  1  0  0  0  0
 13 14  1  0  0  0  0
 14 15  1  0  0  0  0
 16 17  1  0  0  0  0
 16 31  1  0  0  0  0
 17 18  1  0  0  0  0
 17 24  1  0  0  0  0
 18 19  1  0  0  0  0
 18 29  1  0  0  0  0
 18 30  1  0  0  0  0
 19 20  1  0  0  0  0
 19 25  1  0  0  0  0
 20 21  1  0  0  0  0
 20 28  1  0  0  0  0
 21 22  1  0  0  0  0
 22 23  1  0  0  0  0
 22 26  2  0  0  0  0
 23 24  1  0  0  0  0
 23 25  1  0  0  0  0
 26 27  1  0  0  0  0
 28 29  1  0  0  0  0
 30 31  4  0  0  0  0
 30 35  4  0  0  0  0
 31 32  4  0  0  0  0
 32 33  4  0  0  0  0
 33 34  4  0  0  0  0
 34 35  4  0  0  0  0
 37 38  1  0  0  0  0
 39 40  1  0  0  0  0
 40 41  2  0  0  0  0
 42 43  4  0  0  0  0
 42 47  4  0  0  0  0
 43 44  4  0  0  0  0
 44 45  4  0  0  0  0
 45 46  4  0  0  0  0
 46 47  4  0  0  0  0
M  CHG  1   7   1
M  END
>  <Name_Molregno>
388367

>  <5-HT3>
4.81

$$$$
388368
  Marvin  02231216192D 0   1.00000     0.00000     0

 50 61  0  0  1  0  0  0  0  0999 V2000
   -3.1851    0.0486    0.0000 O   0  0  0  0  0  0  0  0  0
   -2.2129    0.0537    0.0000 C   0  0  0  0  0  0  0  0  0
   -1.4087    0.5181    0.0000 N   0  0  0  0  0  0  0  0  0
   -0.4973   -0.2734    0.0000 C   0  0  0  0  0  0  0  0  0
   -0.3354   -1.1850    0.0000 C   0  0  0  0  0  0  0  0  0
   -1.1331   -1.6187    0.0000 C   0  0  0  0  0  0  0  0  0
   -1.3830   -2.3749    0.0000 N   0  3  0  0  0  0  0  0  0
   -2.3211   -2.2649    0.0000 C   0  0  0  0  0  0  0  0  0
   -2.6056   -1.1809    0.0000 C   0  0  0  0  0  0  0  0  0
   -1.8706   -0.9910    0.0000 C   0  0  0  0  0  0  0  0  0
   -1.2128   -0.5213    0.0000 C   0  0  0  0  0  0  0  0  0
   -0.9361    0.5197    0.0000 C   0  0  0  0  0  0  0  0  0
   -1.8512    0.8569    0.0000 O   0  0  0  0  0  0  0  0  0
   -2.6676    0.5518    0.0000 C   0  0  0  0  0  0  0  0  0
   -2.8529   -0.3690    0.0000 C   0  0  0  0  0  0  0  0  0
   -0.0792    0.0032    0.0000 N   0  0  0  0  0  0  0  0  0
   -0.6508   -0.8228    0.0000 C   0  0  0  0  0  0  0  0  0
   -0.2426   -1.6526    0.0000 C   0  0  0  0  0  0  0  0  0
   -0.9069   -2.1323    0.0000 C   0  0  0  0  0  0  0  0  0
   -1.2225   -2.9303    0.0000 N   0  3  0  0  0  0  0  0  0
   -2.1816   -2.8483    0.0000 C   0  0  0  0  0  0  0  0  0
   -2.7361   -1.9623    0.0000 C   0  0  0  0  0  0  0  0  0
   -2.0921   -1.3534    0.0000 C   0  0  0  0  0  0  0  0  0
   -1.7232   -0.6067    0.0000 C   0  0  0  0  0  0  0  0  0
   -1.5872   -1.7583    0.0000 C   0  0  0  0  0  0  0  0  0
   -3.4680   -1.4972    0.0000 C   0  0  0  0  0  0  0  0  0
   -3.6843   -0.6689    0.0000 C   0  0  0  0  0  0  0  0  0
   -0.3613   -3.2146    0.0000 C   0  0  0  0  0  0  0  0  0
    0.2017   -2.5323    0.0000 C   0  0  0  0  0  0  0  0  0
   -1.0191   -3.7933    0.0000 C   0  0  0  0  0  0  0  0  0
   -0.6942   -4.5769    0.0000 C   0  0  0  0  0  0  0  0  0
    0.1238   -4.6842    0.0000 C   0  0  0  0  0  0  0  0  0
    0.5957   -1.1986    0.0000 C   0  0  0  0  0  0  0  0  0
    0.6733   -0.3773    0.0000 C   0  0  0  0  0  0  0  0  0
    1.4234   -0.0338    0.0000 C   0  0  0  0  0  0  0  0  0
    2.0959   -0.5117    0.0000 C   0  0  0  0  0  0  0  0  0
    2.0183   -1.3330    0.0000 C   0  0  0  0  0  0  0  0  0
    1.2682   -1.6765    0.0000 C   0  0  0  0  0  0  0  0  0
   -2.1658   -1.7694    0.0000 C   0  0  0  0  0  0  0  0  0
   -0.4667   -2.5584    0.0000 C   0  0  0  0  0  0  0  0  0
    0.1729   -1.9320    0.0000 C   0  0  0  0  0  0  0  0  0
   -1.7838   -3.3234    0.0000 C   0  0  0  0  0  0  0  0  0
   -2.5319   -3.8681    0.0000 C   0  0  0  0  0  0  0  0  0
   -2.4448   -4.6885    0.0000 C   0  0  0  0  0  0  0  0  0
   -1.3298    1.3393    0.0000 C   0  0  0  0  0  0  0  0  0
   -2.0016    1.8182    0.0000 C   0  0  0  0  0  0  0  0  0
   -1.9228    2.6394    0.0000 C   0  0  0  0  0  0  0  0  0
   -1.1721    2.9817    0.0000 C   0  0  0  0  0  0  0  0  0
   -0.5004    2.5028    0.0000 C   0  0  0  0  0  0  0  0  0
   -0.5792    1.6816    0.0000 C   0  0  0  0  0  0  0  0  0
  1  2  1  0  0  0  0
  1 27  1  0  0  0  0
  2  3  1  0  0  0  0
  2 24  1  0  0  0  0
  3  4  1  0  0  0  0
  3 45  1  0  0  0  0
  4  5  1  0  0  0  0
  4 11  1  0  0  0  0
  5  6  1  0  0  0  0
  5 41  1  0  0  0  0
  6  7  1  0  0  0  0
  6 39  1  0  0  0  0
  7  8  1  0  0  0  0
  7 40  1  0  0  0  0
  7 42  1  0  0  0  0
  8  9  1  0  0  0  0
  9 10  1  0  0  0  0
  9 15  2  0  0  0  0
 10 11  1  0  0  0  0
 10 39  1  0  0  0  0
 11 12  1  0  0  0  0
 12 13  1  0  0  0  0
 12 16  1  0  0  0  0
 13 14  1  0  0  0  0
 14 15  1  0  0  0  0
 16 17  1  0  0  0  0
 16 34  1  0  0  0  0
 17 18  1  0  0  0  0
 17 24  1  0  0  0  0
 18 19  1  0  0  0  0
 18 29  1  0  0  0  0
 18 33  1  0  0  0  0
 19 20  1  0  0  0  0
 19 25  1  0  0  0  0
 20 21  1  0  0  0  0
 20 28  1  0  0  0  0
 20 30  1  0  0  0  0
 21 22  1  0  0  0  0
 22 23  1  0  0  0  0
 22 26  2  0  0  0  0
 23 24  1  0  0  0  0
 23 25  1  0  0  0  0
 26 27  1  0  0  0  0
 28 29  1  0  0  0  0
 30 31  1  0  0  0  0
 31 32  2  0  0  0  0
 33 34  4  0  0  0  0
 33 38  4  0  0  0  0
 34 35  4  0  0  0  0
 35 36  4  0  0  0  0
 36 37  4  0  0  0  0
 37 38  4  0  0  0  0
 40 41  1  0  0  0  0
 42 43  1  0  0  0  0
 43 44  2  0  0  0  0
 45 46  4  0  0  0  0
 45 50  4  0  0  0  0
 46 47  4  0  0  0  0
 47 48  4  0  0  0  0
 48 49  4  0  0  0  0
 49 50  4  0  0  0  0
M  CHG  2   7   1  20   1
M  END
>  <Name_Molregno>
388368

>  <5-HT3>
4.33

$$$$
388369
  Marvin  02231216192D 0   1.00000     0.00000     0

 52 63  0  0  1  0  0  0  0  0999 V2000
   -1.7926    2.9294    0.0000 O   0  0  0  0  0  0  0  0  0
   -0.8205    2.9345    0.0000 C   0  0  0  0  0  0  0  0  0
   -0.0162    3.3989    0.0000 N   0  0  0  0  0  0  0  0  0
    0.8951    2.6075    0.0000 C   0  0  0  0  0  0  0  0  0
    1.0571    1.6958    0.0000 C   0  0  0  0  0  0  0  0  0
    0.2593    1.2621    0.0000 C   0  0  0  0  0  0  0  0  0
    0.0095    0.5060    0.0000 N   0  3  0  0  0  0  0  0  0
   -0.9287    0.6159    0.0000 C   0  0  0  0  0  0  0  0  0
   -1.2132    1.7000    0.0000 C   0  0  0  0  0  0  0  0  0
   -0.4782    1.8898    0.0000 C   0  0  0  0  0  0  0  0  0
    0.1797    2.3595    0.0000 C   0  0  0  0  0  0  0  0  0
    0.4564    3.4006    0.0000 C   0  0  0  0  0  0  0  0  0
   -0.4588    3.7377    0.0000 O   0  0  0  0  0  0  0  0  0
   -1.2751    3.4326    0.0000 C   0  0  0  0  0  0  0  0  0
   -1.4605    2.5118    0.0000 C   0  0  0  0  0  0  0  0  0
    1.3133    2.8840    0.0000 N   0  0  0  0  0  0  0  0  0
    0.7416    2.0580    0.0000 C   0  0  0  0  0  0  0  0  0
    1.1498    1.2283    0.0000 C   0  0  0  0  0  0  0  0  0
    0.4856    0.7486    0.0000 C   0  0  0  0  0  0  0  0  0
    0.1700   -0.0495    0.0000 N   0  3  0  0  0  0  0  0  0
   -0.7891    0.0326    0.0000 C   0  0  0  0  0  0  0  0  0
   -1.3436    0.9186    0.0000 C   0  0  0  0  0  0  0  0  0
   -0.6996    1.5275    0.0000 C   0  0  0  0  0  0  0  0  0
   -0.3307    2.2741    0.0000 C   0  0  0  0  0  0  0  0  0
   -0.1947    1.1226    0.0000 C   0  0  0  0  0  0  0  0  0
   -2.0756    1.3836    0.0000 C   0  0  0  0  0  0  0  0  0
   -2.2918    2.2119    0.0000 C   0  0  0  0  0  0  0  0  0
    1.0312   -0.3338    0.0000 C   0  0  0  0  0  0  0  0  0
    1.5941    0.3485    0.0000 C   0  0  0  0  0  0  0  0  0
    0.3329   -0.9337    0.0000 C   0  0  0  0  0  0  0  0  0
    0.7041   -1.6854    0.0000 C   0  0  0  0  0  0  0  0  0
    0.2462   -2.3717    0.0000 C   0  0  0  0  0  0  0  0  0
    0.6115   -3.1114    0.0000 C   0  0  0  0  0  0  0  0  0
    1.9881    1.6822    0.0000 C   0  0  0  0  0  0  0  0  0
    2.0657    2.5035    0.0000 C   0  0  0  0  0  0  0  0  0
    2.8158    2.8470    0.0000 C   0  0  0  0  0  0  0  0  0
    3.4883    2.3691    0.0000 C   0  0  0  0  0  0  0  0  0
    3.4107    1.5478    0.0000 C   0  0  0  0  0  0  0  0  0
    2.6606    1.2043    0.0000 C   0  0  0  0  0  0  0  0  0
   -0.7734    1.1114    0.0000 C   0  0  0  0  0  0  0  0  0
    0.9257    0.3224    0.0000 C   0  0  0  0  0  0  0  0  0
    1.5654    0.9489    0.0000 C   0  0  0  0  0  0  0  0  0
   -0.3680   -0.4424    0.0000 C   0  0  0  0  0  0  0  0  0
   -1.0986   -0.9703    0.0000 C   0  0  0  0  0  0  0  0  0
   -1.8514   -0.6329    0.0000 C   0  0  0  0  0  0  0  0  0
   -2.5201   -1.1161    0.0000 C   0  0  0  0  0  0  0  0  0
    0.0626    4.2201    0.0000 C   0  0  0  0  0  0  0  0  0
   -0.6092    4.6990    0.0000 C   0  0  0  0  0  0  0  0  0
   -0.5303    5.5202    0.0000 C   0  0  0  0  0  0  0  0  0
    0.2203    5.8625    0.0000 C   0  0  0  0  0  0  0  0  0
    0.8921    5.3836    0.0000 C   0  0  0  0  0  0  0  0  0
    0.8132    4.5624    0.0000 C   0  0  0  0  0  0  0  0  0
  1  2  1  0  0  0  0
  1 27  1  0  0  0  0
  2  3  1  0  0  0  0
  2 24  1  0  0  0  0
  3  4  1  0  0  0  0
  3 47  1  0  0  0  0
  4  5  1  0  0  0  0
  4 11  1  0  0  0  0
  5  6  1  0  0  0  0
  5 42  1  0  0  0  0
  6  7  1  0  0  0  0
  6 40  1  0  0  0  0
  7  8  1  0  0  0  0
  7 41  1  0  0  0  0
  7 43  1  0  0  0  0
  8  9  1  0  0  0  0
  9 10  1  0  0  0  0
  9 15  2  0  0  0  0
 10 11  1  0  0  0  0
 10 40  1  0  0  0  0
 11 12  1  0  0  0  0
 12 13  1  0  0  0  0
 12 16  1  0  0  0  0
 13 14  1  0  0  0  0
 14 15  1  0  0  0  0
 16 17  1  0  0  0  0
 16 35  1  0  0  0  0
 17 18  1  0  0  0  0
 17 24  1  0  0  0  0
 18 19  1  0  0  0  0
 18 29  1  0  0  0  0
 18 34  1  0  0  0  0
 19 20  1  0  0  0  0
 19 25  1  0  0  0  0
 20 21  1  0  0  0  0
 20 28  1  0  0  0  0
 20 30  1  0  0  0  0
 21 22  1  0  0  0  0
 22 23  1  0  0  0  0
 22 26  2  0  0  0  0
 23 24  1  0  0  0  0
 23 25  1  0  0  0  0
 26 27  1  0  0  0  0
 28 29  1  0  0  0  0
 30 31  1  0  0  0  0
 31 32  2  0  0  0  0
 32 33  1  0  0  0  0
 34 35  4  0  0  0  0
 34 39  4  0  0  0  0
 35 36  4  0  0  0  0
 36 37  4  0  0  0  0
 37 38  4  0  0  0  0
 38 39  4  0  0  0  0
 41 42  1  0  0  0  0
 43 44  1  0  0  0  0
 44 45  2  0  0  0  0
 45 46  1  0  0  0  0
 47 48  4  0  0  0  0
 47 52  4  0  0  0  0
 48 49  4  0  0  0  0
 49 50  4  0  0  0  0
 50 51  4  0  0  0  0
 51 52  4  0  0  0  0
M  CHG  2   7   1  20   1
M  END
>  <Name_Molregno>
388369

>  <5-HT3>
4.87

$$$$
388370
  Marvin  02231216192D 0   1.00000     0.00000     0

 56 67  0  0  1  0  0  0  0  0999 V2000
   -0.7592    0.4083    0.0000 O   0  0  0  0  0  0  0  0  0
    0.2129    0.4134    0.0000 C   0  0  0  0  0  0  0  0  0
    1.0172    0.8777    0.0000 N   0  0  0  0  0  0  0  0  0
    1.9285    0.0863    0.0000 C   0  0  0  0  0  0  0  0  0
    2.0905   -0.8253    0.0000 C   0  0  0  0  0  0  0  0  0
    1.2928   -1.2590    0.0000 C   0  0  0  0  0  0  0  0  0
    1.0429   -2.0152    0.0000 N   0  3  0  0  0  0  0  0  0
    0.1048   -1.9052    0.0000 C   0  0  0  0  0  0  0  0  0
   -0.1797   -0.8212    0.0000 C   0  0  0  0  0  0  0  0  0
    0.5553   -0.6313    0.0000 C   0  0  0  0  0  0  0  0  0
    1.2131   -0.1616    0.0000 C   0  0  0  0  0  0  0  0  0
    1.4898    0.8794    0.0000 C   0  0  0  0  0  0  0  0  0
    0.5746    1.2166    0.0000 O   0  0  0  0  0  0  0  0  0
   -0.2417    0.9115    0.0000 C   0  0  0  0  0  0  0  0  0
   -0.4271   -0.0093    0.0000 C   0  0  0  0  0  0  0  0  0
    2.3467    0.3629    0.0000 N   0  0  0  0  0  0  0  0  0
    1.7750   -0.4631    0.0000 C   0  0  0  0  0  0  0  0  0
    2.1832   -1.2929    0.0000 C   0  0  0  0  0  0  0  0  0
    1.5190   -1.7726    0.0000 C   0  0  0  0  0  0  0  0  0
    1.2034   -2.5707    0.0000 N   0  3  0  0  0  0  0  0  0
    0.2443   -2.4886    0.0000 C   0  0  0  0  0  0  0  0  0
   -0.3102   -1.6026    0.0000 C   0  0  0  0  0  0  0  0  0
    0.3338   -0.9937    0.0000 C   0  0  0  0  0  0  0  0  0
    0.7027   -0.2470    0.0000 C   0  0  0  0  0  0  0  0  0
    0.8387   -1.3986    0.0000 C   0  0  0  0  0  0  0  0  0
   -1.0421   -1.1375    0.0000 C   0  0  0  0  0  0  0  0  0
   -1.2584   -0.3092    0.0000 C   0  0  0  0  0  0  0  0  0
    2.0646   -2.8549    0.0000 C   0  0  0  0  0  0  0  0  0
    2.6275   -2.1726    0.0000 C   0  0  0  0  0  0  0  0  0
    1.4527   -3.4846    0.0000 C   0  0  0  0  0  0  0  0  0
    1.8558   -4.2610    0.0000 C   0  0  0  0  0  0  0  0  0
    2.6585   -4.5472    0.0000 O   0  0  0  0  0  0  0  0  0
    3.4951   -4.5236    0.0000 C   0  0  0  0  0  0  0  0  0
    3.8872   -3.7978    0.0000 O   0  0  0  0  0  0  0  0  0
    3.9276   -5.2261    0.0000 C   0  0  0  0  0  0  0  0  0
    3.0215   -0.8389    0.0000 C   0  0  0  0  0  0  0  0  0
    3.0991   -0.0176    0.0000 C   0  0  0  0  0  0  0  0  0
    3.8492    0.3259    0.0000 C   0  0  0  0  0  0  0  0  0
    4.5217   -0.1520    0.0000 C   0  0  0  0  0  0  0  0  0
    4.4441   -0.9733    0.0000 C   0  0  0  0  0  0  0  0  0
    3.6940   -1.3168    0.0000 C   0  0  0  0  0  0  0  0  0
    0.2601   -1.4097    0.0000 C   0  0  0  0  0  0  0  0  0
    1.9592   -2.1987    0.0000 C   0  0  0  0  0  0  0  0  0
    2.5988   -1.5723    0.0000 C   0  0  0  0  0  0  0  0  0
    0.7204   -2.9722    0.0000 C   0  0  0  0  0  0  0  0  0
    0.1955   -3.7012    0.0000 C   0  0  0  0  0  0  0  0  0
   -0.3339   -4.3879    0.0000 O   0  0  0  0  0  0  0  0  0
   -1.1466   -4.5971    0.0000 C   0  0  0  0  0  0  0  0  0
   -1.3679   -5.3918    0.0000 O   0  0  0  0  0  0  0  0  0
   -1.7242   -4.0080    0.0000 C   0  0  0  0  0  0  0  0  0
    1.0960    1.6990    0.0000 C   0  0  0  0  0  0  0  0  0
    0.4242    2.1779    0.0000 C   0  0  0  0  0  0  0  0  0
    0.5031    2.9991    0.0000 C   0  0  0  0  0  0  0  0  0
    1.2537    3.3414    0.0000 C   0  0  0  0  0  0  0  0  0
    1.9255    2.8625    0.0000 C   0  0  0  0  0  0  0  0  0
    1.8466    2.0413    0.0000 C   0  0  0  0  0  0  0  0  0
  1  2  1  0  0  0  0
  1 27  1  0  0  0  0
  2  3  1  0  0  0  0
  2 24  1  0  0  0  0
  3  4  1  0  0  0  0
  3 51  1  0  0  0  0
  4  5  1  0  0  0  0
  4 11  1  0  0  0  0
  5  6  1  0  0  0  0
  5 44  1  0  0  0  0
  6  7  1  0  0  0  0
  6 42  1  0  0  0  0
  7  8  1  0  0  0  0
  7 43  1  0  0  0  0
  7 45  1  0  0  0  0
  8  9  1  0  0  0  0
  9 10  1  0  0  0  0
  9 15  2  0  0  0  0
 10 11  1  0  0  0  0
 10 42  1  0  0  0  0
 11 12  1  0  0  0  0
 12 13  1  0  0  0  0
 12 16  1  0  0  0  0
 13 14  1  0  0  0  0
 14 15  1  0  0  0  0
 16 17  1  0  0  0  0
 16 37  1  0  0  0  0
 17 18  1  0  0  0  0
 17 24  1  0  0  0  0
 18 19  1  0  0  0  0
 18 29  1  0  0  0  0
 18 36  1  0  0  0  0
 19 20  1  0  0  0  0
 19 25  1  0  0  0  0
 20 21  1  0  0  0  0
 20 28  1  0  0  0  0
 20 30  1  0  0  0  0
 21 22  1  0  0  0  0
 22 23  1  0  0  0  0
 22 26  2  0  0  0  0
 23 24  1  0  0  0  0
 23 25  1  0  0  0  0
 26 27  1  0  0  0  0
 28 29  1  0  0  0  0
 30 31  1  0  0  0  0
 31 32  1  0  0  0  0
 32 33  1  0  0  0  0
 33 34  2  0  0  0  0
 33 35  1  0  0  0  0
 36 37  4  0  0  0  0
 36 41  4  0  0  0  0
 37 38  4  0  0  0  0
 38 39  4  0  0  0  0
 39 40  4  0  0  0  0
 40 41  4  0  0  0  0
 43 44  1  0  0  0  0
 45 46  1  0  0  0  0
 46 47  1  0  0  0  0
 47 48  1  0  0  0  0
 48 49  2  0  0  0  0
 48 50  1  0  0  0  0
 51 52  4  0  0  0  0
 51 56  4  0  0  0  0
 52 53  4  0  0  0  0
 53 54  4  0  0  0  0
 54 55  4  0  0  0  0
 55 56  4  0  0  0  0
M  CHG  2   7   1  20   1
M  END
>  <Name_Molregno>
388370

>  <5-HT3>
4.33

$$$$
388371
  Marvin  02231216192D 0   1.00000     0.00000     0

 56 69  0  0  1  0  0  0  0  0999 V2000
   -0.8405    0.4529    0.0000 O   0  0  0  0  0  0  0  0  0
    0.1316    0.4580    0.0000 C   0  0  0  0  0  0  0  0  0
    0.9359    0.9224    0.0000 N   0  0  0  0  0  0  0  0  0
    1.8473    0.1310    0.0000 C   0  0  0  0  0  0  0  0  0
    2.0092   -0.7807    0.0000 C   0  0  0  0  0  0  0  0  0
    1.2115   -1.2144    0.0000 C   0  0  0  0  0  0  0  0  0
    0.9616   -1.9705    0.0000 N   0  3  0  0  0  0  0  0  0
    0.0235   -1.8606    0.0000 C   0  0  0  0  0  0  0  0  0
   -0.2610   -0.7765    0.0000 C   0  0  0  0  0  0  0  0  0
    0.4740   -0.5867    0.0000 C   0  0  0  0  0  0  0  0  0
    1.1318   -0.1170    0.0000 C   0  0  0  0  0  0  0  0  0
    1.4085    0.9241    0.0000 C   0  0  0  0  0  0  0  0  0
    0.4934    1.2612    0.0000 O   0  0  0  0  0  0  0  0  0
   -0.3230    0.9561    0.0000 C   0  0  0  0  0  0  0  0  0
   -0.5083    0.0353    0.0000 C   0  0  0  0  0  0  0  0  0
    2.2654    0.4075    0.0000 N   0  0  0  0  0  0  0  0  0
    1.6938   -0.4185    0.0000 C   0  0  0  0  0  0  0  0  0
    2.1020   -1.2482    0.0000 C   0  0  0  0  0  0  0  0  0
    1.4377   -1.7279    0.0000 C   0  0  0  0  0  0  0  0  0
    1.1221   -2.5260    0.0000 N   0  3  0  0  0  0  0  0  0
    0.1630   -2.4439    0.0000 C   0  0  0  0  0  0  0  0  0
   -0.3915   -1.5579    0.0000 C   0  0  0  0  0  0  0  0  0
    0.2525   -0.9490    0.0000 C   0  0  0  0  0  0  0  0  0
    0.6214   -0.2024    0.0000 C   0  0  0  0  0  0  0  0  0
    0.7574   -1.3539    0.0000 C   0  0  0  0  0  0  0  0  0
   -1.1234   -1.0929    0.0000 C   0  0  0  0  0  0  0  0  0
   -1.3397   -0.2646    0.0000 C   0  0  0  0  0  0  0  0  0
    1.9833   -2.8103    0.0000 C   0  0  0  0  0  0  0  0  0
    2.5463   -2.1280    0.0000 C   0  0  0  0  0  0  0  0  0
    0.9565   -3.3342    0.0000 C   0  0  0  0  0  0  0  0  0
    1.5736   -3.8818    0.0000 C   0  0  0  0  0  0  0  0  0
    1.4080   -4.6900    0.0000 C   0  0  0  0  0  0  0  0  0
    0.6253   -4.9506    0.0000 C   0  0  0  0  0  0  0  0  0
    0.0082   -4.4031    0.0000 C   0  0  0  0  0  0  0  0  0
    0.1738   -3.5949    0.0000 C   0  0  0  0  0  0  0  0  0
    2.9402   -0.7943    0.0000 C   0  0  0  0  0  0  0  0  0
    3.0178    0.0270    0.0000 C   0  0  0  0  0  0  0  0  0
    3.7679    0.3705    0.0000 C   0  0  0  0  0  0  0  0  0
    4.4404   -0.1074    0.0000 C   0  0  0  0  0  0  0  0  0
    4.3628   -0.9287    0.0000 C   0  0  0  0  0  0  0  0  0
    3.6127   -1.2722    0.0000 C   0  0  0  0  0  0  0  0  0
    0.1788   -1.3651    0.0000 C   0  0  0  0  0  0  0  0  0
    1.8779   -2.1541    0.0000 C   0  0  0  0  0  0  0  0  0
    2.5175   -1.5276    0.0000 C   0  0  0  0  0  0  0  0  0
    0.8325   -2.7854    0.0000 C   0  0  0  0  0  0  0  0  0
    0.0622   -3.0809    0.0000 C   0  0  0  0  0  0  0  0  0
   -0.0669   -3.8958    0.0000 C   0  0  0  0  0  0  0  0  0
    0.5742   -4.4150    0.0000 C   0  0  0  0  0  0  0  0  0
    1.3444   -4.1195    0.0000 C   0  0  0  0  0  0  0  0  0
    1.4736   -3.3046    0.0000 C   0  0  0  0  0  0  0  0  0
    1.0147    1.7436    0.0000 C   0  0  0  0  0  0  0  0  0
    0.3430    2.2225    0.0000 C   0  0  0  0  0  0  0  0  0
    0.4218    3.0437    0.0000 C   0  0  0  0  0  0  0  0  0
    1.1724    3.3860    0.0000 C   0  0  0  0  0  0  0  0  0
    1.8442    2.9071    0.0000 C   0  0  0  0  0  0  0  0  0
    1.7654    2.0859    0.0000 C   0  0  0  0  0  0  0  0  0
  1  2  1  0  0  0  0
  1 27  1  0  0  0  0
  2  3  1  0  0  0  0
  2 24  1  0  0  0  0
  3  4  1  0  0  0  0
  3 51  1  0  0  0  0
  4  5  1  0  0  0  0
  4 11  1  0  0  0  0
  5  6  1  0  0  0  0
  5 44  1  0  0  0  0
  6  7  1  0  0  0  0
  6 42  1  0  0  0  0
  7  8  1  0  0  0  0
  7 43  1  0  0  0  0
  7 45  1  0  0  0  0
  8  9  1  0  0  0  0
  9 10  1  0  0  0  0
  9 15  2  0  0  0  0
 10 11  1  0  0  0  0
 10 42  1  0  0  0  0
 11 12  1  0  0  0  0
 12 13  1  0  0  0  0
 12 16  1  0  0  0  0
 13 14  1  0  0  0  0
 14 15  1  0  0  0  0
 16 17  1  0  0  0  0
 16 37  1  0  0  0  0
 17 18  1  0  0  0  0
 17 24  1  0  0  0  0
 18 19  1  0  0  0  0
 18 29  1  0  0  0  0
 18 36  1  0  0  0  0
 19 20  1  0  0  0  0
 19 25  1  0  0  0  0
 20 21  1  0  0  0  0
 20 28  1  0  0  0  0
 20 30  1  0  0  0  0
 21 22  1  0  0  0  0
 22 23  1  0  0  0  0
 22 26  2  0  0  0  0
 23 24  1  0  0  0  0
 23 25  1  0  0  0  0
 26 27  1  0  0  0  0
 28 29  1  0  0  0  0
 30 31  1  0  0  0  0
 30 35  1  0  0  0  0
 31 32  1  0  0  0  0
 32 33  1  0  0  0  0
 33 34  1  0  0  0  0
 34 35  2  0  0  0  0
 36 37  4  0  0  0  0
 36 41  4  0  0  0  0
 37 38  4  0  0  0  0
 38 39  4  0  0  0  0
 39 40  4  0  0  0  0
 40 41  4  0  0  0  0
 43 44  1  0  0  0  0
 45 46  1  0  0  0  0
 45 50  1  0  0  0  0
 46 47  1  0  0  0  0
 47 48  1  0  0  0  0
 48 49  1  0  0  0  0
 49 50  2  0  0  0  0
 51 52  4  0  0  0  0
 51 56  4  0  0  0  0
 52 53  4  0  0  0  0
 53 54  4  0  0  0  0
 54 55  4  0  0  0  0
 55 56  4  0  0  0  0
M  CHG  2   7   1  20   1
M  END
>  <Name_Molregno>
388371

>  <5-HT3>
5.78

$$$$
388372
  Marvin  02231216192D 0   1.00000     0.00000     0

 58 71  0  0  1  0  0  0  0  0999 V2000
   -1.1399   -0.0193    0.0000 O   0  0  0  0  0  0  0  0  0
   -0.1678   -0.0142    0.0000 C   0  0  0  0  0  0  0  0  0
    0.6365    0.4502    0.0000 N   0  0  0  0  0  0  0  0  0
    1.5478   -0.3412    0.0000 C   0  0  0  0  0  0  0  0  0
    1.7098   -1.2528    0.0000 C   0  0  0  0  0  0  0  0  0
    0.9121   -1.6865    0.0000 C   0  0  0  0  0  0  0  0  0
    0.6622   -2.4427    0.0000 N   0  3  0  0  0  0  0  0  0
   -0.2759   -2.3328    0.0000 C   0  0  0  0  0  0  0  0  0
   -0.5604   -1.2487    0.0000 C   0  0  0  0  0  0  0  0  0
    0.1746   -1.0588    0.0000 C   0  0  0  0  0  0  0  0  0
    0.8324   -0.5892    0.0000 C   0  0  0  0  0  0  0  0  0
    1.1091    0.4519    0.0000 C   0  0  0  0  0  0  0  0  0
    0.1940    0.7890    0.0000 O   0  0  0  0  0  0  0  0  0
   -0.6224    0.4839    0.0000 C   0  0  0  0  0  0  0  0  0
   -0.8078   -0.4369    0.0000 C   0  0  0  0  0  0  0  0  0
    1.9660   -0.0647    0.0000 N   0  0  0  0  0  0  0  0  0
    1.3943   -0.8907    0.0000 C   0  0  0  0  0  0  0  0  0
    1.8025   -1.7204    0.0000 C   0  0  0  0  0  0  0  0  0
    1.1383   -2.2001    0.0000 C   0  0  0  0  0  0  0  0  0
    0.8227   -2.9982    0.0000 N   0  3  0  0  0  0  0  0  0
   -0.1364   -2.9161    0.0000 C   0  0  0  0  0  0  0  0  0
   -0.6909   -2.0301    0.0000 C   0  0  0  0  0  0  0  0  0
   -0.0469   -1.4212    0.0000 C   0  0  0  0  0  0  0  0  0
    0.3220   -0.6746    0.0000 C   0  0  0  0  0  0  0  0  0
    0.4580   -1.8261    0.0000 C   0  0  0  0  0  0  0  0  0
   -1.4228   -1.5651    0.0000 C   0  0  0  0  0  0  0  0  0
   -1.6391   -0.7368    0.0000 C   0  0  0  0  0  0  0  0  0
    1.6839   -3.2825    0.0000 C   0  0  0  0  0  0  0  0  0
    2.2469   -2.6001    0.0000 C   0  0  0  0  0  0  0  0  0
    0.7273   -3.9510    0.0000 C   0  0  0  0  0  0  0  0  0
    1.2742   -4.3539    0.0000 C   0  0  0  0  0  0  0  0  0
    2.0301   -4.0233    0.0000 C   0  0  0  0  0  0  0  0  0
    2.6943   -4.5126    0.0000 C   0  0  0  0  0  0  0  0  0
    2.6027   -5.3325    0.0000 C   0  0  0  0  0  0  0  0  0
    1.8468   -5.6631    0.0000 C   0  0  0  0  0  0  0  0  0
    1.1826   -5.1738    0.0000 C   0  0  0  0  0  0  0  0  0
    2.6408   -1.2665    0.0000 C   0  0  0  0  0  0  0  0  0
    2.7184   -0.4452    0.0000 C   0  0  0  0  0  0  0  0  0
    3.4685   -0.1017    0.0000 C   0  0  0  0  0  0  0  0  0
    4.1410   -0.5796    0.0000 C   0  0  0  0  0  0  0  0  0
    4.0634   -1.4009    0.0000 C   0  0  0  0  0  0  0  0  0
    3.3133   -1.7444    0.0000 C   0  0  0  0  0  0  0  0  0
   -0.1206   -1.8373    0.0000 C   0  0  0  0  0  0  0  0  0
    1.5785   -2.6262    0.0000 C   0  0  0  0  0  0  0  0  0
    2.2181   -1.9998    0.0000 C   0  0  0  0  0  0  0  0  0
    0.4873   -3.4048    0.0000 C   0  0  0  0  0  0  0  0  0
   -0.2372   -3.5531    0.0000 C   0  0  0  0  0  0  0  0  0
   -0.4980   -4.3358    0.0000 C   0  0  0  0  0  0  0  0  0
   -1.3062   -4.5013    0.0000 C   0  0  0  0  0  0  0  0  0
   -1.8536   -3.8840    0.0000 C   0  0  0  0  0  0  0  0  0
   -1.5928   -3.1014    0.0000 C   0  0  0  0  0  0  0  0  0
   -0.7846   -2.9359    0.0000 C   0  0  0  0  0  0  0  0  0
    0.7153    1.2714    0.0000 C   0  0  0  0  0  0  0  0  0
    0.0436    1.7503    0.0000 C   0  0  0  0  0  0  0  0  0
    0.1224    2.5715    0.0000 C   0  0  0  0  0  0  0  0  0
    0.8730    2.9139    0.0000 C   0  0  0  0  0  0  0  0  0
    1.5448    2.4350    0.0000 C   0  0  0  0  0  0  0  0  0
    1.4660    1.6137    0.0000 C   0  0  0  0  0  0  0  0  0
  1  2  1  0  0  0  0
  1 27  1  0  0  0  0
  2  3  1  0  0  0  0
  2 24  1  0  0  0  0
  3  4  1  0  0  0  0
  3 53  1  0  0  0  0
  4  5  1  0  0  0  0
  4 11  1  0  0  0  0
  5  6  1  0  0  0  0
  5 45  1  0  0  0  0
  6  7  1  0  0  0  0
  6 43  1  0  0  0  0
  7  8  1  0  0  0  0
  7 44  1  0  0  0  0
  7 46  1  0  0  0  0
  8  9  1  0  0  0  0
  9 10  1  0  0  0  0
  9 15  2  0  0  0  0
 10 11  1  0  0  0  0
 10 43  1  0  0  0  0
 11 12  1  0  0  0  0
 12 13  1  0  0  0  0
 12 16  1  0  0  0  0
 13 14  1  0  0  0  0
 14 15  1  0  0  0  0
 16 17  1  0  0  0  0
 16 38  1  0  0  0  0
 17 18  1  0  0  0  0
 17 24  1  0  0  0  0
 18 19  1  0  0  0  0
 18 29  1  0  0  0  0
 18 37  1  0  0  0  0
 19 20  1  0  0  0  0
 19 25  1  0  0  0  0
 20 21  1  0  0  0  0
 20 28  1  0  0  0  0
 20 30  1  0  0  0  0
 21 22  1  0  0  0  0
 22 23  1  0  0  0  0
 22 26  2  0  0  0  0
 23 24  1  0  0  0  0
 23 25  1  0  0  0  0
 26 27  1  0  0  0  0
 28 29  1  0  0  0  0
 30 31  1  0  0  0  0
 31 32  4  0  0  0  0
 31 36  4  0  0  0  0
 32 33  4  0  0  0  0
 33 34  4  0  0  0  0
 34 35  4  0  0  0  0
 35 36  4  0  0  0  0
 37 38  4  0  0  0  0
 37 42  4  0  0  0  0
 38 39  4  0  0  0  0
 39 40  4  0  0  0  0
 40 41  4  0  0  0  0
 41 42  4  0  0  0  0
 44 45  1  0  0  0  0
 46 47  1  0  0  0  0
 47 48  4  0  0  0  0
 47 52  4  0  0  0  0
 48 49  4  0  0  0  0
 49 50  4  0  0  0  0
 50 51  4  0  0  0  0
 51 52  4  0  0  0  0
 53 54  4  0  0  0  0
 53 58  4  0  0  0  0
 54 55  4  0  0  0  0
 55 56  4  0  0  0  0
 56 57  4  0  0  0  0
 57 58  4  0  0  0  0
M  CHG  2   7   1  20   1
M  END
>  <Name_Molregno>
388372

>  <5-HT3>
4.33

$$$$
388374
  Marvin  02231216192D 0   1.00000     0.00000     0

 66 79  0  0  1  0  0  0  0  0999 V2000
   -1.7321    3.9458    0.0000 O   0  0  0  0  0  0  0  0  0
   -0.7600    3.9509    0.0000 C   0  0  0  0  0  0  0  0  0
    0.0443    4.4153    0.0000 N   0  0  0  0  0  0  0  0  0
    0.9557    3.6238    0.0000 C   0  0  0  0  0  0  0  0  0
    1.1176    2.7122    0.0000 C   0  0  0  0  0  0  0  0  0
    0.3199    2.2785    0.0000 C   0  0  0  0  0  0  0  0  0
    0.0700    1.5223    0.0000 N   0  3  0  0  0  0  0  0  0
   -0.8681    1.6323    0.0000 C   0  0  0  0  0  0  0  0  0
   -1.1526    2.7163    0.0000 C   0  0  0  0  0  0  0  0  0
   -0.4176    2.9062    0.0000 C   0  0  0  0  0  0  0  0  0
    0.2402    3.3759    0.0000 C   0  0  0  0  0  0  0  0  0
    0.5169    4.4169    0.0000 C   0  0  0  0  0  0  0  0  0
   -0.3982    4.7541    0.0000 O   0  0  0  0  0  0  0  0  0
   -1.2146    4.4490    0.0000 C   0  0  0  0  0  0  0  0  0
   -1.3999    3.5282    0.0000 C   0  0  0  0  0  0  0  0  0
    1.3738    3.9004    0.0000 N   0  0  0  0  0  0  0  0  0
    0.8022    3.0744    0.0000 C   0  0  0  0  0  0  0  0  0
    1.2104    2.2447    0.0000 C   0  0  0  0  0  0  0  0  0
    0.5461    1.7649    0.0000 C   0  0  0  0  0  0  0  0  0
    0.2305    0.9669    0.0000 N   0  3  0  0  0  0  0  0  0
   -0.7286    1.0489    0.0000 C   0  0  0  0  0  0  0  0  0
   -1.2831    1.9349    0.0000 C   0  0  0  0  0  0  0  0  0
   -0.6391    2.5438    0.0000 C   0  0  0  0  0  0  0  0  0
   -0.2702    3.2905    0.0000 C   0  0  0  0  0  0  0  0  0
   -0.1342    2.1389    0.0000 C   0  0  0  0  0  0  0  0  0
   -2.0150    2.4000    0.0000 C   0  0  0  0  0  0  0  0  0
   -2.2313    3.2283    0.0000 C   0  0  0  0  0  0  0  0  0
    1.0917    0.6826    0.0000 C   0  0  0  0  0  0  0  0  0
    1.6547    1.3649    0.0000 C   0  0  0  0  0  0  0  0  0
    0.1346    0.0144    0.0000 C   0  0  0  0  0  0  0  0  0
    0.6820   -0.3889    0.0000 C   0  0  0  0  0  0  0  0  0
    1.4379   -0.0583    0.0000 C   0  0  0  0  0  0  0  0  0
    2.1021   -0.5476    0.0000 C   0  0  0  0  0  0  0  0  0
    2.8580   -0.2170    0.0000 O   0  0  0  0  0  0  0  0  0
    3.5222   -0.7063    0.0000 C   0  0  0  0  0  0  0  0  0
    2.0105   -1.3675    0.0000 C   0  0  0  0  0  0  0  0  0
    2.6747   -1.8568    0.0000 O   0  0  0  0  0  0  0  0  0
    2.5831   -2.6767    0.0000 C   0  0  0  0  0  0  0  0  0
    1.2546   -1.6981    0.0000 C   0  0  0  0  0  0  0  0  0
    0.5904   -1.2088    0.0000 C   0  0  0  0  0  0  0  0  0
    2.0486    2.6986    0.0000 C   0  0  0  0  0  0  0  0  0
    2.1262    3.5199    0.0000 C   0  0  0  0  0  0  0  0  0
    2.8763    3.8634    0.0000 C   0  0  0  0  0  0  0  0  0
    3.5488    3.3855    0.0000 C   0  0  0  0  0  0  0  0  0
    3.4712    2.5642    0.0000 C   0  0  0  0  0  0  0  0  0
    2.7211    2.2207    0.0000 C   0  0  0  0  0  0  0  0  0
   -0.7128    2.1278    0.0000 C   0  0  0  0  0  0  0  0  0
    0.9863    1.3388    0.0000 C   0  0  0  0  0  0  0  0  0
    1.6259    1.9652    0.0000 C   0  0  0  0  0  0  0  0  0
   -0.1047    0.5601    0.0000 C   0  0  0  0  0  0  0  0  0
   -0.8293    0.4119    0.0000 C   0  0  0  0  0  0  0  0  0
   -1.0904   -0.3707    0.0000 C   0  0  0  0  0  0  0  0  0
   -1.8987   -0.5359    0.0000 C   0  0  0  0  0  0  0  0  0
   -2.1597   -1.3185    0.0000 O   0  0  0  0  0  0  0  0  0
   -2.9680   -1.4838    0.0000 C   0  0  0  0  0  0  0  0  0
   -2.4459    0.0815    0.0000 C   0  0  0  0  0  0  0  0  0
   -3.2542   -0.0838    0.0000 O   0  0  0  0  0  0  0  0  0
   -3.5152   -0.8664    0.0000 C   0  0  0  0  0  0  0  0  0
   -2.1849    0.8641    0.0000 C   0  0  0  0  0  0  0  0  0
   -1.3766    1.0293    0.0000 C   0  0  0  0  0  0  0  0  0
    0.1231    5.2365    0.0000 C   0  0  0  0  0  0  0  0  0
   -0.5486    5.7154    0.0000 C   0  0  0  0  0  0  0  0  0
   -0.4698    6.5366    0.0000 C   0  0  0  0  0  0  0  0  0
    0.2808    6.8789    0.0000 C   0  0  0  0  0  0  0  0  0
    0.9526    6.4000    0.0000 C   0  0  0  0  0  0  0  0  0
    0.8738    5.5788    0.0000 C   0  0  0  0  0  0  0  0  0
  1  2  1  0  0  0  0
  1 27  1  0  0  0  0
  2  3  1  0  0  0  0
  2 24  1  0  0  0  0
  3  4  1  0  0  0  0
  3 61  1  0  0  0  0
  4  5  1  0  0  0  0
  4 11  1  0  0  0  0
  5  6  1  0  0  0  0
  5 49  1  0  0  0  0
  6  7  1  0  0  0  0
  6 47  1  0  0  0  0
  7  8  1  0  0  0  0
  7 48  1  0  0  0  0
  7 50  1  0  0  0  0
  8  9  1  0  0  0  0
  9 10  1  0  0  0  0
  9 15  2  0  0  0  0
 10 11  1  0  0  0  0
 10 47  1  0  0  0  0
 11 12  1  0  0  0  0
 12 13  1  0  0  0  0
 12 16  1  0  0  0  0
 13 14  1  0  0  0  0
 14 15  1  0  0  0  0
 16 17  1  0  0  0  0
 16 42  1  0  0  0  0
 17 18  1  0  0  0  0
 17 24  1  0  0  0  0
 18 19  1  0  0  0  0
 18 29  1  0  0  0  0
 18 41  1  0  0  0  0
 19 20  1  0  0  0  0
 19 25  1  0  0  0  0
 20 21  1  0  0  0  0
 20 28  1  0  0  0  0
 20 30  1  0  0  0  0
 21 22  1  0  0  0  0
 22 23  1  0  0  0  0
 22 26  2  0  0  0  0
 23 24  1  0  0  0  0
 23 25  1  0  0  0  0
 26 27  1  0  0  0  0
 28 29  1  0  0  0  0
 30 31  1  0  0  0  0
 31 32  4  0  0  0  0
 31 40  4  0  0  0  0
 32 33  4  0  0  0  0
 33 34  1  0  0  0  0
 33 36  4  0  0  0  0
 34 35  1  0  0  0  0
 36 37  1  0  0  0  0
 36 39  4  0  0  0  0
 37 38  1  0  0  0  0
 39 40  4  0  0  0  0
 41 42  4  0  0  0  0
 41 46  4  0  0  0  0
 42 43  4  0  0  0  0
 43 44  4  0  0  0  0
 44 45  4  0  0  0  0
 45 46  4  0  0  0  0
 48 49  1  0  0  0  0
 50 51  1  0  0  0  0
 51 52  4  0  0  0  0
 51 60  4  0  0  0  0
 52 53  4  0  0  0  0
 53 54  1  0  0  0  0
 53 56  4  0  0  0  0
 54 55  1  0  0  0  0
 56 57  1  0  0  0  0
 56 59  4  0  0  0  0
 57 58  1  0  0  0  0
 59 60  4  0  0  0  0
 61 62  4  0  0  0  0
 61 66  4  0  0  0  0
 62 63  4  0  0  0  0
 63 64  4  0  0  0  0
 64 65  4  0  0  0  0
 65 66  4  0  0  0  0
M  CHG  2   7   1  20   1
M  END
>  <Name_Molregno>
388374

>  <5-HT3>
4.72

$$$$
388375
  Marvin  02231216192D 0   1.00000     0.00000     0

 60 73  0  0  1  0  0  0  0  0999 V2000
   -3.7145    3.4493    0.0000 Br  0  0  0  0  0  0  0  0  0
   -4.3111    2.8795    0.0000 C   0  0  0  0  0  0  0  0  0
   -4.1160    2.0779    0.0000 C   0  0  0  0  0  0  0  0  0
   -4.7126    1.5081    0.0000 C   0  0  0  0  0  0  0  0  0
   -5.5044    1.7399    0.0000 C   0  0  0  0  0  0  0  0  0
   -5.6995    2.5415    0.0000 C   0  0  0  0  0  0  0  0  0
   -5.1029    3.1113    0.0000 C   0  0  0  0  0  0  0  0  0
   -6.1010    1.1701    0.0000 C   0  0  0  0  0  0  0  0  0
   -5.9059    0.3685    0.0000 N   0  3  0  0  0  0  0  0  0
   -5.7058   -0.4407    0.0000 C   0  0  0  0  0  0  0  0  0
   -4.9169   -0.8379    0.0000 C   0  0  0  0  0  0  0  0  0
   -5.1441   -1.5786    0.0000 C   0  0  0  0  0  0  0  0  0
   -4.5382   -2.1972    0.0000 N   0  0  0  0  0  0  0  0  0
   -4.7212   -1.3700    0.0000 C   0  0  0  0  0  0  0  0  0
   -4.2437   -0.5676    0.0000 O   0  0  0  0  0  0  0  0  0
   -4.4912    0.2971    0.0000 C   0  0  0  0  0  0  0  0  0
   -5.3873    0.2856    0.0000 C   0  0  0  0  0  0  0  0  0
   -6.2865   -0.1253    0.0000 C   0  0  0  0  0  0  0  0  0
   -6.2288   -0.9377    0.0000 C   0  0  0  0  0  0  0  0  0
   -5.7510   -1.3891    0.0000 C   0  0  0  0  0  0  0  0  0
   -6.4616   -2.2694    0.0000 C   0  0  0  0  0  0  0  0  0
   -5.7620   -3.0353    0.0000 N   0  0  0  0  0  0  0  0  0
   -6.4279   -2.7658    0.0000 C   0  0  0  0  0  0  0  0  0
   -7.1952   -2.9644    0.0000 O   0  0  0  0  0  0  0  0  0
   -7.8622   -2.4852    0.0000 C   0  0  0  0  0  0  0  0  0
   -7.8832   -1.5413    0.0000 C   0  0  0  0  0  0  0  0  0
   -7.2202   -0.7635    0.0000 C   0  0  0  0  0  0  0  0  0
   -6.5932   -1.3112    0.0000 C   0  0  0  0  0  0  0  0  0
   -6.1689   -1.8594    0.0000 C   0  0  0  0  0  0  0  0  0
   -6.6778   -0.7274    0.0000 C   0  0  0  0  0  0  0  0  0
   -6.7807    0.2371    0.0000 C   0  0  0  0  0  0  0  0  0
   -5.0847   -3.5063    0.0000 C   0  0  0  0  0  0  0  0  0
   -4.3381   -3.1552    0.0000 C   0  0  0  0  0  0  0  0  0
   -3.6608   -3.6262    0.0000 C   0  0  0  0  0  0  0  0  0
   -3.7300   -4.4483    0.0000 C   0  0  0  0  0  0  0  0  0
   -4.4766   -4.7994    0.0000 C   0  0  0  0  0  0  0  0  0
   -5.1539   -4.3284    0.0000 C   0  0  0  0  0  0  0  0  0
   -7.4249   -2.0247    0.0000 C   0  0  0  0  0  0  0  0  0
   -7.5451   -1.1718    0.0000 C   0  0  0  0  0  0  0  0  0
   -7.9547   -0.5393    0.0000 N   0  3  0  0  0  0  0  0  0
   -7.2710    0.0399    0.0000 C   0  0  0  0  0  0  0  0  0
   -8.6140   -1.1192    0.0000 C   0  0  0  0  0  0  0  0  0
   -8.3600   -1.9611    0.0000 C   0  0  0  0  0  0  0  0  0
   -8.4938    0.0852    0.0000 C   0  0  0  0  0  0  0  0  0
   -8.2225    0.8644    0.0000 C   0  0  0  0  0  0  0  0  0
   -8.7616    1.4889    0.0000 C   0  0  0  0  0  0  0  0  0
   -8.4903    2.2680    0.0000 C   0  0  0  0  0  0  0  0  0
   -7.6799    2.4226    0.0000 C   0  0  0  0  0  0  0  0  0
   -7.4087    3.2017    0.0000 Br  0  0  0  0  0  0  0  0  0
   -7.1408    1.7981    0.0000 C   0  0  0  0  0  0  0  0  0
   -7.4121    1.0190    0.0000 C   0  0  0  0  0  0  0  0  0
   -7.0896   -1.5712    0.0000 C   0  0  0  0  0  0  0  0  0
   -3.7624   -1.9280    0.0000 C   0  0  0  0  0  0  0  0  0
   -3.9509   -1.1248    0.0000 C   0  0  0  0  0  0  0  0  0
   -3.3495   -0.5600    0.0000 C   0  0  0  0  0  0  0  0  0
   -2.5597   -0.7984    0.0000 C   0  0  0  0  0  0  0  0  0
   -2.3713   -1.6016    0.0000 C   0  0  0  0  0  0  0  0  0
   -2.9726   -2.1664    0.0000 C   0  0  0  0  0  0  0  0  0
   -4.5822   -0.1330    0.0000 C   0  0  0  0  0  0  0  0  0
   -5.0149    0.6722    0.0000 C   0  0  0  0  0  0  0  0  0
  1  2  1  0  0  0  0
  2  3  4  0  0  0  0
  2  7  4  0  0  0  0
  3  4  4  0  0  0  0
  4  5  4  0  0  0  0
  5  6  4  0  0  0  0
  5  8  1  0  0  0  0
  6  7  4  0  0  0  0
  8  9  1  0  0  0  0
  9 10  1  0  0  0  0
  9 31  1  0  0  0  0
  9 60  1  0  0  0  0
 10 11  1  0  0  0  0
 10 30  1  0  0  0  0
 11 12  1  0  0  0  0
 11 54  1  0  0  0  0
 11 59  1  0  0  0  0
 12 13  1  0  0  0  0
 12 29  1  0  0  0  0
 13 14  1  0  0  0  0
 13 53  1  0  0  0  0
 14 15  1  0  0  0  0
 14 20  1  0  0  0  0
 15 16  1  0  0  0  0
 16 17  1  0  0  0  0
 17 18  2  0  0  0  0
 18 19  1  0  0  0  0
 18 41  1  0  0  0  0
 19 20  1  0  0  0  0
 19 52  1  0  0  0  0
 20 21  1  0  0  0  0
 21 22  1  0  0  0  0
 21 38  1  0  0  0  0
 22 23  1  0  0  0  0
 22 32  1  0  0  0  0
 23 24  1  0  0  0  0
 23 29  1  0  0  0  0
 24 25  1  0  0  0  0
 25 26  1  0  0  0  0
 26 27  2  0  0  0  0
 27 28  1  0  0  0  0
 27 31  1  0  0  0  0
 28 29  1  0  0  0  0
 28 30  1  0  0  0  0
 32 33  4  0  0  0  0
 32 37  4  0  0  0  0
 33 34  4  0  0  0  0
 34 35  4  0  0  0  0
 35 36  4  0  0  0  0
 36 37  4  0  0  0  0
 38 39  1  0  0  0  0
 38 43  1  0  0  0  0
 39 40  1  0  0  0  0
 39 52  1  0  0  0  0
 40 41  1  0  0  0  0
 40 42  1  0  0  0  0
 40 44  1  0  0  0  0
 42 43  1  0  0  0  0
 44 45  1  0  0  0  0
 45 46  4  0  0  0  0
 45 51  4  0  0  0  0
 46 47  4  0  0  0  0
 47 48  4  0  0  0  0
 48 49  1  0  0  0  0
 48 50  4  0  0  0  0
 50 51  4  0  0  0  0
 53 54  4  0  0  0  0
 53 58  4  0  0  0  0
 54 55  4  0  0  0  0
 55 56  4  0  0  0  0
 56 57  4  0  0  0  0
 57 58  4  0  0  0  0
 59 60  1  0  0  0  0
M  CHG  2   9   1  40   1
M  END
>  <Name_Molregno>
388375

>  <5-HT3>
5.23

$$$$
388376
  Marvin  02231216192D 0   1.00000     0.00000     0

 64 77  0  0  1  0  0  0  0  0999 V2000
   -3.2709    3.3670    0.0000 O   0  0  0  0  0  0  0  0  0
   -2.2988    3.3722    0.0000 C   0  0  0  0  0  0  0  0  0
   -1.4946    3.8365    0.0000 N   0  0  0  0  0  0  0  0  0
   -0.5832    3.0451    0.0000 C   0  0  0  0  0  0  0  0  0
   -0.4213    2.1335    0.0000 C   0  0  0  0  0  0  0  0  0
   -1.2190    1.6998    0.0000 C   0  0  0  0  0  0  0  0  0
   -1.4688    0.9436    0.0000 N   0  3  0  0  0  0  0  0  0
   -2.4070    1.0536    0.0000 C   0  0  0  0  0  0  0  0  0
   -2.6915    2.1376    0.0000 C   0  0  0  0  0  0  0  0  0
   -1.9565    2.3275    0.0000 C   0  0  0  0  0  0  0  0  0
   -1.2987    2.7971    0.0000 C   0  0  0  0  0  0  0  0  0
   -1.0219    3.8382    0.0000 C   0  0  0  0  0  0  0  0  0
   -1.9371    4.1754    0.0000 O   0  0  0  0  0  0  0  0  0
   -2.7535    3.8703    0.0000 C   0  0  0  0  0  0  0  0  0
   -2.9388    2.9495    0.0000 C   0  0  0  0  0  0  0  0  0
   -0.1651    3.3217    0.0000 N   0  0  0  0  0  0  0  0  0
   -0.7367    2.4956    0.0000 C   0  0  0  0  0  0  0  0  0
   -0.3285    1.6659    0.0000 C   0  0  0  0  0  0  0  0  0
   -0.9927    1.1862    0.0000 C   0  0  0  0  0  0  0  0  0
   -1.3083    0.3881    0.0000 N   0  3  0  0  0  0  0  0  0
   -2.2674    0.4702    0.0000 C   0  0  0  0  0  0  0  0  0
   -2.8219    1.3562    0.0000 C   0  0  0  0  0  0  0  0  0
   -2.1779    1.9651    0.0000 C   0  0  0  0  0  0  0  0  0
   -1.8090    2.7118    0.0000 C   0  0  0  0  0  0  0  0  0
   -1.6730    1.5602    0.0000 C   0  0  0  0  0  0  0  0  0
   -3.5539    1.8213    0.0000 C   0  0  0  0  0  0  0  0  0
   -3.7702    2.6496    0.0000 C   0  0  0  0  0  0  0  0  0
   -0.4472    0.1038    0.0000 C   0  0  0  0  0  0  0  0  0
    0.1158    0.7862    0.0000 C   0  0  0  0  0  0  0  0  0
   -1.4038   -0.5647    0.0000 C   0  0  0  0  0  0  0  0  0
   -0.8568   -0.9676    0.0000 C   0  0  0  0  0  0  0  0  0
   -0.1010   -0.6370    0.0000 C   0  0  0  0  0  0  0  0  0
    0.5633   -1.1263    0.0000 C   0  0  0  0  0  0  0  0  0
    0.4717   -1.9462    0.0000 C   0  0  0  0  0  0  0  0  0
    1.1359   -2.4355    0.0000 N   0  3  0  0  0  0  0  0  0
    1.0443   -3.2554    0.0000 O   0  5  0  0  0  0  0  0  0
    1.8918   -2.1049    0.0000 O   0  5  0  0  0  0  0  0  0
   -0.2842   -2.2768    0.0000 C   0  0  0  0  0  0  0  0  0
   -0.9484   -1.7875    0.0000 C   0  0  0  0  0  0  0  0  0
    0.5098    2.1198    0.0000 C   0  0  0  0  0  0  0  0  0
    0.5874    2.9412    0.0000 C   0  0  0  0  0  0  0  0  0
    1.3375    3.2846    0.0000 C   0  0  0  0  0  0  0  0  0
    2.0100    2.8068    0.0000 C   0  0  0  0  0  0  0  0  0
    1.9324    1.9854    0.0000 C   0  0  0  0  0  0  0  0  0
    1.1823    1.6420    0.0000 C   0  0  0  0  0  0  0  0  0
   -2.2517    1.5490    0.0000 C   0  0  0  0  0  0  0  0  0
   -0.5526    0.7601    0.0000 C   0  0  0  0  0  0  0  0  0
    0.0871    1.3865    0.0000 C   0  0  0  0  0  0  0  0  0
   -1.6438   -0.0185    0.0000 C   0  0  0  0  0  0  0  0  0
   -2.3682   -0.1668    0.0000 C   0  0  0  0  0  0  0  0  0
   -2.6290   -0.9495    0.0000 C   0  0  0  0  0  0  0  0  0
   -3.4373   -1.1149    0.0000 C   0  0  0  0  0  0  0  0  0
   -3.9847   -0.4977    0.0000 C   0  0  0  0  0  0  0  0  0
   -4.7929   -0.6632    0.0000 N   0  3  0  0  0  0  0  0  0
   -5.0537   -1.4459    0.0000 O   0  5  0  0  0  0  0  0  0
   -5.3403   -0.0460    0.0000 O   0  5  0  0  0  0  0  0  0
   -3.7239    0.2850    0.0000 C   0  0  0  0  0  0  0  0  0
   -2.9156    0.4504    0.0000 C   0  0  0  0  0  0  0  0  0
   -1.4157    4.6577    0.0000 C   0  0  0  0  0  0  0  0  0
   -2.0875    5.1366    0.0000 C   0  0  0  0  0  0  0  0  0
   -2.0086    5.9579    0.0000 C   0  0  0  0  0  0  0  0  0
   -1.2580    6.3002    0.0000 C   0  0  0  0  0  0  0  0  0
   -0.5862    5.8213    0.0000 C   0  0  0  0  0  0  0  0  0
   -0.6651    5.0001    0.0000 C   0  0  0  0  0  0  0  0  0
  1  2  1  0  0  0  0
  1 27  1  0  0  0  0
  2  3  1  0  0  0  0
  2 24  1  0  0  0  0
  3  4  1  0  0  0  0
  3 59  1  0  0  0  0
  4  5  1  0  0  0  0
  4 11  1  0  0  0  0
  5  6  1  0  0  0  0
  5 48  1  0  0  0  0
  6  7  1  0  0  0  0
  6 46  1  0  0  0  0
  7  8  1  0  0  0  0
  7 47  1  0  0  0  0
  7 49  1  0  0  0  0
  8  9  1  0  0  0  0
  9 10  1  0  0  0  0
  9 15  2  0  0  0  0
 10 11  1  0  0  0  0
 10 46  1  0  0  0  0
 11 12  1  0  0  0  0
 12 13  1  0  0  0  0
 12 16  1  0  0  0  0
 13 14  1  0  0  0  0
 14 15  1  0  0  0  0
 16 17  1  0  0  0  0
 16 41  1  0  0  0  0
 17 18  1  0  0  0  0
 17 24  1  0  0  0  0
 18 19  1  0  0  0  0
 18 29  1  0  0  0  0
 18 40  1  0  0  0  0
 19 20  1  0  0  0  0
 19 25  1  0  0  0  0
 20 21  1  0  0  0  0
 20 28  1  0  0  0  0
 20 30  1  0  0  0  0
 21 22  1  0  0  0  0
 22 23  1  0  0  0  0
 22 26  2  0  0  0  0
 23 24  1  0  0  0  0
 23 25  1  0  0  0  0
 26 27  1  0  0  0  0
 28 29  1  0  0  0  0
 30 31  1  0  0  0  0
 31 32  4  0  0  0  0
 31 39  4  0  0  0  0
 32 33  4  0  0  0  0
 33 34  4  0  0  0  0
 34 35  1  0  0  0  0
 34 38  4  0  0  0  0
 35 36  1  0  0  0  0
 35 37  1  0  0  0  0
 38 39  4  0  0  0  0
 40 41  4  0  0  0  0
 40 45  4  0  0  0  0
 41 42  4  0  0  0  0
 42 43  4  0  0  0  0
 43 44  4  0  0  0  0
 44 45  4  0  0  0  0
 47 48  1  0  0  0  0
 49 50  1  0  0  0  0
 50 51  4  0  0  0  0
 50 58  4  0  0  0  0
 51 52  4  0  0  0  0
 52 53  4  0  0  0  0
 53 54  1  0  0  0  0
 53 57  4  0  0  0  0
 54 55  1  0  0  0  0
 54 56  1  0  0  0  0
 57 58  4  0  0  0  0
 59 60  4  0  0  0  0
 59 64  4  0  0  0  0
 60 61  4  0  0  0  0
 61 62  4  0  0  0  0
 62 63  4  0  0  0  0
 63 64  4  0  0  0  0
M  CHG  8   7   1  20   1  35   1  36  -1  37  -1  54   1  55  -1  56  -1
M  END
>  <Name_Molregno>
388376

>  <5-HT3>
5.94

$$$$
388378
  Marvin  02231216192D 0   1.00000     0.00000     0

 44 54  0  0  1  0  0  0  0  0999 V2000
   -0.0187    3.6903    0.0000 O   0  0  0  0  0  0  0  0  0
   -0.1325    2.8385    0.0000 C   0  0  0  0  0  0  0  0  0
    0.6349    2.5482    0.0000 N   0  0  0  0  0  0  0  0  0
    1.0294    1.8196    0.0000 C   0  0  0  0  0  0  0  0  0
    1.8696    2.0373    0.0000 C   0  0  0  0  0  0  0  0  0
    2.2455    1.3501    0.0000 C   0  0  0  0  0  0  0  0  0
    3.0006    1.1531    0.0000 N   0  0  0  0  0  0  0  0  0
    2.9768    0.2770    0.0000 C   0  0  0  0  0  0  0  0  0
    2.1910   -0.1550    0.0000 C   0  0  0  0  0  0  0  0  0
    1.3636    0.2515    0.0000 C   0  0  0  0  0  0  0  0  0
    0.7787    0.9596    0.0000 C   0  0  0  0  0  0  0  0  0
    0.0713    0.6202    0.0000 C   0  0  0  0  0  0  0  0  0
   -0.7296    0.8463    0.0000 N   0  0  0  0  0  0  0  0  0
   -1.1432    1.5805    0.0000 C   0  0  0  0  0  0  0  0  0
   -2.0165    1.4430    0.0000 C   0  0  0  0  0  0  0  0  0
   -2.2851    2.2464    0.0000 C   0  0  0  0  0  0  0  0  0
   -3.0260    2.5152    0.0000 N   0  0  0  0  0  0  0  0  0
   -2.8465    3.3906    0.0000 C   0  0  0  0  0  0  0  0  0
   -1.9305    3.6589    0.0000 C   0  0  0  0  0  0  0  0  0
   -1.3472    2.9236    0.0000 C   0  0  0  0  0  0  0  0  0
   -0.8056    2.3924    0.0000 C   0  0  0  0  0  0  0  0  0
   -1.8439    3.0563    0.0000 C   0  0  0  0  0  0  0  0  0
   -1.4126    4.2836    0.0000 C   0  0  0  0  0  0  0  0  0
   -0.5853    4.3257    0.0000 C   0  0  0  0  0  0  0  0  0
   -3.4154    1.7240    0.0000 C   0  0  0  0  0  0  0  0  0
   -2.8338    1.1153    0.0000 C   0  0  0  0  0  0  0  0  0
   -2.0239    0.5612    0.0000 C   0  0  0  0  0  0  0  0  0
   -1.2766    0.2116    0.0000 C   0  0  0  0  0  0  0  0  0
   -1.2057   -0.6104    0.0000 C   0  0  0  0  0  0  0  0  0
   -1.8821   -1.0827    0.0000 C   0  0  0  0  0  0  0  0  0
   -2.6294   -0.7332    0.0000 C   0  0  0  0  0  0  0  0  0
   -2.7002    0.0888    0.0000 C   0  0  0  0  0  0  0  0  0
    1.7528    0.7147    0.0000 C   0  0  0  0  0  0  0  0  0
    2.2100   -0.9798    0.0000 C   0  0  0  0  0  0  0  0  0
    2.9338   -1.3758    0.0000 C   0  0  0  0  0  0  0  0  0
    3.6386   -0.9469    0.0000 O   0  0  0  0  0  0  0  0  0
    3.2744    1.9913    0.0000 C   0  0  0  0  0  0  0  0  0
    2.6006    2.5120    0.0000 C   0  0  0  0  0  0  0  0  0
    1.1777    3.1695    0.0000 C   0  0  0  0  0  0  0  0  0
    0.9110    3.9502    0.0000 C   0  0  0  0  0  0  0  0  0
    1.4538    4.5715    0.0000 C   0  0  0  0  0  0  0  0  0
    2.2632    4.4121    0.0000 C   0  0  0  0  0  0  0  0  0
    2.5299    3.6314    0.0000 C   0  0  0  0  0  0  0  0  0
    1.9871    3.0101    0.0000 C   0  0  0  0  0  0  0  0  0
  1  2  1  0  0  0  0
  1 24  1  0  0  0  0
  2  3  1  0  0  0  0
  2 21  1  0  0  0  0
  3  4  1  0  0  0  0
  3 39  1  0  0  0  0
  4  5  1  0  0  0  0
  4 11  1  0  0  0  0
  5  6  1  0  0  0  0
  5 38  1  0  0  0  0
  6  7  1  0  0  0  0
  6 33  1  0  0  0  0
  7  8  1  0  0  0  0
  7 37  1  0  0  0  0
  8  9  1  0  0  0  0
  9 10  1  0  0  0  0
  9 34  2  0  0  0  0
 10 11  1  0  0  0  0
 10 33  1  0  0  0  0
 11 12  2  0  0  0  0
 12 13  1  0  0  0  0
 13 14  1  0  0  0  0
 13 28  1  0  0  0  0
 14 15  1  0  0  0  0
 14 21  1  0  0  0  0
 15 16  1  0  0  0  0
 15 26  1  0  0  0  0
 15 27  1  0  0  0  0
 16 17  1  0  0  0  0
 16 22  1  0  0  0  0
 17 18  1  0  0  0  0
 17 25  1  0  0  0  0
 18 19  1  0  0  0  0
 19 20  1  0  0  0  0
 19 23  2  0  0  0  0
 20 21  1  0  0  0  0
 20 22  1  0  0  0  0
 23 24  1  0  0  0  0
 25 26  1  0  0  0  0
 27 28  4  0  0  0  0
 27 32  4  0  0  0  0
 28 29  4  0  0  0  0
 29 30  4  0  0  0  0
 30 31  4  0  0  0  0
 31 32  4  0  0  0  0
 34 35  1  0  0  0  0
 35 36  1  0  0  0  0
 37 38  1  0  0  0  0
 39 40  4  0  0  0  0
 39 44  4  0  0  0  0
 40 41  4  0  0  0  0
 41 42  4  0  0  0  0
 42 43  4  0  0  0  0
 43 44  4  0  0  0  0
M  END
>  <Name_Molregno>
388378

>  <5-HT3>
5.71

$$$$
388379
  Marvin  02231216192D 0   1.00000     0.00000     0

 46 56  0  0  1  0  0  0  0  0999 V2000
    0.0990    3.8352    0.0000 O   0  0  0  0  0  0  0  0  0
   -0.0148    2.9834    0.0000 C   0  0  0  0  0  0  0  0  0
    0.7526    2.6931    0.0000 N   0  0  0  0  0  0  0  0  0
    1.1472    1.9645    0.0000 C   0  0  0  0  0  0  0  0  0
    1.9874    2.1821    0.0000 C   0  0  0  0  0  0  0  0  0
    2.3633    1.4949    0.0000 C   0  0  0  0  0  0  0  0  0
    3.1183    1.2980    0.0000 N   0  3  0  0  0  0  0  0  0
    3.0945    0.4219    0.0000 C   0  0  0  0  0  0  0  0  0
    2.3088   -0.0102    0.0000 C   0  0  0  0  0  0  0  0  0
    1.4814    0.3963    0.0000 C   0  0  0  0  0  0  0  0  0
    0.8965    1.1044    0.0000 C   0  0  0  0  0  0  0  0  0
    0.1890    0.7650    0.0000 C   0  0  0  0  0  0  0  0  0
   -0.6119    0.9912    0.0000 N   0  0  0  0  0  0  0  0  0
   -1.0254    1.7253    0.0000 C   0  0  0  0  0  0  0  0  0
   -1.8987    1.5878    0.0000 C   0  0  0  0  0  0  0  0  0
   -2.1674    2.3912    0.0000 C   0  0  0  0  0  0  0  0  0
   -2.9082    2.6600    0.0000 N   0  3  0  0  0  0  0  0  0
   -2.7288    3.5354    0.0000 C   0  0  0  0  0  0  0  0  0
   -1.8128    3.8038    0.0000 C   0  0  0  0  0  0  0  0  0
   -1.2294    3.0684    0.0000 C   0  0  0  0  0  0  0  0  0
   -0.6879    2.5373    0.0000 C   0  0  0  0  0  0  0  0  0
   -1.7262    3.2011    0.0000 C   0  0  0  0  0  0  0  0  0
   -1.2949    4.4284    0.0000 C   0  0  0  0  0  0  0  0  0
   -0.4675    4.4705    0.0000 C   0  0  0  0  0  0  0  0  0
   -3.2976    1.8689    0.0000 C   0  0  0  0  0  0  0  0  0
   -2.7161    1.2601    0.0000 C   0  0  0  0  0  0  0  0  0
   -3.6888    2.9272    0.0000 C   0  0  0  0  0  0  0  0  0
   -1.9061    0.7060    0.0000 C   0  0  0  0  0  0  0  0  0
   -1.1589    0.3564    0.0000 C   0  0  0  0  0  0  0  0  0
   -1.0880   -0.4655    0.0000 C   0  0  0  0  0  0  0  0  0
   -1.7643   -0.9379    0.0000 C   0  0  0  0  0  0  0  0  0
   -2.5116   -0.5883    0.0000 C   0  0  0  0  0  0  0  0  0
   -2.5825    0.2336    0.0000 C   0  0  0  0  0  0  0  0  0
    1.8705    0.8596    0.0000 C   0  0  0  0  0  0  0  0  0
    2.3277   -0.8350    0.0000 C   0  0  0  0  0  0  0  0  0
    3.0515   -1.2309    0.0000 C   0  0  0  0  0  0  0  0  0
    3.7563   -0.8021    0.0000 O   0  0  0  0  0  0  0  0  0
    3.3922    2.1361    0.0000 C   0  0  0  0  0  0  0  0  0
    2.7184    2.6569    0.0000 C   0  0  0  0  0  0  0  0  0
    3.9312    1.1572    0.0000 C   0  0  0  0  0  0  0  0  0
    1.2954    3.3143    0.0000 C   0  0  0  0  0  0  0  0  0
    1.0287    4.0951    0.0000 C   0  0  0  0  0  0  0  0  0
    1.5715    4.7163    0.0000 C   0  0  0  0  0  0  0  0  0
    2.3810    4.5569    0.0000 C   0  0  0  0  0  0  0  0  0
    2.6476    3.7762    0.0000 C   0  0  0  0  0  0  0  0  0
    2.1049    3.1549    0.0000 C   0  0  0  0  0  0  0  0  0
  1  2  1  0  0  0  0
  1 24  1  0  0  0  0
  2  3  1  0  0  0  0
  2 21  1  0  0  0  0
  3  4  1  0  0  0  0
  3 41  1  0  0  0  0
  4  5  1  0  0  0  0
  4 11  1  0  0  0  0
  5  6  1  0  0  0  0
  5 39  1  0  0  0  0
  6  7  1  0  0  0  0
  6 34  1  0  0  0  0
  7  8  1  0  0  0  0
  7 38  1  0  0  0  0
  7 40  1  0  0  0  0
  8  9  1  0  0  0  0
  9 10  1  0  0  0  0
  9 35  2  0  0  0  0
 10 11  1  0  0  0  0
 10 34  1  0  0  0  0
 11 12  2  0  0  0  0
 12 13  1  0  0  0  0
 13 14  1  0  0  0  0
 13 29  1  0  0  0  0
 14 15  1  0  0  0  0
 14 21  1  0  0  0  0
 15 16  1  0  0  0  0
 15 26  1  0  0  0  0
 15 28  1  0  0  0  0
 16 17  1  0  0  0  0
 16 22  1  0  0  0  0
 17 18  1  0  0  0  0
 17 25  1  0  0  0  0
 17 27  1  0  0  0  0
 18 19  1  0  0  0  0
 19 20  1  0  0  0  0
 19 23  2  0  0  0  0
 20 21  1  0  0  0  0
 20 22  1  0  0  0  0
 23 24  1  0  0  0  0
 25 26  1  0  0  0  0
 28 29  4  0  0  0  0
 28 33  4  0  0  0  0
 29 30  4  0  0  0  0
 30 31  4  0  0  0  0
 31 32  4  0  0  0  0
 32 33  4  0  0  0  0
 35 36  1  0  0  0  0
 36 37  1  0  0  0  0
 38 39  1  0  0  0  0
 41 42  4  0  0  0  0
 41 46  4  0  0  0  0
 42 43  4  0  0  0  0
 43 44  4  0  0  0  0
 44 45  4  0  0  0  0
 45 46  4  0  0  0  0
M  CHG  2   7   1  17   1
M  END
>  <Name_Molregno>
388379

>  <5-HT3>
5.54

$$$$
388380
  Marvin  02231216192D 0   1.00000     0.00000     0

 56 68  0  0  1  0  0  0  0  0999 V2000
    0.1036    0.0413    0.0000 O   0  0  0  0  0  0  0  0  0
   -0.0102   -0.8105    0.0000 C   0  0  0  0  0  0  0  0  0
    0.7571   -1.1009    0.0000 N   0  0  0  0  0  0  0  0  0
    1.1517   -1.8294    0.0000 C   0  0  0  0  0  0  0  0  0
    1.9919   -1.6118    0.0000 C   0  0  0  0  0  0  0  0  0
    2.3678   -2.2990    0.0000 C   0  0  0  0  0  0  0  0  0
    3.1229   -2.4959    0.0000 N   0  3  0  0  0  0  0  0  0
    3.0991   -3.3720    0.0000 C   0  0  0  0  0  0  0  0  0
    2.3133   -3.8041    0.0000 C   0  0  0  0  0  0  0  0  0
    1.4859   -3.3976    0.0000 C   0  0  0  0  0  0  0  0  0
    0.9010   -2.6895    0.0000 C   0  0  0  0  0  0  0  0  0
    0.1936   -3.0289    0.0000 C   0  0  0  0  0  0  0  0  0
   -0.6073   -2.8027    0.0000 N   0  0  0  0  0  0  0  0  0
   -1.0209   -2.0686    0.0000 C   0  0  0  0  0  0  0  0  0
   -1.8942   -2.2061    0.0000 C   0  0  0  0  0  0  0  0  0
   -2.1628   -1.4027    0.0000 C   0  0  0  0  0  0  0  0  0
   -2.9037   -1.1339    0.0000 N   0  3  0  0  0  0  0  0  0
   -2.7243   -0.2585    0.0000 C   0  0  0  0  0  0  0  0  0
   -1.8082    0.0099    0.0000 C   0  0  0  0  0  0  0  0  0
   -1.2249   -0.7255    0.0000 C   0  0  0  0  0  0  0  0  0
   -0.6833   -1.2566    0.0000 C   0  0  0  0  0  0  0  0  0
   -1.7217   -0.5928    0.0000 C   0  0  0  0  0  0  0  0  0
   -1.2903    0.6345    0.0000 C   0  0  0  0  0  0  0  0  0
   -0.4630    0.6766    0.0000 C   0  0  0  0  0  0  0  0  0
   -3.2931   -1.9250    0.0000 C   0  0  0  0  0  0  0  0  0
   -2.7116   -2.5338    0.0000 C   0  0  0  0  0  0  0  0  0
   -3.6843   -0.8667    0.0000 C   0  0  0  0  0  0  0  0  0
   -4.3059   -1.4091    0.0000 C   0  0  0  0  0  0  0  0  0
   -5.0864   -1.1420    0.0000 C   0  0  0  0  0  0  0  0  0
   -5.2453   -0.3324    0.0000 C   0  0  0  0  0  0  0  0  0
   -4.6237    0.2100    0.0000 C   0  0  0  0  0  0  0  0  0
   -3.8431   -0.0572    0.0000 C   0  0  0  0  0  0  0  0  0
   -1.9016   -3.0879    0.0000 C   0  0  0  0  0  0  0  0  0
   -1.1543   -3.4375    0.0000 C   0  0  0  0  0  0  0  0  0
   -1.0834   -4.2594    0.0000 C   0  0  0  0  0  0  0  0  0
   -1.7598   -4.7318    0.0000 C   0  0  0  0  0  0  0  0  0
   -2.5071   -4.3822    0.0000 C   0  0  0  0  0  0  0  0  0
   -2.5780   -3.5603    0.0000 C   0  0  0  0  0  0  0  0  0
    1.8750   -2.9343    0.0000 C   0  0  0  0  0  0  0  0  0
    2.3323   -4.6289    0.0000 C   0  0  0  0  0  0  0  0  0
    3.0561   -5.0248    0.0000 C   0  0  0  0  0  0  0  0  0
    3.0751   -5.8496    0.0000 O   0  0  0  0  0  0  0  0  0
    3.3967   -1.6578    0.0000 C   0  0  0  0  0  0  0  0  0
    2.7229   -1.1371    0.0000 C   0  0  0  0  0  0  0  0  0
    3.9358   -2.6367    0.0000 C   0  0  0  0  0  0  0  0  0
    4.4641   -2.0031    0.0000 C   0  0  0  0  0  0  0  0  0
    5.2770   -2.1439    0.0000 C   0  0  0  0  0  0  0  0  0
    5.5616   -2.9182    0.0000 C   0  0  0  0  0  0  0  0  0
    5.0332   -3.5519    0.0000 C   0  0  0  0  0  0  0  0  0
    4.2203   -3.4111    0.0000 C   0  0  0  0  0  0  0  0  0
    1.2999   -0.4796    0.0000 C   0  0  0  0  0  0  0  0  0
    1.0333    0.3012    0.0000 C   0  0  0  0  0  0  0  0  0
    1.5761    0.9224    0.0000 C   0  0  0  0  0  0  0  0  0
    2.3855    0.7630    0.0000 C   0  0  0  0  0  0  0  0  0
    2.6522   -0.0177    0.0000 C   0  0  0  0  0  0  0  0  0
    2.1094   -0.6390    0.0000 C   0  0  0  0  0  0  0  0  0
  1  2  1  0  0  0  0
  1 24  1  0  0  0  0
  2  3  1  0  0  0  0
  2 21  1  0  0  0  0
  3  4  1  0  0  0  0
  3 51  1  0  0  0  0
  4  5  1  0  0  0  0
  4 11  1  0  0  0  0
  5  6  1  0  0  0  0
  5 44  1  0  0  0  0
  6  7  1  0  0  0  0
  6 39  1  0  0  0  0
  7  8  1  0  0  0  0
  7 43  1  0  0  0  0
  7 45  1  0  0  0  0
  8  9  1  0  0  0  0
  9 10  1  0  0  0  0
  9 40  2  0  0  0  0
 10 11  1  0  0  0  0
 10 39  1  0  0  0  0
 11 12  2  0  0  0  0
 12 13  1  0  0  0  0
 13 14  1  0  0  0  0
 13 34  1  0  0  0  0
 14 15  1  0  0  0  0
 14 21  1  0  0  0  0
 15 16  1  0  0  0  0
 15 26  1  0  0  0  0
 15 33  1  0  0  0  0
 16 17  1  0  0  0  0
 16 22  1  0  0  0  0
 17 18  1  0  0  0  0
 17 25  1  0  0  0  0
 17 27  1  0  0  0  0
 18 19  1  0  0  0  0
 19 20  1  0  0  0  0
 19 23  2  0  0  0  0
 20 21  1  0  0  0  0
 20 22  1  0  0  0  0
 23 24  1  0  0  0  0
 25 26  1  0  0  0  0
 27 28  1  0  0  0  0
 27 32  1  0  0  0  0
 28 29  1  0  0  0  0
 29 30  1  0  0  0  0
 30 31  1  0  0  0  0
 31 32  2  0  0  0  0
 33 34  4  0  0  0  0
 33 38  4  0  0  0  0
 34 35  4  0  0  0  0
 35 36  4  0  0  0  0
 36 37  4  0  0  0  0
 37 38  4  0  0  0  0
 40 41  1  0  0  0  0
 41 42  1  0  0  0  0
 43 44  1  0  0  0  0
 45 46  1  0  0  0  0
 45 50  1  0  0  0  0
 46 47  1  0  0  0  0
 47 48  1  0  0  0  0
 48 49  1  0  0  0  0
 49 50  2  0  0  0  0
 51 52  4  0  0  0  0
 51 56  4  0  0  0  0
 52 53  4  0  0  0  0
 53 54  4  0  0  0  0
 54 55  4  0  0  0  0
 55 56  4  0  0  0  0
M  CHG  2   7   1  17   1
M  END
>  <Name_Molregno>
388380

>  <5-HT3>
4.4

$$$$
388381
  Marvin  02231216192D 0   1.00000     0.00000     0

 66 78  0  0  1  0  0  0  0  0999 V2000
   -1.3793    0.4951    0.0000 O   0  0  0  0  0  0  0  0  0
   -1.4931   -0.3568    0.0000 C   0  0  0  0  0  0  0  0  0
   -0.7258   -0.6471    0.0000 N   0  0  0  0  0  0  0  0  0
   -0.3312   -1.3757    0.0000 C   0  0  0  0  0  0  0  0  0
    0.5090   -1.1580    0.0000 C   0  0  0  0  0  0  0  0  0
    0.8849   -1.8452    0.0000 C   0  0  0  0  0  0  0  0  0
    1.6400   -2.0421    0.0000 N   0  3  0  0  0  0  0  0  0
    1.6162   -2.9183    0.0000 C   0  0  0  0  0  0  0  0  0
    0.8304   -3.3503    0.0000 C   0  0  0  0  0  0  0  0  0
    0.0030   -2.9438    0.0000 C   0  0  0  0  0  0  0  0  0
   -0.5819   -2.2357    0.0000 C   0  0  0  0  0  0  0  0  0
   -1.2893   -2.5751    0.0000 C   0  0  0  0  0  0  0  0  0
   -2.0902   -2.3489    0.0000 N   0  0  0  0  0  0  0  0  0
   -2.5038   -1.6148    0.0000 C   0  0  0  0  0  0  0  0  0
   -3.3771   -1.7523    0.0000 C   0  0  0  0  0  0  0  0  0
   -3.6457   -0.9489    0.0000 C   0  0  0  0  0  0  0  0  0
   -4.3866   -0.6801    0.0000 N   0  3  0  0  0  0  0  0  0
   -4.2071    0.1953    0.0000 C   0  0  0  0  0  0  0  0  0
   -3.2911    0.4636    0.0000 C   0  0  0  0  0  0  0  0  0
   -2.7078   -0.2717    0.0000 C   0  0  0  0  0  0  0  0  0
   -2.1662   -0.8029    0.0000 C   0  0  0  0  0  0  0  0  0
   -3.2046   -0.1390    0.0000 C   0  0  0  0  0  0  0  0  0
   -2.7732    1.0883    0.0000 C   0  0  0  0  0  0  0  0  0
   -1.9459    1.1304    0.0000 C   0  0  0  0  0  0  0  0  0
   -4.7760   -1.4713    0.0000 C   0  0  0  0  0  0  0  0  0
   -4.1945   -2.0800    0.0000 C   0  0  0  0  0  0  0  0  0
   -5.1671   -0.4130    0.0000 C   0  0  0  0  0  0  0  0  0
   -5.3260    0.3966    0.0000 C   0  0  0  0  0  0  0  0  0
   -6.1066    0.6638    0.0000 C   0  0  0  0  0  0  0  0  0
   -6.2655    1.4733    0.0000 C   0  0  0  0  0  0  0  0  0
   -7.0460    1.7405    0.0000 O   0  0  0  0  0  0  0  0  0
   -7.2049    2.5500    0.0000 C   0  0  0  0  0  0  0  0  0
   -5.6438    2.0157    0.0000 C   0  0  0  0  0  0  0  0  0
   -5.8027    2.8253    0.0000 O   0  0  0  0  0  0  0  0  0
   -5.1811    3.3676    0.0000 C   0  0  0  0  0  0  0  0  0
   -4.8633    1.7485    0.0000 C   0  0  0  0  0  0  0  0  0
   -4.7044    0.9390    0.0000 C   0  0  0  0  0  0  0  0  0
   -3.3845   -2.6341    0.0000 C   0  0  0  0  0  0  0  0  0
   -2.6372   -2.9837    0.0000 C   0  0  0  0  0  0  0  0  0
   -2.5663   -3.8056    0.0000 C   0  0  0  0  0  0  0  0  0
   -3.2427   -4.2780    0.0000 C   0  0  0  0  0  0  0  0  0
   -3.9900   -3.9284    0.0000 C   0  0  0  0  0  0  0  0  0
   -4.0609   -3.1065    0.0000 C   0  0  0  0  0  0  0  0  0
    0.3922   -2.4805    0.0000 C   0  0  0  0  0  0  0  0  0
    0.8494   -4.1751    0.0000 C   0  0  0  0  0  0  0  0  0
    0.1446   -4.6039    0.0000 C   0  0  0  0  0  0  0  0  0
    0.1636   -5.4287    0.0000 O   0  0  0  0  0  0  0  0  0
    1.9138   -1.2040    0.0000 C   0  0  0  0  0  0  0  0  0
    1.2400   -0.6833    0.0000 C   0  0  0  0  0  0  0  0  0
    2.4529   -2.1829    0.0000 C   0  0  0  0  0  0  0  0  0
    2.7374   -2.9573    0.0000 C   0  0  0  0  0  0  0  0  0
    3.5503   -3.0981    0.0000 C   0  0  0  0  0  0  0  0  0
    3.8349   -3.8725    0.0000 C   0  0  0  0  0  0  0  0  0
    4.6478   -4.0132    0.0000 O   0  0  0  0  0  0  0  0  0
    4.9323   -4.7876    0.0000 C   0  0  0  0  0  0  0  0  0
    3.3065   -4.5061    0.0000 C   0  0  0  0  0  0  0  0  0
    3.5910   -5.2804    0.0000 O   0  0  0  0  0  0  0  0  0
    4.4039   -5.4212    0.0000 C   0  0  0  0  0  0  0  0  0
    2.4936   -4.3653    0.0000 C   0  0  0  0  0  0  0  0  0
    2.2091   -3.5909    0.0000 C   0  0  0  0  0  0  0  0  0
   -0.1830   -0.0258    0.0000 C   0  0  0  0  0  0  0  0  0
   -0.4496    0.7549    0.0000 C   0  0  0  0  0  0  0  0  0
    0.0932    1.3762    0.0000 C   0  0  0  0  0  0  0  0  0
    0.9026    1.2168    0.0000 C   0  0  0  0  0  0  0  0  0
    1.1693    0.4361    0.0000 C   0  0  0  0  0  0  0  0  0
    0.6265   -0.1852    0.0000 C   0  0  0  0  0  0  0  0  0
  1  2  1  0  0  0  0
  1 24  1  0  0  0  0
  2  3  1  0  0  0  0
  2 21  1  0  0  0  0
  3  4  1  0  0  0  0
  3 61  1  0  0  0  0
  4  5  1  0  0  0  0
  4 11  1  0  0  0  0
  5  6  1  0  0  0  0
  5 49  1  0  0  0  0
  6  7  1  0  0  0  0
  6 44  1  0  0  0  0
  7  8  1  0  0  0  0
  7 48  1  0  0  0  0
  7 50  1  0  0  0  0
  8  9  1  0  0  0  0
  9 10  1  0  0  0  0
  9 45  2  0  0  0  0
 10 11  1  0  0  0  0
 10 44  1  0  0  0  0
 11 12  2  0  0  0  0
 12 13  1  0  0  0  0
 13 14  1  0  0  0  0
 13 39  1  0  0  0  0
 14 15  1  0  0  0  0
 14 21  1  0  0  0  0
 15 16  1  0  0  0  0
 15 26  1  0  0  0  0
 15 38  1  0  0  0  0
 16 17  1  0  0  0  0
 16 22  1  0  0  0  0
 17 18  1  0  0  0  0
 17 25  1  0  0  0  0
 17 27  1  0  0  0  0
 18 19  1  0  0  0  0
 19 20  1  0  0  0  0
 19 23  2  0  0  0  0
 20 21  1  0  0  0  0
 20 22  1  0  0  0  0
 23 24  1  0  0  0  0
 25 26  1  0  0  0  0
 27 28  1  0  0  0  0
 28 29  4  0  0  0  0
 28 37  4  0  0  0  0
 29 30  4  0  0  0  0
 30 31  1  0  0  0  0
 30 33  4  0  0  0  0
 31 32  1  0  0  0  0
 33 34  1  0  0  0  0
 33 36  4  0  0  0  0
 34 35  1  0  0  0  0
 36 37  4  0  0  0  0
 38 39  4  0  0  0  0
 38 43  4  0  0  0  0
 39 40  4  0  0  0  0
 40 41  4  0  0  0  0
 41 42  4  0  0  0  0
 42 43  4  0  0  0  0
 45 46  1  0  0  0  0
 46 47  1  0  0  0  0
 48 49  1  0  0  0  0
 50 51  1  0  0  0  0
 51 52  4  0  0  0  0
 51 60  4  0  0  0  0
 52 53  4  0  0  0  0
 53 54  1  0  0  0  0
 53 56  4  0  0  0  0
 54 55  1  0  0  0  0
 56 57  1  0  0  0  0
 56 59  4  0  0  0  0
 57 58  1  0  0  0  0
 59 60  4  0  0  0  0
 61 62  4  0  0  0  0
 61 66  4  0  0  0  0
 62 63  4  0  0  0  0
 63 64  4  0  0  0  0
 64 65  4  0  0  0  0
 65 66  4  0  0  0  0
M  CHG  2   7   1  17   1
M  END
>  <Name_Molregno>
388381

>  <5-HT3>
4.33

$$$$
388382
  Marvin  02231216192D 0   1.00000     0.00000     0

 64 76  0  0  1  0  0  0  0  0999 V2000
    0.7951    0.8770    0.0000 O   0  0  0  0  0  0  0  0  0
    0.6813    0.0252    0.0000 C   0  0  0  0  0  0  0  0  0
    1.4487   -0.2652    0.0000 N   0  0  0  0  0  0  0  0  0
    1.8433   -0.9938    0.0000 C   0  0  0  0  0  0  0  0  0
    2.6835   -0.7761    0.0000 C   0  0  0  0  0  0  0  0  0
    3.0594   -1.4633    0.0000 C   0  0  0  0  0  0  0  0  0
    3.8144   -1.6602    0.0000 N   0  3  0  0  0  0  0  0  0
    3.7906   -2.5363    0.0000 C   0  0  0  0  0  0  0  0  0
    3.0049   -2.9684    0.0000 C   0  0  0  0  0  0  0  0  0
    2.1775   -2.5619    0.0000 C   0  0  0  0  0  0  0  0  0
    1.5926   -1.8538    0.0000 C   0  0  0  0  0  0  0  0  0
    0.8851   -2.1932    0.0000 C   0  0  0  0  0  0  0  0  0
    0.0842   -1.9670    0.0000 N   0  0  0  0  0  0  0  0  0
   -0.3293   -1.2329    0.0000 C   0  0  0  0  0  0  0  0  0
   -1.2026   -1.3704    0.0000 C   0  0  0  0  0  0  0  0  0
   -1.4713   -0.5670    0.0000 C   0  0  0  0  0  0  0  0  0
   -2.2121   -0.2982    0.0000 N   0  3  0  0  0  0  0  0  0
   -2.0327    0.5772    0.0000 C   0  0  0  0  0  0  0  0  0
   -1.1167    0.8455    0.0000 C   0  0  0  0  0  0  0  0  0
   -0.5333    0.1102    0.0000 C   0  0  0  0  0  0  0  0  0
    0.0082   -0.4209    0.0000 C   0  0  0  0  0  0  0  0  0
   -1.0301    0.2429    0.0000 C   0  0  0  0  0  0  0  0  0
   -0.5988    1.4702    0.0000 C   0  0  0  0  0  0  0  0  0
    0.2286    1.5123    0.0000 C   0  0  0  0  0  0  0  0  0
   -2.6015   -1.0894    0.0000 C   0  0  0  0  0  0  0  0  0
   -2.0200   -1.6981    0.0000 C   0  0  0  0  0  0  0  0  0
   -2.9927   -0.0310    0.0000 C   0  0  0  0  0  0  0  0  0
   -3.1516    0.7785    0.0000 C   0  0  0  0  0  0  0  0  0
   -3.9321    1.0457    0.0000 C   0  0  0  0  0  0  0  0  0
   -4.0910    1.8552    0.0000 C   0  0  0  0  0  0  0  0  0
   -3.4694    2.3976    0.0000 C   0  0  0  0  0  0  0  0  0
   -3.6283    3.2072    0.0000 N   0  3  0  0  0  0  0  0  0
   -3.0066    3.7496    0.0000 O   0  5  0  0  0  0  0  0  0
   -4.4088    3.4743    0.0000 O   0  5  0  0  0  0  0  0  0
   -2.6888    2.1304    0.0000 C   0  0  0  0  0  0  0  0  0
   -2.5299    1.3209    0.0000 C   0  0  0  0  0  0  0  0  0
   -1.2100   -2.2522    0.0000 C   0  0  0  0  0  0  0  0  0
   -0.4628   -2.6018    0.0000 C   0  0  0  0  0  0  0  0  0
   -0.3919   -3.4237    0.0000 C   0  0  0  0  0  0  0  0  0
   -1.0682   -3.8961    0.0000 C   0  0  0  0  0  0  0  0  0
   -1.8155   -3.5465    0.0000 C   0  0  0  0  0  0  0  0  0
   -1.8864   -2.7246    0.0000 C   0  0  0  0  0  0  0  0  0
    2.5666   -2.0986    0.0000 C   0  0  0  0  0  0  0  0  0
    3.0238   -3.7932    0.0000 C   0  0  0  0  0  0  0  0  0
    3.7476   -4.1891    0.0000 C   0  0  0  0  0  0  0  0  0
    3.7666   -5.0139    0.0000 O   0  0  0  0  0  0  0  0  0
    4.0883   -0.8221    0.0000 C   0  0  0  0  0  0  0  0  0
    3.4145   -0.3014    0.0000 C   0  0  0  0  0  0  0  0  0
    4.6273   -1.8010    0.0000 C   0  0  0  0  0  0  0  0  0
    4.9119   -2.5754    0.0000 C   0  0  0  0  0  0  0  0  0
    5.7248   -2.7162    0.0000 C   0  0  0  0  0  0  0  0  0
    6.0093   -3.4905    0.0000 C   0  0  0  0  0  0  0  0  0
    5.4809   -4.1241    0.0000 C   0  0  0  0  0  0  0  0  0
    5.7655   -4.8985    0.0000 N   0  3  0  0  0  0  0  0  0
    6.5784   -5.0393    0.0000 O   0  5  0  0  0  0  0  0  0
    5.2371   -5.5321    0.0000 O   0  5  0  0  0  0  0  0  0
    4.6680   -3.9834    0.0000 C   0  0  0  0  0  0  0  0  0
    4.3835   -3.2090    0.0000 C   0  0  0  0  0  0  0  0  0
    1.9915    0.3561    0.0000 C   0  0  0  0  0  0  0  0  0
    1.7248    1.1368    0.0000 C   0  0  0  0  0  0  0  0  0
    2.2676    1.7581    0.0000 C   0  0  0  0  0  0  0  0  0
    3.0771    1.5987    0.0000 C   0  0  0  0  0  0  0  0  0
    3.3437    0.8180    0.0000 C   0  0  0  0  0  0  0  0  0
    2.8010    0.1967    0.0000 C   0  0  0  0  0  0  0  0  0
  1  2  1  0  0  0  0
  1 24  1  0  0  0  0
  2  3  1  0  0  0  0
  2 21  1  0  0  0  0
  3  4  1  0  0  0  0
  3 59  1  0  0  0  0
  4  5  1  0  0  0  0
  4 11  1  0  0  0  0
  5  6  1  0  0  0  0
  5 48  1  0  0  0  0
  6  7  1  0  0  0  0
  6 43  1  0  0  0  0
  7  8  1  0  0  0  0
  7 47  1  0  0  0  0
  7 49  1  0  0  0  0
  8  9  1  0  0  0  0
  9 10  1  0  0  0  0
  9 44  2  0  0  0  0
 10 11  1  0  0  0  0
 10 43  1  0  0  0  0
 11 12  2  0  0  0  0
 12 13  1  0  0  0  0
 13 14  1  0  0  0  0
 13 38  1  0  0  0  0
 14 15  1  0  0  0  0
 14 21  1  0  0  0  0
 15 16  1  0  0  0  0
 15 26  1  0  0  0  0
 15 37  1  0  0  0  0
 16 17  1  0  0  0  0
 16 22  1  0  0  0  0
 17 18  1  0  0  0  0
 17 25  1  0  0  0  0
 17 27  1  0  0  0  0
 18 19  1  0  0  0  0
 19 20  1  0  0  0  0
 19 23  2  0  0  0  0
 20 21  1  0  0  0  0
 20 22  1  0  0  0  0
 23 24  1  0  0  0  0
 25 26  1  0  0  0  0
 27 28  1  0  0  0  0
 28 29  4  0  0  0  0
 28 36  4  0  0  0  0
 29 30  4  0  0  0  0
 30 31  4  0  0  0  0
 31 32  1  0  0  0  0
 31 35  4  0  0  0  0
 32 33  1  0  0  0  0
 32 34  1  0  0  0  0
 35 36  4  0  0  0  0
 37 38  4  0  0  0  0
 37 42  4  0  0  0  0
 38 39  4  0  0  0  0
 39 40  4  0  0  0  0
 40 41  4  0  0  0  0
 41 42  4  0  0  0  0
 44 45  1  0  0  0  0
 45 46  1  0  0  0  0
 47 48  1  0  0  0  0
 49 50  1  0  0  0  0
 50 51  4  0  0  0  0
 50 58  4  0  0  0  0
 51 52  4  0  0  0  0
 52 53  4  0  0  0  0
 53 54  1  0  0  0  0
 53 57  4  0  0  0  0
 54 55  1  0  0  0  0
 54 56  1  0  0  0  0
 57 58  4  0  0  0  0
 59 60  4  0  0  0  0
 59 64  4  0  0  0  0
 60 61  4  0  0  0  0
 61 62  4  0  0  0  0
 62 63  4  0  0  0  0
 63 64  4  0  0  0  0
M  CHG  8   7   1  17   1  32   1  33  -1  34  -1  54   1  55  -1  56  -1
M  END
>  <Name_Molregno>
388382

>  <5-HT3>
4

$$$$
388383
  Marvin  02231216192D 0   1.00000     0.00000     0

 48 54  0  0  0  0  0  0  0  0999 V2000
    5.8340   -6.8538    0.0000 O   0  5  0  0  0  0  0  0  0
    5.1195   -6.4413    0.0000 N   0  3  0  0  0  0  0  0  0
    4.4051   -6.8538    0.0000 O   0  5  0  0  0  0  0  0  0
    5.1195   -5.6163    0.0000 C   0  0  0  0  0  0  0  0  0
    4.4051   -5.2038    0.0000 C   0  0  0  0  0  0  0  0  0
    4.4051   -4.3788    0.0000 C   0  0  0  0  0  0  0  0  0
    5.1195   -3.9663    0.0000 C   0  0  0  0  0  0  0  0  0
    5.8340   -4.3788    0.0000 C   0  0  0  0  0  0  0  0  0
    5.8340   -5.2038    0.0000 C   0  0  0  0  0  0  0  0  0
    5.1195   -3.1413    0.0000 C   0  0  0  0  0  0  0  0  0
    5.8340   -2.7288    0.0000 N   0  3  0  0  0  0  0  0  0
    6.5485   -2.3163    0.0000 C   0  0  0  0  0  0  0  0  0
    6.5485   -1.4913    0.0000 C   0  0  0  0  0  0  0  0  0
    7.2159   -1.0064    0.0000 C   0  0  0  0  0  0  0  0  0
    6.9610   -0.2218    0.0000 N   0  0  0  0  0  0  0  0  0
    7.5130    0.3913    0.0000 C   0  0  0  0  0  0  0  0  0
    8.3200    0.2198    0.0000 C   0  0  0  0  0  0  0  0  0
    8.5749   -0.5648    0.0000 N   0  0  0  0  0  0  0  0  0
    8.0229   -1.1779    0.0000 C   0  0  0  0  0  0  0  0  0
    9.3999   -0.5648    0.0000 C   0  0  0  0  0  0  0  0  0
    9.6549    0.2198    0.0000 C   0  0  0  0  0  0  0  0  0
   10.4618    0.3913    0.0000 C   0  0  0  0  0  0  0  0  0
   11.0139   -0.2218    0.0000 C   0  0  0  0  0  0  0  0  0
   10.7589   -1.0064    0.0000 C   0  0  0  0  0  0  0  0  0
    9.9520   -1.1779    0.0000 C   0  0  0  0  0  0  0  0  0
    8.9874    0.7047    0.0000 C   0  0  0  0  0  0  0  0  0
    8.9874    1.5297    0.0000 C   0  0  0  0  0  0  0  0  0
    8.2729    1.9422    0.0000 N   0  3  0  0  0  0  0  0  0
    7.5585    2.3547    0.0000 C   0  0  0  0  0  0  0  0  0
    7.5585    3.1797    0.0000 C   0  0  0  0  0  0  0  0  0
    6.8440    3.5922    0.0000 C   0  0  0  0  0  0  0  0  0
    6.8440    4.4172    0.0000 C   0  0  0  0  0  0  0  0  0
    7.5585    4.8297    0.0000 C   0  0  0  0  0  0  0  0  0
    7.5585    5.6547    0.0000 N   0  3  0  0  0  0  0  0  0
    8.2729    6.0672    0.0000 O   0  5  0  0  0  0  0  0  0
    6.8440    6.0672    0.0000 O   0  5  0  0  0  0  0  0  0
    8.2729    4.4172    0.0000 C   0  0  0  0  0  0  0  0  0
    8.2729    3.5922    0.0000 C   0  0  0  0  0  0  0  0  0
    8.6854    2.6567    0.0000 C   0  0  0  0  0  0  0  0  0
    7.8604    1.2277    0.0000 C   0  0  0  0  0  0  0  0  0
    6.1360   -0.2218    0.0000 C   0  0  0  0  0  0  0  0  0
    5.8810   -1.0064    0.0000 C   0  0  0  0  0  0  0  0  0
    5.0741   -1.1779    0.0000 C   0  0  0  0  0  0  0  0  0
    4.5220   -0.5648    0.0000 C   0  0  0  0  0  0  0  0  0
    4.7770    0.2198    0.0000 C   0  0  0  0  0  0  0  0  0
    5.5839    0.3913    0.0000 C   0  0  0  0  0  0  0  0  0
    6.2465   -3.4433    0.0000 C   0  0  0  0  0  0  0  0  0
    5.4215   -2.0144    0.0000 C   0  0  0  0  0  0  0  0  0
  1  2  1  0  0  0  0
  2  3  1  0  0  0  0
  2  4  1  0  0  0  0
  4  5  4  0  0  0  0
  4  9  4  0  0  0  0
  5  6  4  0  0  0  0
  6  7  4  0  0  0  0
  7  8  4  0  0  0  0
  7 10  1  0  0  0  0
  8  9  4  0  0  0  0
 10 11  1  0  0  0  0
 11 12  1  0  0  0  0
 11 47  1  0  0  0  0
 11 48  1  0  0  0  0
 12 13  1  0  0  0  0
 13 14  4  0  0  0  0
 13 42  4  0  0  0  0
 14 15  4  0  0  0  0
 14 19  1  0  0  0  0
 15 16  1  0  0  0  0
 15 41  4  0  0  0  0
 16 17  1  0  0  0  0
 17 18  4  0  0  0  0
 17 26  4  0  0  0  0
 18 19  1  0  0  0  0
 18 20  4  0  0  0  0
 20 21  4  0  0  0  0
 20 25  4  0  0  0  0
 21 22  4  0  0  0  0
 21 26  4  0  0  0  0
 22 23  4  0  0  0  0
 23 24  4  0  0  0  0
 24 25  4  0  0  0  0
 26 27  1  0  0  0  0
 27 28  1  0  0  0  0
 28 29  1  0  0  0  0
 28 39  1  0  0  0  0
 28 40  1  0  0  0  0
 29 30  1  0  0  0  0
 30 31  4  0  0  0  0
 30 38  4  0  0  0  0
 31 32  4  0  0  0  0
 32 33  4  0  0  0  0
 33 34  1  0  0  0  0
 33 37  4  0  0  0  0
 34 35  1  0  0  0  0
 34 36  1  0  0  0  0
 37 38  4  0  0  0  0
 41 42  4  0  0  0  0
 41 46  4  0  0  0  0
 42 43  4  0  0  0  0
 43 44  4  0  0  0  0
 44 45  4  0  0  0  0
 45 46  4  0  0  0  0
M  CHG  8   1  -1   2   1   3  -1  11   1  28   1  34   1  35  -1  36  -1
M  END
>  <Name_Molregno>
388383

>  <5-HT3>
4.33

$$$$
388384
  Marvin  02231216192D 0   1.00000     0.00000     0

 46 56  0  0  1  0  0  0  0  0999 V2000
   -6.6467    1.4975    0.0000 O   0  0  0  0  0  0  0  0  0
   -7.3895    1.1384    0.0000 C   0  0  0  0  0  0  0  0  0
   -7.4508    0.3026    0.0000 C   0  0  0  0  0  0  0  0  0
   -6.7516   -0.1937    0.0000 C   0  0  0  0  0  0  0  0  0
   -5.9347   -0.7993    0.0000 C   0  0  0  0  0  0  0  0  0
   -5.8276   -0.1638    0.0000 C   0  0  0  0  0  0  0  0  0
   -5.1047   -0.9677    0.0000 C   0  0  0  0  0  0  0  0  0
   -4.2458   -1.5072    0.0000 N   0  0  0  0  0  0  0  0  0
   -4.8385   -1.5299    0.0000 C   0  0  0  0  0  0  0  0  0
   -3.9296   -1.0022    0.0000 C   0  0  0  0  0  0  0  0  0
   -3.2067   -1.6524    0.0000 C   0  0  0  0  0  0  0  0  0
   -2.7971   -1.1070    0.0000 C   0  0  0  0  0  0  0  0  0
   -2.3736   -0.4886    0.0000 C   0  0  0  0  0  0  0  0  0
   -1.6431   -0.8160    0.0000 N   0  3  0  0  0  0  0  0  0
   -1.6854   -1.7024    0.0000 C   0  0  0  0  0  0  0  0  0
   -2.4626   -2.1079    0.0000 C   0  0  0  0  0  0  0  0  0
   -2.5688   -2.9644    0.0000 C   0  0  0  0  0  0  0  0  0
   -2.2917   -3.7805    0.0000 C   0  0  0  0  0  0  0  0  0
   -1.4825   -3.9414    0.0000 O   0  0  0  0  0  0  0  0  0
   -1.2965   -0.0322    0.0000 C   0  0  0  0  0  0  0  0  0
   -1.9165    0.5601    0.0000 C   0  0  0  0  0  0  0  0  0
   -2.7667    0.2389    0.0000 C   0  0  0  0  0  0  0  0  0
   -3.6636    0.0107    0.0000 C   0  0  0  0  0  0  0  0  0
   -4.3767    0.6266    0.0000 N   0  0  0  0  0  0  0  0  0
   -5.4606    0.5792    0.0000 C   0  0  0  0  0  0  0  0  0
   -3.7177    1.3295    0.0000 C   0  0  0  0  0  0  0  0  0
   -2.9208    1.1162    0.0000 C   0  0  0  0  0  0  0  0  0
   -2.3376    1.6997    0.0000 C   0  0  0  0  0  0  0  0  0
   -2.5513    2.4965    0.0000 C   0  0  0  0  0  0  0  0  0
   -3.3483    2.7098    0.0000 C   0  0  0  0  0  0  0  0  0
   -3.9315    2.1263    0.0000 C   0  0  0  0  0  0  0  0  0
   -2.1230   -1.5230    0.0000 C   0  0  0  0  0  0  0  0  0
   -3.4843   -1.1951    0.0000 C   0  0  0  0  0  0  0  0  0
   -3.6557   -0.3882    0.0000 C   0  0  0  0  0  0  0  0  0
   -4.5059   -0.1986    0.0000 C   0  0  0  0  0  0  0  0  0
   -5.0917    0.5601    0.0000 C   0  0  0  0  0  0  0  0  0
   -5.2120   -0.0610    0.0000 N   0  3  0  0  0  0  0  0  0
   -6.2461   -0.5550    0.0000 C   0  0  0  0  0  0  0  0  0
   -4.7711    1.0025    0.0000 C   0  0  0  0  0  0  0  0  0
   -3.9448    0.5904    0.0000 C   0  0  0  0  0  0  0  0  0
   -5.5255   -1.0205    0.0000 C   0  0  0  0  0  0  0  0  0
   -6.0322    0.4037    0.0000 C   0  0  0  0  0  0  0  0  0
   -3.0426    0.1638    0.0000 C   0  0  0  0  0  0  0  0  0
   -2.2580   -0.0913    0.0000 C   0  0  0  0  0  0  0  0  0
   -2.0866   -0.8983    0.0000 C   0  0  0  0  0  0  0  0  0
   -2.6998   -1.4502    0.0000 C   0  0  0  0  0  0  0  0  0
  1  2  1  0  0  0  0
  2  3  1  0  0  0  0
  3  4  2  0  0  0  0
  4  5  1  0  0  0  0
  4 38  1  0  0  0  0
  5  6  1  0  0  0  0
  5 42  1  0  0  0  0
  6  7  1  0  0  0  0
  6 25  2  0  0  0  0
  7  8  1  0  0  0  0
  7 35  1  0  0  0  0
  8  9  1  0  0  0  0
  8 33  1  0  0  0  0
  9 10  2  0  0  0  0
 10 11  1  0  0  0  0
 10 23  1  0  0  0  0
 11 12  1  0  0  0  0
 11 16  1  0  0  0  0
 12 13  1  0  0  0  0
 13 14  1  0  0  0  0
 13 22  1  0  0  0  0
 14 15  1  0  0  0  0
 14 20  1  0  0  0  0
 14 32  1  0  0  0  0
 15 16  1  0  0  0  0
 16 17  2  0  0  0  0
 17 18  1  0  0  0  0
 18 19  1  0  0  0  0
 20 21  1  0  0  0  0
 21 22  1  0  0  0  0
 22 23  1  0  0  0  0
 22 27  1  0  0  0  0
 23 24  1  0  0  0  0
 24 25  1  0  0  0  0
 24 26  1  0  0  0  0
 26 27  4  0  0  0  0
 26 31  4  0  0  0  0
 27 28  4  0  0  0  0
 28 29  4  0  0  0  0
 29 30  4  0  0  0  0
 30 31  4  0  0  0  0
 33 34  4  0  0  0  0
 33 46  4  0  0  0  0
 34 35  1  0  0  0  0
 34 43  4  0  0  0  0
 35 36  1  0  0  0  0
 35 40  1  0  0  0  0
 36 37  1  0  0  0  0
 36 42  1  0  0  0  0
 37 38  1  0  0  0  0
 37 39  1  0  0  0  0
 37 41  1  0  0  0  0
 39 40  1  0  0  0  0
 43 44  4  0  0  0  0
 44 45  4  0  0  0  0
 45 46  4  0  0  0  0
M  CHG  2  14   1  37   1
M  END
>  <Name_Molregno>
388384

>  <5-HT3>
4.33

$$$$
389011
  Marvin  02231216192D 0   1.00000     0.00000     0

 25 26  0  0  1  0  0  0  0  0999 V2000
   -2.9244    1.8604    0.0000 S   0  0  0  0  0  0  0  0  0
   -3.7494    1.8604    0.0000 O   0  0  0  0  0  0  0  0  0
   -2.0994    1.8604    0.0000 O   0  0  0  0  0  0  0  0  0
   -2.9244    2.6854    0.0000 C   0  0  0  0  0  0  0  0  0
   -3.6388    3.0979    0.0000 C   0  0  0  0  0  0  0  0  0
   -2.9244    1.0354    0.0000 C   0  0  0  0  0  0  0  0  0
   -2.2099    0.6229    0.0000 C   0  0  0  0  0  0  0  0  0
   -2.2099   -0.2021    0.0000 C   0  0  0  0  0  0  0  0  0
   -1.4954   -0.6146    0.0000 C   0  0  0  0  0  0  0  0  0
   -0.7810   -0.2021    0.0000 O   0  0  0  0  0  0  0  0  0
   -1.4954   -1.4396    0.0000 N   0  0  0  0  0  0  0  0  0
   -0.7810   -1.8521    0.0000 C   0  0  0  0  0  0  0  0  0
   -0.7810   -2.6771    0.0000 C   0  0  0  0  0  0  0  0  0
   -0.1135   -3.1620    0.0000 N   0  0  0  0  0  0  0  0  0
   -0.3685   -3.9466    0.0000 C   0  0  0  0  0  0  0  0  0
   -1.1935   -3.9466    0.0000 C   0  0  0  0  0  0  0  0  0
   -1.4484   -3.1620    0.0000 C   0  0  0  0  0  0  0  0  0
    0.6711   -2.9071    0.0000 C   0  0  0  0  0  0  0  0  0
    1.2842   -3.4591    0.0000 C   0  0  0  0  0  0  0  0  0
   -2.9244   -0.6146    0.0000 C   0  0  0  0  0  0  0  0  0
   -2.9244   -1.4396    0.0000 O   0  0  0  0  0  0  0  0  0
   -3.6388   -1.8521    0.0000 C   0  0  0  0  0  0  0  0  0
   -3.6388   -0.2021    0.0000 C   0  0  0  0  0  0  0  0  0
   -3.6388    0.6229    0.0000 C   0  0  0  0  0  0  0  0  0
   -4.3533    1.0354    0.0000 N   0  0  0  0  0  0  0  0  0
  1  2  2  0  0  0  0
  1  3  2  0  0  0  0
  1  4  1  0  0  0  0
  1  6  1  0  0  0  0
  4  5  1  0  0  0  0
  6  7  4  0  0  0  0
  6 24  4  0  0  0  0
  7  8  4  0  0  0  0
  8  9  1  0  0  0  0
  8 20  4  0  0  0  0
  9 10  2  0  0  0  0
  9 11  1  0  0  0  0
 11 12  1  0  0  0  0
 12 13  1  0  0  0  0
 13 14  1  0  0  0  0
 13 17  1  0  0  0  0
 14 15  1  0  0  0  0
 14 18  1  0  0  0  0
 15 16  1  0  0  0  0
 16 17  1  0  0  0  0
 18 19  1  0  0  0  0
 20 21  1  0  0  0  0
 20 23  4  0  0  0  0
 21 22  1  0  0  0  0
 23 24  4  0  0  0  0
 24 25  1  0  0  0  0
M  END
>  <Name_Molregno>
389011

>  <5-HT1A>
5

>  <5-HT1B>
5.76

>  <5-HT1D>
5.87

>  <5-HT1E>
5

>  <5-HT2A>
5.64

>  <5-HT2C>
5

>  <5-HT3>
5

>  <5-HT5>
5

>  <5-HT6>
5.38

>  <5-HT7>
7.47

>  <Alpha-1A>
5

>  <Alpha-1B>
5

>  <Alpha-2A>
5.95

>  <Alpha-2C>
5.81

>  <Beta-1>
5

>  <Beta-2>
5

>  <DOPAMINE D1>
5

>  <DOPAMINE D2>
8.71

>  <DOPAMINE D3>
8.51

>  <DOPAMINE D4>
5.63

>  <DOPAMINE D5>
5

>  <Dopamine transporter>
5

>  <HISTAMINE H1>
5

>  <HISTAMINE H2>
5

>  <HISTAMINE H4>
5

>  <Muscarinic acetylcholine receptor M1>
5

>  <Muscarinic acetylcholine receptor M2>
5

>  <Muscarinic acetylcholine receptor M3>
5

>  <Muscarinic acetylcholine receptor M4>
5

>  <Muscarinic acetylcholine receptor M5>
5

>  <Norepinephrine transporter>
5

>  <Serotonin transporter>
5

$$$$
425206
  Marvin  02231216192D 0   1.00000     0.00000     0

 26 28  0  0  1  0  0  0  0  0999 V2000
    1.1152    2.9536    0.0000 Br  0  0  0  0  0  0  0  0  0
    1.6672    2.3405    0.0000 C   0  0  0  0  0  0  0  0  0
    2.4742    2.5120    0.0000 C   0  0  0  0  0  0  0  0  0
    3.0262    1.8989    0.0000 C   0  0  0  0  0  0  0  0  0
    3.8512    1.8989    0.0000 N   0  0  0  0  0  0  0  0  0
    4.1061    1.1143    0.0000 C   0  0  0  0  0  0  0  0  0
    3.4387    0.6294    0.0000 C   0  0  0  0  0  0  0  0  0
    2.7713    1.1143    0.0000 C   0  0  0  0  0  0  0  0  0
    1.9643    0.9428    0.0000 C   0  0  0  0  0  0  0  0  0
    1.4123    1.5559    0.0000 C   0  0  0  0  0  0  0  0  0
    3.4387   -0.1956    0.0000 C   0  0  0  0  0  0  0  0  0
    4.1532   -0.6081    0.0000 C   0  0  0  0  0  0  0  0  0
    4.8676   -0.1956    0.0000 N   0  0  0  0  0  0  0  0  0
    5.5821   -0.6081    0.0000 C   0  0  0  0  0  0  0  0  0
    6.2966   -0.1956    0.0000 O   0  0  0  0  0  0  0  0  0
    5.5821   -1.4331    0.0000 C   0  0  0  0  0  0  0  0  0
    4.8676   -1.8456    0.0000 N   0  0  0  0  0  0  0  0  0
    4.1532   -1.4331    0.0000 C   0  0  0  0  0  0  0  0  0
    3.4387   -1.8456    0.0000 O   0  0  0  0  0  0  0  0  0
    6.2966   -1.8456    0.0000 C   0  0  0  0  0  0  0  0  0
    7.0111   -1.4331    0.0000 C   0  0  0  0  0  0  0  0  0
    7.7255   -1.8456    0.0000 C   0  0  0  0  0  0  0  0  0
    8.4400   -1.4331    0.0000 N   0  0  0  0  0  0  0  0  0
    9.1545   -1.8456    0.0000 C   0  0  0  0  0  0  0  0  0
    9.8689   -1.4331    0.0000 N   0  0  0  0  0  0  0  0  0
    9.1545   -2.6706    0.0000 N   0  0  0  0  0  0  0  0  0
  1  2  1  0  0  0  0
  2  3  4  0  0  0  0
  2 10  4  0  0  0  0
  3  4  4  0  0  0  0
  4  5  4  0  0  0  0
  4  8  4  0  0  0  0
  5  6  4  0  0  0  0
  6  7  4  0  0  0  0
  7  8  4  0  0  0  0
  7 11  1  0  0  0  0
  8  9  4  0  0  0  0
  9 10  4  0  0  0  0
 11 12  2  0  0  0  0
 12 13  1  0  0  0  0
 12 18  1  0  0  0  0
 13 14  1  0  0  0  0
 14 15  2  0  0  0  0
 14 16  1  0  0  0  0
 16 17  1  0  0  0  0
 16 20  1  0  0  0  0
 17 18  1  0  0  0  0
 18 19  2  0  0  0  0
 20 21  1  0  0  0  0
 21 22  1  0  0  0  0
 22 23  1  0  0  0  0
 23 24  1  0  0  0  0
 24 25  1  0  0  0  0
 24 26  2  0  0  0  0
M  STY  1   1 DAT
M  SAL   1  1   5
M  SDT   1 MRV_IMPLICIT_H                                        
M  SDD   1     0.0000    0.0000    DR    ALL  0       0  
M  SED   1 IMPL_H1
M  END
>  <Name_Molregno>
425206

>  <5-HT1A>
5

>  <5-HT1D>
5

>  <5-HT2A>
5.71

>  <5-HT2C>
6.47

>  <5-HT3>
5

>  <5-HT5>
5

>  <5-HT6>
5

>  <5-HT7>
5

$$$$
437622
  Marvin  02231216192D 0   1.00000     0.00000     0

 29 31  0  0  1  0  0  0  0  0999 V2000
    4.6273    6.8992    0.0000 F   0  0  0  0  0  0  0  0  0
    4.6273    6.0742    0.0000 C   0  0  0  0  0  0  0  0  0
    5.3417    5.6617    0.0000 C   0  0  0  0  0  0  0  0  0
    5.3417    4.8367    0.0000 C   0  0  0  0  0  0  0  0  0
    4.6273    4.4242    0.0000 C   0  0  0  0  0  0  0  0  0
    3.9128    4.8367    0.0000 C   0  0  0  0  0  0  0  0  0
    3.9128    5.6617    0.0000 C   0  0  0  0  0  0  0  0  0
    4.6273    3.5992    0.0000 C   0  0  0  0  0  0  0  0  0
    5.3417    3.1867    0.0000 C   0  0  0  0  0  0  0  0  0
    5.3417    2.3617    0.0000 N   0  0  0  0  0  0  0  0  0
    6.0562    1.9492    0.0000 C   0  0  0  0  0  0  0  0  0
    6.0562    1.1242    0.0000 C   0  0  0  0  0  0  0  0  0
    5.3417    0.7117    0.0000 C   0  0  0  0  0  0  0  0  0
    4.6273    1.1242    0.0000 C   0  0  0  0  0  0  0  0  0
    4.6273    1.9492    0.0000 C   0  0  0  0  0  0  0  0  0
    5.3417   -0.1133    0.0000 C   0  0  0  0  0  0  0  0  0
    4.6273   -0.5258    0.0000 O   0  0  0  0  0  0  0  0  0
    6.0562   -0.5258    0.0000 C   0  0  0  0  0  0  0  0  0
    6.7707   -0.1133    0.0000 C   0  0  0  0  0  0  0  0  0
    7.4851   -0.5258    0.0000 C   0  0  0  0  0  0  0  0  0
    7.4851   -1.3508    0.0000 C   0  0  0  0  0  0  0  0  0
    6.7707   -1.7633    0.0000 C   0  0  0  0  0  0  0  0  0
    6.7707   -2.5883    0.0000 O   0  0  0  0  0  0  0  0  0
    7.4851   -3.0008    0.0000 C   0  0  0  0  0  0  0  0  0
    7.4851   -3.8258    0.0000 C   0  0  0  0  0  0  0  0  0
    8.1996   -4.2383    0.0000 F   0  0  0  0  0  0  0  0  0
    6.0562   -1.3508    0.0000 C   0  0  0  0  0  0  0  0  0
    5.3417   -1.7633    0.0000 O   0  0  0  0  0  0  0  0  0
    5.3417   -2.5883    0.0000 C   0  0  0  0  0  0  0  0  0
  1  2  1  0  0  0  0
  2  3  4  0  0  0  0
  2  7  4  0  0  0  0
  3  4  4  0  0  0  0
  4  5  4  0  0  0  0
  5  6  4  0  0  0  0
  5  8  1  0  0  0  0
  6  7  4  0  0  0  0
  8  9  1  0  0  0  0
  9 10  1  0  0  0  0
 10 11  1  0  0  0  0
 10 15  1  0  0  0  0
 11 12  1  0  0  0  0
 12 13  1  0  0  0  0
 13 14  1  0  0  0  0
 13 16  1  0  0  0  0
 14 15  1  0  0  0  0
 16 17  1  0  0  0  0
 16 18  1  0  0  0  0
 18 19  4  0  0  0  0
 18 27  4  0  0  0  0
 19 20  4  0  0  0  0
 20 21  4  0  0  0  0
 21 22  4  0  0  0  0
 22 23  1  0  0  0  0
 22 27  4  0  0  0  0
 23 24  1  0  0  0  0
 24 25  1  0  0  0  0
 25 26  1  0  0  0  0
 27 28  1  0  0  0  0
 28 29  1  0  0  0  0
M  END
>  <Name_Molregno>
437622

>  <5-HT1A>
5

>  <5-HT1B>
5.89

>  <5-HT1D>
6.06

>  <5-HT1E>
5

>  <5-HT2C>
7.22

>  <5-HT3>
5

>  <5-HT5>
5.09

>  <5-HT6>
5.41

>  <5-HT7>
7.09

>  <Alpha-1A>
6.47

>  <Alpha-1B>
6.4

>  <Alpha-2A>
5

>  <Alpha-2C>
6.83

>  <DOPAMINE D1>
5.74

>  <DOPAMINE D2>
5.29

>  <DOPAMINE D4>
6.31

>  <DOPAMINE D5>
5.13

>  <Dopamine transporter>
5

>  <HISTAMINE H1>
6.36

>  <HISTAMINE H2>
5.56

>  <HISTAMINE H3>
5

>  <Serotonin transporter>
5.55

$$$$
438497
  Marvin  02231216192D 0   1.00000     0.00000     0

 13 14  0  0  1  0  0  0  0  0999 V2000
   -2.3294   -2.2673    0.0000 Cl  0  0  0  0  0  0  0  0  0
   -2.3294   -1.4423    0.0000 C   0  0  0  0  0  0  0  0  0
   -1.6149   -1.0298    0.0000 C   0  0  0  0  0  0  0  0  0
   -1.6149   -0.2048    0.0000 C   0  0  0  0  0  0  0  0  0
   -0.9005    0.2077    0.0000 N   0  0  0  0  0  0  0  0  0
   -0.1860   -0.2048    0.0000 C   0  0  0  0  0  0  0  0  0
   -0.1860   -1.0298    0.0000 N   0  0  0  0  0  0  0  0  0
   -0.9005   -1.4423    0.0000 C   0  0  0  0  0  0  0  0  0
   -0.9005   -2.2673    0.0000 C   0  0  0  0  0  0  0  0  0
    0.5285    0.2077    0.0000 N   0  0  0  0  0  0  0  0  0
   -2.3294    0.2077    0.0000 C   0  0  0  0  0  0  0  0  0
   -3.0439   -0.2048    0.0000 C   0  0  0  0  0  0  0  0  0
   -3.0439   -1.0298    0.0000 C   0  0  0  0  0  0  0  0  0
  1  2  1  0  0  0  0
  2  3  4  0  0  0  0
  2 13  4  0  0  0  0
  3  4  4  0  0  0  0
  3  8  1  0  0  0  0
  4  5  1  0  0  0  0
  4 11  4  0  0  0  0
  5  6  2  0  0  0  0
  6  7  1  0  0  0  0
  6 10  1  0  0  0  0
  7  8  1  0  0  0  0
  8  9  1  0  0  0  0
 11 12  4  0  0  0  0
 12 13  4  0  0  0  0
M  END
>  <Name_Molregno>
438497

>  <5-HT1A>
6.87

>  <5-HT1D>
5.93

>  <5-HT2A>
6.59

>  <5-HT2C>
7.04

>  <5-HT3>
5.97

>  <5-HT5>
8.01

>  <5-HT6>
5.99

>  <5-HT7>
7.94

$$$$
438696
  Marvin  02231216192D 0   1.00000     0.00000     0

 12 13  0  0  0  0  0  0  0  0999 V2000
   -2.2994    0.6418    0.0000 Cl  0  0  0  0  0  0  0  0  0
   -2.2994   -0.1832    0.0000 C   0  0  0  0  0  0  0  0  0
   -1.5850   -0.5957    0.0000 C   0  0  0  0  0  0  0  0  0
   -0.8705   -0.1832    0.0000 C   0  0  0  0  0  0  0  0  0
   -0.1560   -0.5957    0.0000 N   0  0  0  0  0  0  0  0  0
   -0.1560   -1.4207    0.0000 C   0  0  0  0  0  0  0  0  0
   -0.8705   -1.8332    0.0000 N   0  0  0  0  0  0  0  0  0
   -1.5850   -1.4207    0.0000 C   0  0  0  0  0  0  0  0  0
   -2.2994   -1.8332    0.0000 C   0  0  0  0  0  0  0  0  0
   -3.0139   -1.4207    0.0000 C   0  0  0  0  0  0  0  0  0
   -3.0139   -0.5957    0.0000 C   0  0  0  0  0  0  0  0  0
    0.5584   -1.8332    0.0000 N   0  0  0  0  0  0  0  0  0
  1  2  1  0  0  0  0
  2  3  4  0  0  0  0
  2 11  4  0  0  0  0
  3  4  1  0  0  0  0
  3  8  4  0  0  0  0
  4  5  1  0  0  0  0
  5  6  1  0  0  0  0
  6  7  2  0  0  0  0
  6 12  1  0  0  0  0
  7  8  1  0  0  0  0
  8  9  4  0  0  0  0
  9 10  4  0  0  0  0
 10 11  4  0  0  0  0
M  END
>  <Name_Molregno>
438696

>  <5-HT1A>
5.77

>  <5-HT1D>
5.44

>  <5-HT2A>
5.93

>  <5-HT2C>
6.18

>  <5-HT3>
5.98

>  <5-HT5>
7

>  <5-HT6>
5

>  <5-HT7>
6.1

$$$$
438697
  Marvin  02231216192D 0   1.00000     0.00000     0

 13 14  0  0  0  0  0  0  0  0999 V2000
   -1.9496    0.5488    0.0000 Cl  0  0  0  0  0  0  0  0  0
   -1.9496   -0.2762    0.0000 C   0  0  0  0  0  0  0  0  0
   -1.2351   -0.6887    0.0000 C   0  0  0  0  0  0  0  0  0
   -0.5207   -0.2762    0.0000 C   0  0  0  0  0  0  0  0  0
    0.1938   -0.6887    0.0000 N   0  0  0  0  0  0  0  0  0
    0.1938   -1.5137    0.0000 C   0  0  0  0  0  0  0  0  0
   -0.5207   -1.9262    0.0000 N   0  0  0  0  0  0  0  0  0
   -1.2351   -1.5137    0.0000 C   0  0  0  0  0  0  0  0  0
   -1.9496   -1.9262    0.0000 C   0  0  0  0  0  0  0  0  0
   -2.6641   -1.5137    0.0000 C   0  0  0  0  0  0  0  0  0
   -2.6641   -0.6887    0.0000 C   0  0  0  0  0  0  0  0  0
   -3.3785   -0.2762    0.0000 Cl  0  0  0  0  0  0  0  0  0
    0.9083   -1.9262    0.0000 N   0  0  0  0  0  0  0  0  0
  1  2  1  0  0  0  0
  2  3  4  0  0  0  0
  2 11  4  0  0  0  0
  3  4  1  0  0  0  0
  3  8  4  0  0  0  0
  4  5  1  0  0  0  0
  5  6  1  0  0  0  0
  6  7  2  0  0  0  0
  6 13  1  0  0  0  0
  7  8  1  0  0  0  0
  8  9  4  0  0  0  0
  9 10  4  0  0  0  0
 10 11  4  0  0  0  0
 11 12  1  0  0  0  0
M  END
>  <Name_Molregno>
438697

>  <5-HT1A>
5.97

>  <5-HT1D>
5.9

>  <5-HT2A>
6.36

>  <5-HT2C>
6.68

>  <5-HT3>
6.76

>  <5-HT5>
7.37

>  <5-HT6>
5.94

>  <5-HT7>
6.53

$$$$
443503
  Marvin  02231216192D 0   1.00000     0.00000     0

 26 28  0  0  1  0  0  0  0  0999 V2000
    5.1037   -3.2541    0.0000 Br  0  0  0  0  0  0  0  0  0
    4.5517   -2.6410    0.0000 C   0  0  0  0  0  0  0  0  0
    3.7447   -2.8125    0.0000 C   0  0  0  0  0  0  0  0  0
    3.1927   -2.1994    0.0000 C   0  0  0  0  0  0  0  0  0
    2.3677   -2.1994    0.0000 N   0  0  0  0  0  0  0  0  0
    2.1128   -1.4148    0.0000 C   0  0  0  0  0  0  0  0  0
    2.7802   -0.9299    0.0000 C   0  0  0  0  0  0  0  0  0
    3.4476   -1.4148    0.0000 C   0  0  0  0  0  0  0  0  0
    4.2546   -1.2433    0.0000 C   0  0  0  0  0  0  0  0  0
    4.8067   -1.8564    0.0000 C   0  0  0  0  0  0  0  0  0
    2.7802   -0.1049    0.0000 C   0  0  0  0  0  0  0  0  0
    3.4947    0.3076    0.0000 C   0  0  0  0  0  0  0  0  0
    4.2091   -0.1049    0.0000 N   0  0  0  0  0  0  0  0  0
    4.9236    0.3076    0.0000 C   0  0  0  0  0  0  0  0  0
    5.6381   -0.1049    0.0000 O   0  0  0  0  0  0  0  0  0
    4.9236    1.1326    0.0000 C   0  0  0  0  0  0  0  0  0
    4.2091    1.5451    0.0000 N   0  0  0  0  0  0  0  0  0
    3.4947    1.1326    0.0000 C   0  0  0  0  0  0  0  0  0
    2.7802    1.5451    0.0000 O   0  0  0  0  0  0  0  0  0
    5.6381    1.5451    0.0000 C   0  0  0  0  0  0  0  0  0
    6.3526    1.1326    0.0000 C   0  0  0  0  0  0  0  0  0
    7.0670    1.5451    0.0000 C   0  0  0  0  0  0  0  0  0
    7.7815    1.1326    0.0000 N   0  0  0  0  0  0  0  0  0
    8.4960    1.5451    0.0000 C   0  0  0  0  0  0  0  0  0
    9.2104    1.1326    0.0000 N   0  0  0  0  0  0  0  0  0
    8.4960    2.3701    0.0000 N   0  0  0  0  0  0  0  0  0
  1  2  1  0  0  0  0
  2  3  4  0  0  0  0
  2 10  4  0  0  0  0
  3  4  4  0  0  0  0
  4  5  4  0  0  0  0
  4  8  4  0  0  0  0
  5  6  4  0  0  0  0
  6  7  4  0  0  0  0
  7  8  4  0  0  0  0
  7 11  1  0  0  0  0
  8  9  4  0  0  0  0
  9 10  4  0  0  0  0
 11 12  1  0  0  0  0
 12 13  1  0  0  0  0
 12 18  1  0  0  0  0
 13 14  1  0  0  0  0
 14 15  2  0  0  0  0
 14 16  1  0  0  0  0
 16 17  1  0  0  0  0
 16 20  1  0  0  0  0
 17 18  1  0  0  0  0
 18 19  2  0  0  0  0
 20 21  1  0  0  0  0
 21 22  1  0  0  0  0
 22 23  1  0  0  0  0
 23 24  1  0  0  0  0
 24 25  1  0  0  0  0
 24 26  2  0  0  0  0
M  STY  1   1 DAT
M  SAL   1  1   5
M  SDT   1 MRV_IMPLICIT_H                                        
M  SDD   1     0.0000    0.0000    DR    ALL  0       0  
M  SED   1 IMPL_H1
M  END
>  <Name_Molregno>
443503

>  <5-HT1A>
5

>  <5-HT1D>
5

>  <5-HT2A>
5

>  <5-HT2C>
5.33

>  <5-HT3>
5

>  <5-HT5>
5

>  <5-HT6>
5

>  <5-HT7>
5

$$$$
482512
  Marvin  02231216192D 0   1.00000     0.00000     0

 49 56  0  0  1  0  0  0  0  0999 V2000
   -0.8768   -0.1998    0.0000 O   0  0  0  0  0  0  0  0  0
   -1.6726    0.0860    0.0000 C   0  0  0  0  0  0  0  0  0
    0.1256   -0.4565    0.0000 C   0  0  0  0  0  0  0  0  0
    0.2266   -1.3285    0.0000 C   0  0  0  0  0  0  0  0  0
    0.8865   -1.2681    0.0000 C   0  0  0  0  0  0  0  0  0
    0.5834   -0.2657    0.0000 C   0  0  0  0  0  0  0  0  0
   -0.3779   -0.1512    0.0000 N   0  0  0  0  0  0  0  0  0
   -0.8579   -0.8659    0.0000 C   0  0  0  0  0  0  0  0  0
   -0.5144   -1.6647    0.0000 C   0  0  0  0  0  0  0  0  0
   -0.3017   -2.4867    0.0000 C   0  0  0  0  0  0  0  0  0
    0.4964   -2.7392    0.0000 C   0  0  0  0  0  0  0  0  0
    1.0758   -2.1227    0.0000 C   0  0  0  0  0  0  0  0  0
    1.4177   -2.9339    0.0000 O   0  0  0  0  0  0  0  0  0
    1.6296   -3.7502    0.0000 C   0  0  0  0  0  0  0  0  0
   -1.2485   -2.0978    0.0000 C   0  0  0  0  0  0  0  0  0
   -1.7053   -2.8005    0.0000 O   0  0  0  0  0  0  0  0  0
   -2.5411   -2.5593    0.0000 C   0  0  0  0  0  0  0  0  0
   -2.6600   -1.7355    0.0000 O   0  0  0  0  0  0  0  0  0
   -3.4049   -2.6318    0.0000 C   0  0  0  0  0  0  0  0  0
   -3.3582   -3.4554    0.0000 C   0  0  0  0  0  0  0  0  0
   -4.0482   -3.9077    0.0000 C   0  0  0  0  0  0  0  0  0
   -4.7849   -3.5363    0.0000 C   0  0  0  0  0  0  0  0  0
   -4.8316   -2.7126    0.0000 C   0  0  0  0  0  0  0  0  0
   -4.1416   -2.2604    0.0000 C   0  0  0  0  0  0  0  0  0
   -4.1883   -1.4367    0.0000 N   0  0  0  0  0  0  0  0  0
   -4.8821   -0.9903    0.0000 C   0  0  0  0  0  0  0  0  0
   -5.6940   -1.2037    0.0000 O   0  0  0  0  0  0  0  0  0
   -4.6720   -0.1925    0.0000 C   0  0  0  0  0  0  0  0  0
   -3.8484   -0.1458    0.0000 C   0  0  0  0  0  0  0  0  0
   -3.5494   -0.9148    0.0000 C   0  0  0  0  0  0  0  0  0
   -2.8987   -0.3855    0.0000 O   0  0  0  0  0  0  0  0  0
   -5.1940    0.4464    0.0000 C   0  0  0  0  0  0  0  0  0
   -0.5058    0.7529    0.0000 C   0  0  0  0  0  0  0  0  0
   -0.8068    1.5678    0.0000 C   0  0  0  0  0  0  0  0  0
    1.1565   -0.1149    0.0000 C   0  0  0  0  0  0  0  0  0
    1.2850    0.7415    0.0000 O   0  0  0  0  0  0  0  0  0
    2.0988   -0.3149    0.0000 C   0  0  0  0  0  0  0  0  0
    2.1207    0.5598    0.0000 O   0  0  0  0  0  0  0  0  0
    2.1935   -1.1188    0.0000 C   0  0  0  0  0  0  0  0  0
    1.7408   -1.6720    0.0000 C   0  0  0  0  0  0  0  0  0
    2.5367   -2.2238    0.0000 C   0  0  0  0  0  0  0  0  0
    3.3482   -1.5244    0.0000 C   0  0  0  0  0  0  0  0  0
    2.9001   -1.8197    0.0000 C   0  0  0  0  0  0  0  0  0
    3.6228   -2.3417    0.0000 O   0  0  0  0  0  0  0  0  0
    4.4676   -2.2944    0.0000 C   0  0  0  0  0  0  0  0  0
    3.5811   -0.6613    0.0000 C   0  0  0  0  0  0  0  0  0
    4.3341   -0.2275    0.0000 O   0  0  0  0  0  0  0  0  0
    5.1763   -0.1410    0.0000 C   0  0  0  0  0  0  0  0  0
    2.9240   -0.1051    0.0000 C   0  0  0  0  0  0  0  0  0
  1  2  1  0  0  0  0
  1  3  1  0  0  0  0
  3  4  1  0  0  0  0
  3 35  1  0  0  0  0
  4  5  1  0  0  0  0
  4  9  1  0  0  0  0
  5  6  1  0  0  0  0
  5 12  1  0  0  0  0
  5 40  1  0  0  0  0
  6  7  1  0  0  0  0
  6 35  1  0  0  0  0
  7  8  1  0  0  0  0
  7 33  1  0  0  0  0
  8  9  1  0  0  0  0
  9 10  1  0  0  0  0
  9 15  1  0  0  0  0
 10 11  1  0  0  0  0
 11 12  1  0  0  0  0
 12 13  1  0  0  0  0
 13 14  1  0  0  0  0
 15 16  1  0  0  0  0
 16 17  1  0  0  0  0
 17 18  2  0  0  0  0
 17 19  1  0  0  0  0
 19 20  4  0  0  0  0
 19 24  4  0  0  0  0
 20 21  4  0  0  0  0
 21 22  4  0  0  0  0
 22 23  4  0  0  0  0
 23 24  4  0  0  0  0
 24 25  1  0  0  0  0
 25 26  1  0  0  0  0
 25 30  1  0  0  0  0
 26 27  2  0  0  0  0
 26 28  1  0  0  0  0
 28 29  1  0  0  0  0
 28 32  1  0  0  0  0
 29 30  1  0  0  0  0
 30 31  2  0  0  0  0
 33 34  1  0  0  0  0
 35 36  1  0  0  0  0
 35 37  1  0  0  0  0
 37 38  1  0  0  0  0
 37 39  1  0  0  0  0
 37 49  1  0  0  0  0
 39 40  1  0  0  0  0
 39 43  1  0  0  0  0
 40 41  1  0  0  0  0
 41 42  1  0  0  0  0
 42 43  1  0  0  0  0
 42 46  1  0  0  0  0
 43 44  1  0  0  0  0
 44 45  1  0  0  0  0
 46 47  1  0  0  0  0
 46 49  1  0  0  0  0
 47 48  1  0  0  0  0
M  END
>  <Name_Molregno>
482512

>  <5-HT3>
8.8

$$$$
498962
  Marvin  02231216192D 0   1.00000     0.00000     0

 29 31  0  0  0  0  0  0  0  0999 V2000
    4.6273    6.8992    0.0000 F   0  0  0  0  0  0  0  0  0
    4.6273    6.0742    0.0000 C   0  0  0  0  0  0  0  0  0
    5.3417    5.6617    0.0000 C   0  0  0  0  0  0  0  0  0
    5.3417    4.8367    0.0000 C   0  0  0  0  0  0  0  0  0
    4.6273    4.4242    0.0000 C   0  0  0  0  0  0  0  0  0
    3.9128    4.8367    0.0000 C   0  0  0  0  0  0  0  0  0
    3.9128    5.6617    0.0000 C   0  0  0  0  0  0  0  0  0
    4.6273    3.5992    0.0000 C   0  0  0  0  0  0  0  0  0
    5.3417    3.1867    0.0000 C   0  0  0  0  0  0  0  0  0
    5.3417    2.3617    0.0000 N   0  0  0  0  0  0  0  0  0
    6.0562    1.9492    0.0000 C   0  0  0  0  0  0  0  0  0
    6.0562    1.1242    0.0000 C   0  0  0  0  0  0  0  0  0
    5.3417    0.7117    0.0000 C   0  0  0  0  0  0  0  0  0
    4.6273    1.1242    0.0000 C   0  0  0  0  0  0  0  0  0
    4.6273    1.9492    0.0000 C   0  0  0  0  0  0  0  0  0
    5.3417   -0.1133    0.0000 C   0  0  0  0  0  0  0  0  0
    4.6273   -0.5258    0.0000 O   0  0  0  0  0  0  0  0  0
    6.0562   -0.5258    0.0000 C   0  0  0  0  0  0  0  0  0
    6.7707   -0.1133    0.0000 C   0  0  0  0  0  0  0  0  0
    7.4851   -0.5258    0.0000 C   0  0  0  0  0  0  0  0  0
    7.4851   -1.3508    0.0000 C   0  0  0  0  0  0  0  0  0
    6.7707   -1.7633    0.0000 C   0  0  0  0  0  0  0  0  0
    6.7707   -2.5883    0.0000 O   0  0  0  0  0  0  0  0  0
    7.4851   -3.0008    0.0000 C   0  0  0  0  0  0  0  0  0
    7.4851   -3.8258    0.0000 C   0  0  0  0  0  0  0  0  0
    8.1996   -4.2383    0.0000 F   0  0  0  0  0  0  0  0  0
    6.0562   -1.3508    0.0000 C   0  0  0  0  0  0  0  0  0
    5.3417   -1.7633    0.0000 O   0  0  0  0  0  0  0  0  0
    5.3417   -2.5883    0.0000 C   0  0  0  0  0  0  0  0  0
  1  2  1  0  0  0  0
  2  3  4  0  0  0  0
  2  7  4  0  0  0  0
  3  4  4  0  0  0  0
  4  5  4  0  0  0  0
  5  6  4  0  0  0  0
  5  8  1  0  0  0  0
  6  7  4  0  0  0  0
  8  9  1  0  0  0  0
  9 10  1  0  0  0  0
 10 11  1  0  0  0  0
 10 15  1  0  0  0  0
 11 12  1  0  0  0  0
 12 13  1  0  0  0  0
 13 14  1  0  0  0  0
 13 16  1  0  0  0  0
 14 15  1  0  0  0  0
 16 17  2  0  0  0  0
 16 18  1  0  0  0  0
 18 19  4  0  0  0  0
 18 27  4  0  0  0  0
 19 20  4  0  0  0  0
 20 21  4  0  0  0  0
 21 22  4  0  0  0  0
 22 23  1  0  0  0  0
 22 27  4  0  0  0  0
 23 24  1  0  0  0  0
 24 25  1  0  0  0  0
 25 26  1  0  0  0  0
 27 28  1  0  0  0  0
 28 29  1  0  0  0  0
M  END
>  <Name_Molregno>
498962

>  <5-HT1A>
5.77

>  <5-HT1B>
5.66

>  <5-HT1D>
6.15

>  <5-HT1E>
5

>  <5-HT2C>
6.89

>  <5-HT3>
5

>  <5-HT5>
5.8

>  <5-HT6>
5

>  <5-HT7>
6.68

>  <Alpha-1A>
6.84

>  <Alpha-1B>
6.26

>  <Alpha-2A>
6.06

>  <Alpha-2C>
6.48

>  <DOPAMINE D1>
5.85

>  <DOPAMINE D2>
5.42

>  <DOPAMINE D4>
6.76

>  <DOPAMINE D5>
5.13

>  <Dopamine transporter>
5

>  <HISTAMINE H1>
6.03

>  <HISTAMINE H2>
5.76

>  <HISTAMINE H3>
5

>  <Serotonin transporter>
5.51

$$$$
498963
  Marvin  02231216192D 0   1.00000     0.00000     0

 31 33  0  0  1  0  0  0  0  0999 V2000
    8.1600    6.3223    0.0000 F   0  0  0  0  0  0  0  0  0
    7.4455    5.9098    0.0000 C   0  0  0  0  0  0  0  0  0
    7.4455    5.0848    0.0000 C   0  0  0  0  0  0  0  0  0
    6.7310    4.6723    0.0000 O   0  0  0  0  0  0  0  0  0
    6.7310    3.8473    0.0000 C   0  0  0  0  0  0  0  0  0
    7.4455    3.4348    0.0000 C   0  0  0  0  0  0  0  0  0
    7.4455    2.6098    0.0000 C   0  0  0  0  0  0  0  0  0
    6.7310    2.1973    0.0000 C   0  0  0  0  0  0  0  0  0
    6.0165    2.6098    0.0000 C   0  0  0  0  0  0  0  0  0
    5.3021    2.1973    0.0000 C   0  0  0  0  0  0  0  0  0
    4.5876    2.6098    0.0000 O   0  0  0  0  0  0  0  0  0
    5.3021    1.3723    0.0000 C   0  0  0  0  0  0  0  0  0
    6.0165    0.9598    0.0000 C   0  0  0  0  0  0  0  0  0
    6.0165    0.1348    0.0000 C   0  0  0  0  0  0  0  0  0
    5.3021   -0.2777    0.0000 N   0  0  0  0  0  0  0  0  0
    4.5876    0.1348    0.0000 C   0  0  0  0  0  0  0  0  0
    4.5876    0.9598    0.0000 C   0  0  0  0  0  0  0  0  0
    5.3021   -1.1027    0.0000 C   0  0  0  0  0  0  0  0  0
    6.0165   -1.5152    0.0000 C   0  0  0  0  0  0  0  0  0
    6.0165   -2.3402    0.0000 C   0  0  0  0  0  0  0  0  0
    6.7310   -2.7527    0.0000 C   0  0  0  0  0  0  0  0  0
    6.7310   -3.5777    0.0000 C   0  0  0  0  0  0  0  0  0
    6.0165   -3.9902    0.0000 C   0  0  0  0  0  0  0  0  0
    6.0165   -4.8152    0.0000 N   0  3  0  0  0  0  0  0  0
    6.7310   -5.2277    0.0000 O   0  5  0  0  0  0  0  0  0
    5.3021   -5.2277    0.0000 O   0  5  0  0  0  0  0  0  0
    5.3021   -3.5777    0.0000 C   0  0  0  0  0  0  0  0  0
    5.3021   -2.7527    0.0000 C   0  0  0  0  0  0  0  0  0
    6.0165    3.4348    0.0000 C   0  0  0  0  0  0  0  0  0
    5.3021    3.8473    0.0000 O   0  0  0  0  0  0  0  0  0
    4.5876    3.4348    0.0000 C   0  0  0  0  0  0  0  0  0
  1  2  1  0  0  0  0
  2  3  1  0  0  0  0
  3  4  1  0  0  0  0
  4  5  1  0  0  0  0
  5  6  4  0  0  0  0
  5 29  4  0  0  0  0
  6  7  4  0  0  0  0
  7  8  4  0  0  0  0
  8  9  4  0  0  0  0
  9 10  1  0  0  0  0
  9 29  4  0  0  0  0
 10 11  1  0  0  0  0
 10 12  1  0  0  0  0
 12 13  1  0  0  0  0
 12 17  1  0  0  0  0
 13 14  1  0  0  0  0
 14 15  1  0  0  0  0
 15 16  1  0  0  0  0
 15 18  1  0  0  0  0
 16 17  1  0  0  0  0
 18 19  1  0  0  0  0
 19 20  1  0  0  0  0
 20 21  4  0  0  0  0
 20 28  4  0  0  0  0
 21 22  4  0  0  0  0
 22 23  4  0  0  0  0
 23 24  1  0  0  0  0
 23 27  4  0  0  0  0
 24 25  1  0  0  0  0
 24 26  1  0  0  0  0
 27 28  4  0  0  0  0
 29 30  1  0  0  0  0
 30 31  1  0  0  0  0
M  CHG  3  24   1  25  -1  26  -1
M  END
>  <Name_Molregno>
498963

>  <5-HT1A>
5

>  <5-HT1B>
5

>  <5-HT1D>
5.47

>  <5-HT1E>
5

>  <5-HT2C>
5

>  <5-HT3>
5

>  <5-HT5>
5

>  <5-HT6>
5

>  <5-HT7>
5.29

$$$$
498964
  Marvin  02231216192D 0   1.00000     0.00000     0

 29 31  0  0  1  0  0  0  0  0999 V2000
    7.7806    5.8078    0.0000 F   0  0  0  0  0  0  0  0  0
    7.0662    5.3953    0.0000 C   0  0  0  0  0  0  0  0  0
    7.0662    4.5703    0.0000 C   0  0  0  0  0  0  0  0  0
    6.3517    4.1578    0.0000 O   0  0  0  0  0  0  0  0  0
    6.3517    3.3328    0.0000 C   0  0  0  0  0  0  0  0  0
    7.0662    2.9203    0.0000 C   0  0  0  0  0  0  0  0  0
    7.0662    2.0953    0.0000 C   0  0  0  0  0  0  0  0  0
    6.3517    1.6828    0.0000 C   0  0  0  0  0  0  0  0  0
    5.6372    2.0953    0.0000 C   0  0  0  0  0  0  0  0  0
    4.9227    1.6828    0.0000 C   0  0  0  0  0  0  0  0  0
    4.2083    2.0953    0.0000 O   0  0  0  0  0  0  0  0  0
    4.9227    0.8578    0.0000 C   0  0  0  0  0  0  0  0  0
    5.6372    0.4453    0.0000 C   0  0  0  0  0  0  0  0  0
    5.6372   -0.3797    0.0000 C   0  0  0  0  0  0  0  0  0
    4.9227   -0.7922    0.0000 N   0  0  0  0  0  0  0  0  0
    4.2083   -0.3797    0.0000 C   0  0  0  0  0  0  0  0  0
    4.2083    0.4453    0.0000 C   0  0  0  0  0  0  0  0  0
    4.9227   -1.6172    0.0000 C   0  0  0  0  0  0  0  0  0
    5.6372   -2.0297    0.0000 C   0  0  0  0  0  0  0  0  0
    5.6372   -2.8547    0.0000 C   0  0  0  0  0  0  0  0  0
    6.3517   -3.2672    0.0000 C   0  0  0  0  0  0  0  0  0
    6.3517   -4.0922    0.0000 C   0  0  0  0  0  0  0  0  0
    5.6372   -4.5047    0.0000 C   0  0  0  0  0  0  0  0  0
    4.9227   -4.0922    0.0000 C   0  0  0  0  0  0  0  0  0
    4.9227   -3.2672    0.0000 C   0  0  0  0  0  0  0  0  0
    5.6372   -5.3297    0.0000 C   0  0  0  0  0  0  0  0  0
    5.6372    2.9203    0.0000 C   0  0  0  0  0  0  0  0  0
    4.9227    3.3328    0.0000 O   0  0  0  0  0  0  0  0  0
    4.2083    2.9203    0.0000 C   0  0  0  0  0  0  0  0  0
  1  2  1  0  0  0  0
  2  3  1  0  0  0  0
  3  4  1  0  0  0  0
  4  5  1  0  0  0  0
  5  6  4  0  0  0  0
  5 27  4  0  0  0  0
  6  7  4  0  0  0  0
  7  8  4  0  0  0  0
  8  9  4  0  0  0  0
  9 10  1  0  0  0  0
  9 27  4  0  0  0  0
 10 11  1  0  0  0  0
 10 12  1  0  0  0  0
 12 13  1  0  0  0  0
 12 17  1  0  0  0  0
 13 14  1  0  0  0  0
 14 15  1  0  0  0  0
 15 16  1  0  0  0  0
 15 18  1  0  0  0  0
 16 17  1  0  0  0  0
 18 19  1  0  0  0  0
 19 20  1  0  0  0  0
 20 21  4  0  0  0  0
 20 25  4  0  0  0  0
 21 22  4  0  0  0  0
 22 23  4  0  0  0  0
 23 24  4  0  0  0  0
 23 26  1  0  0  0  0
 24 25  4  0  0  0  0
 27 28  1  0  0  0  0
 28 29  1  0  0  0  0
M  END
>  <Name_Molregno>
498964

>  <5-HT1A>
5

>  <5-HT1B>
5.31

>  <5-HT1D>
5.84

>  <5-HT1E>
5

>  <5-HT2C>
6.29

>  <5-HT3>
5

>  <5-HT5>
5

>  <5-HT6>
5

>  <5-HT7>
6.3

>  <Alpha-1B>
5

>  <Alpha-2A>
5

>  <Alpha-2C>
6.84

>  <DOPAMINE D1>
5.75

>  <DOPAMINE D2>
5

>  <DOPAMINE D4>
5.57

>  <Dopamine transporter>
5

>  <HISTAMINE H1>
6.36

>  <HISTAMINE H2>
5.94

>  <HISTAMINE H3>
5

>  <Serotonin transporter>
5.58

$$$$
499028
  Marvin  02231216192D 0   1.00000     0.00000     0

 29 31  0  0  0  0  0  0  0  0999 V2000
    7.7806    5.8078    0.0000 F   0  0  0  0  0  0  0  0  0
    7.0662    5.3953    0.0000 C   0  0  0  0  0  0  0  0  0
    7.0662    4.5703    0.0000 C   0  0  0  0  0  0  0  0  0
    6.3517    4.1578    0.0000 O   0  0  0  0  0  0  0  0  0
    6.3517    3.3328    0.0000 C   0  0  0  0  0  0  0  0  0
    7.0662    2.9203    0.0000 C   0  0  0  0  0  0  0  0  0
    7.0662    2.0953    0.0000 C   0  0  0  0  0  0  0  0  0
    6.3517    1.6828    0.0000 C   0  0  0  0  0  0  0  0  0
    5.6372    2.0953    0.0000 C   0  0  0  0  0  0  0  0  0
    4.9227    1.6828    0.0000 C   0  0  0  0  0  0  0  0  0
    4.2083    2.0953    0.0000 O   0  0  0  0  0  0  0  0  0
    4.9227    0.8578    0.0000 C   0  0  0  0  0  0  0  0  0
    5.6372    0.4453    0.0000 C   0  0  0  0  0  0  0  0  0
    5.6372   -0.3797    0.0000 C   0  0  0  0  0  0  0  0  0
    4.9227   -0.7922    0.0000 N   0  0  0  0  0  0  0  0  0
    4.2083   -0.3797    0.0000 C   0  0  0  0  0  0  0  0  0
    4.2083    0.4453    0.0000 C   0  0  0  0  0  0  0  0  0
    4.9227   -1.6172    0.0000 C   0  0  0  0  0  0  0  0  0
    5.6372   -2.0297    0.0000 C   0  0  0  0  0  0  0  0  0
    5.6372   -2.8547    0.0000 C   0  0  0  0  0  0  0  0  0
    6.3517   -3.2672    0.0000 C   0  0  0  0  0  0  0  0  0
    6.3517   -4.0922    0.0000 C   0  0  0  0  0  0  0  0  0
    5.6372   -4.5047    0.0000 C   0  0  0  0  0  0  0  0  0
    4.9227   -4.0922    0.0000 C   0  0  0  0  0  0  0  0  0
    4.9227   -3.2672    0.0000 C   0  0  0  0  0  0  0  0  0
    5.6372   -5.3297    0.0000 C   0  0  0  0  0  0  0  0  0
    5.6372    2.9203    0.0000 C   0  0  0  0  0  0  0  0  0
    4.9227    3.3328    0.0000 O   0  0  0  0  0  0  0  0  0
    4.2083    2.9203    0.0000 C   0  0  0  0  0  0  0  0  0
  1  2  1  0  0  0  0
  2  3  1  0  0  0  0
  3  4  1  0  0  0  0
  4  5  1  0  0  0  0
  5  6  4  0  0  0  0
  5 27  4  0  0  0  0
  6  7  4  0  0  0  0
  7  8  4  0  0  0  0
  8  9  4  0  0  0  0
  9 10  1  0  0  0  0
  9 27  4  0  0  0  0
 10 11  2  0  0  0  0
 10 12  1  0  0  0  0
 12 13  1  0  0  0  0
 12 17  1  0  0  0  0
 13 14  1  0  0  0  0
 14 15  1  0  0  0  0
 15 16  1  0  0  0  0
 15 18  1  0  0  0  0
 16 17  1  0  0  0  0
 18 19  1  0  0  0  0
 19 20  1  0  0  0  0
 20 21  4  0  0  0  0
 20 25  4  0  0  0  0
 21 22  4  0  0  0  0
 22 23  4  0  0  0  0
 23 24  4  0  0  0  0
 23 26  1  0  0  0  0
 24 25  4  0  0  0  0
 27 28  1  0  0  0  0
 28 29  1  0  0  0  0
M  END
>  <Name_Molregno>
499028

>  <5-HT1A>
5.73

>  <5-HT1B>
5.47

>  <5-HT1E>
5

>  <5-HT2C>
6.3

>  <5-HT3>
5

>  <5-HT5>
5.77

>  <5-HT6>
5

>  <5-HT7>
6.14

>  <Alpha-2C>
6.81

>  <DOPAMINE D1>
5.71

>  <DOPAMINE D2>
5

>  <DOPAMINE D4>
6.03

>  <HISTAMINE H1>
6.18

>  <HISTAMINE H2>
6.08

>  <HISTAMINE H3>
5.04

>  <Serotonin transporter>
6

$$$$
499029
  Marvin  02231216192D 0   1.00000     0.00000     0

 30 32  0  0  1  0  0  0  0  0999 V2000
    7.9632    6.0652    0.0000 F   0  0  0  0  0  0  0  0  0
    7.2488    5.6527    0.0000 C   0  0  0  0  0  0  0  0  0
    7.2488    4.8277    0.0000 C   0  0  0  0  0  0  0  0  0
    6.5343    4.4152    0.0000 O   0  0  0  0  0  0  0  0  0
    6.5343    3.5902    0.0000 C   0  0  0  0  0  0  0  0  0
    7.2488    3.1777    0.0000 C   0  0  0  0  0  0  0  0  0
    7.2488    2.3527    0.0000 C   0  0  0  0  0  0  0  0  0
    6.5343    1.9402    0.0000 C   0  0  0  0  0  0  0  0  0
    5.8198    2.3527    0.0000 C   0  0  0  0  0  0  0  0  0
    5.1053    1.9402    0.0000 C   0  0  0  0  0  0  0  0  0
    4.3909    2.3527    0.0000 O   0  0  0  0  0  0  0  0  0
    5.1053    1.1152    0.0000 C   0  0  0  0  0  0  0  0  0
    5.8198    0.7027    0.0000 C   0  0  0  0  0  0  0  0  0
    5.8198   -0.1223    0.0000 C   0  0  0  0  0  0  0  0  0
    5.1053   -0.5348    0.0000 N   0  0  0  0  0  0  0  0  0
    4.3909   -0.1223    0.0000 C   0  0  0  0  0  0  0  0  0
    4.3909    0.7027    0.0000 C   0  0  0  0  0  0  0  0  0
    5.1053   -1.3598    0.0000 C   0  0  0  0  0  0  0  0  0
    5.8198   -1.7723    0.0000 C   0  0  0  0  0  0  0  0  0
    5.8198   -2.5973    0.0000 C   0  0  0  0  0  0  0  0  0
    6.5343   -3.0098    0.0000 C   0  0  0  0  0  0  0  0  0
    6.5343   -3.8348    0.0000 C   0  0  0  0  0  0  0  0  0
    5.8198   -4.2473    0.0000 C   0  0  0  0  0  0  0  0  0
    5.8198   -5.0723    0.0000 O   0  0  0  0  0  0  0  0  0
    6.5343   -5.4848    0.0000 C   0  0  0  0  0  0  0  0  0
    5.1053   -3.8348    0.0000 C   0  0  0  0  0  0  0  0  0
    5.1053   -3.0098    0.0000 C   0  0  0  0  0  0  0  0  0
    5.8198    3.1777    0.0000 C   0  0  0  0  0  0  0  0  0
    5.1053    3.5902    0.0000 O   0  0  0  0  0  0  0  0  0
    4.3909    3.1777    0.0000 C   0  0  0  0  0  0  0  0  0
  1  2  1  0  0  0  0
  2  3  1  0  0  0  0
  3  4  1  0  0  0  0
  4  5  1  0  0  0  0
  5  6  4  0  0  0  0
  5 28  4  0  0  0  0
  6  7  4  0  0  0  0
  7  8  4  0  0  0  0
  8  9  4  0  0  0  0
  9 10  1  0  0  0  0
  9 28  4  0  0  0  0
 10 11  1  0  0  0  0
 10 12  1  0  0  0  0
 12 13  1  0  0  0  0
 12 17  1  0  0  0  0
 13 14  1  0  0  0  0
 14 15  1  0  0  0  0
 15 16  1  0  0  0  0
 15 18  1  0  0  0  0
 16 17  1  0  0  0  0
 18 19  1  0  0  0  0
 19 20  1  0  0  0  0
 20 21  4  0  0  0  0
 20 27  4  0  0  0  0
 21 22  4  0  0  0  0
 22 23  4  0  0  0  0
 23 24  1  0  0  0  0
 23 26  4  0  0  0  0
 24 25  1  0  0  0  0
 26 27  4  0  0  0  0
 28 29  1  0  0  0  0
 29 30  1  0  0  0  0
M  END
>  <Name_Molregno>
499029

>  <5-HT1A>
5

>  <5-HT1B>
5

>  <5-HT1D>
5

>  <5-HT1E>
5

>  <5-HT2C>
5

>  <5-HT3>
5

>  <5-HT5>
5

>  <5-HT6>
5

>  <5-HT7>
5

$$$$
499030
  Marvin  02231216192D 0   1.00000     0.00000     0

 31 33  0  0  0  0  0  0  0  0999 V2000
    8.1600    6.3223    0.0000 F   0  0  0  0  0  0  0  0  0
    7.4455    5.9098    0.0000 C   0  0  0  0  0  0  0  0  0
    7.4455    5.0848    0.0000 C   0  0  0  0  0  0  0  0  0
    6.7310    4.6723    0.0000 O   0  0  0  0  0  0  0  0  0
    6.7310    3.8473    0.0000 C   0  0  0  0  0  0  0  0  0
    7.4455    3.4348    0.0000 C   0  0  0  0  0  0  0  0  0
    7.4455    2.6098    0.0000 C   0  0  0  0  0  0  0  0  0
    6.7310    2.1973    0.0000 C   0  0  0  0  0  0  0  0  0
    6.0165    2.6098    0.0000 C   0  0  0  0  0  0  0  0  0
    5.3021    2.1973    0.0000 C   0  0  0  0  0  0  0  0  0
    4.5876    2.6098    0.0000 O   0  0  0  0  0  0  0  0  0
    5.3021    1.3723    0.0000 C   0  0  0  0  0  0  0  0  0
    6.0165    0.9598    0.0000 C   0  0  0  0  0  0  0  0  0
    6.0165    0.1348    0.0000 C   0  0  0  0  0  0  0  0  0
    5.3021   -0.2777    0.0000 N   0  0  0  0  0  0  0  0  0
    4.5876    0.1348    0.0000 C   0  0  0  0  0  0  0  0  0
    4.5876    0.9598    0.0000 C   0  0  0  0  0  0  0  0  0
    5.3021   -1.1027    0.0000 C   0  0  0  0  0  0  0  0  0
    6.0165   -1.5152    0.0000 C   0  0  0  0  0  0  0  0  0
    6.0165   -2.3402    0.0000 C   0  0  0  0  0  0  0  0  0
    6.7310   -2.7527    0.0000 C   0  0  0  0  0  0  0  0  0
    6.7310   -3.5777    0.0000 C   0  0  0  0  0  0  0  0  0
    6.0165   -3.9902    0.0000 C   0  0  0  0  0  0  0  0  0
    6.0165   -4.8152    0.0000 N   0  3  0  0  0  0  0  0  0
    6.7310   -5.2277    0.0000 O   0  5  0  0  0  0  0  0  0
    5.3021   -5.2277    0.0000 O   0  5  0  0  0  0  0  0  0
    5.3021   -3.5777    0.0000 C   0  0  0  0  0  0  0  0  0
    5.3021   -2.7527    0.0000 C   0  0  0  0  0  0  0  0  0
    6.0165    3.4348    0.0000 C   0  0  0  0  0  0  0  0  0
    5.3021    3.8473    0.0000 O   0  0  0  0  0  0  0  0  0
    4.5876    3.4348    0.0000 C   0  0  0  0  0  0  0  0  0
  1  2  1  0  0  0  0
  2  3  1  0  0  0  0
  3  4  1  0  0  0  0
  4  5  1  0  0  0  0
  5  6  4  0  0  0  0
  5 29  4  0  0  0  0
  6  7  4  0  0  0  0
  7  8  4  0  0  0  0
  8  9  4  0  0  0  0
  9 10  1  0  0  0  0
  9 29  4  0  0  0  0
 10 11  2  0  0  0  0
 10 12  1  0  0  0  0
 12 13  1  0  0  0  0
 12 17  1  0  0  0  0
 13 14  1  0  0  0  0
 14 15  1  0  0  0  0
 15 16  1  0  0  0  0
 15 18  1  0  0  0  0
 16 17  1  0  0  0  0
 18 19  1  0  0  0  0
 19 20  1  0  0  0  0
 20 21  4  0  0  0  0
 20 28  4  0  0  0  0
 21 22  4  0  0  0  0
 22 23  4  0  0  0  0
 23 24  1  0  0  0  0
 23 27  4  0  0  0  0
 24 25  1  0  0  0  0
 24 26  1  0  0  0  0
 27 28  4  0  0  0  0
 29 30  1  0  0  0  0
 30 31  1  0  0  0  0
M  CHG  3  24   1  25  -1  26  -1
M  END
>  <Name_Molregno>
499030

>  <5-HT1A>
5.76

>  <5-HT1B>
5

>  <5-HT1D>
5.74

>  <5-HT1E>
5

>  <5-HT2C>
5

>  <5-HT3>
5

>  <5-HT5>
5

>  <5-HT6>
5

>  <5-HT7>
5.2

$$$$
499031
  Marvin  02231216192D 0   1.00000     0.00000     0

 30 32  0  0  0  0  0  0  0  0999 V2000
    7.9632    6.0652    0.0000 F   0  0  0  0  0  0  0  0  0
    7.2488    5.6527    0.0000 C   0  0  0  0  0  0  0  0  0
    7.2488    4.8277    0.0000 C   0  0  0  0  0  0  0  0  0
    6.5343    4.4152    0.0000 O   0  0  0  0  0  0  0  0  0
    6.5343    3.5902    0.0000 C   0  0  0  0  0  0  0  0  0
    7.2488    3.1777    0.0000 C   0  0  0  0  0  0  0  0  0
    7.2488    2.3527    0.0000 C   0  0  0  0  0  0  0  0  0
    6.5343    1.9402    0.0000 C   0  0  0  0  0  0  0  0  0
    5.8198    2.3527    0.0000 C   0  0  0  0  0  0  0  0  0
    5.1053    1.9402    0.0000 C   0  0  0  0  0  0  0  0  0
    4.3909    2.3527    0.0000 O   0  0  0  0  0  0  0  0  0
    5.1053    1.1152    0.0000 C   0  0  0  0  0  0  0  0  0
    5.8198    0.7027    0.0000 C   0  0  0  0  0  0  0  0  0
    5.8198   -0.1223    0.0000 C   0  0  0  0  0  0  0  0  0
    5.1053   -0.5348    0.0000 N   0  0  0  0  0  0  0  0  0
    4.3909   -0.1223    0.0000 C   0  0  0  0  0  0  0  0  0
    4.3909    0.7027    0.0000 C   0  0  0  0  0  0  0  0  0
    5.1053   -1.3598    0.0000 C   0  0  0  0  0  0  0  0  0
    5.8198   -1.7723    0.0000 C   0  0  0  0  0  0  0  0  0
    5.8198   -2.5973    0.0000 C   0  0  0  0  0  0  0  0  0
    6.5343   -3.0098    0.0000 C   0  0  0  0  0  0  0  0  0
    6.5343   -3.8348    0.0000 C   0  0  0  0  0  0  0  0  0
    5.8198   -4.2473    0.0000 C   0  0  0  0  0  0  0  0  0
    5.8198   -5.0723    0.0000 O   0  0  0  0  0  0  0  0  0
    6.5343   -5.4848    0.0000 C   0  0  0  0  0  0  0  0  0
    5.1053   -3.8348    0.0000 C   0  0  0  0  0  0  0  0  0
    5.1053   -3.0098    0.0000 C   0  0  0  0  0  0  0  0  0
    5.8198    3.1777    0.0000 C   0  0  0  0  0  0  0  0  0
    5.1053    3.5902    0.0000 O   0  0  0  0  0  0  0  0  0
    4.3909    3.1777    0.0000 C   0  0  0  0  0  0  0  0  0
  1  2  1  0  0  0  0
  2  3  1  0  0  0  0
  3  4  1  0  0  0  0
  4  5  1  0  0  0  0
  5  6  4  0  0  0  0
  5 28  4  0  0  0  0
  6  7  4  0  0  0  0
  7  8  4  0  0  0  0
  8  9  4  0  0  0  0
  9 10  1  0  0  0  0
  9 28  4  0  0  0  0
 10 11  2  0  0  0  0
 10 12  1  0  0  0  0
 12 13  1  0  0  0  0
 12 17  1  0  0  0  0
 13 14  1  0  0  0  0
 14 15  1  0  0  0  0
 15 16  1  0  0  0  0
 15 18  1  0  0  0  0
 16 17  1  0  0  0  0
 18 19  1  0  0  0  0
 19 20  1  0  0  0  0
 20 21  4  0  0  0  0
 20 27  4  0  0  0  0
 21 22  4  0  0  0  0
 22 23  4  0  0  0  0
 23 24  1  0  0  0  0
 23 26  4  0  0  0  0
 24 25  1  0  0  0  0
 26 27  4  0  0  0  0
 28 29  1  0  0  0  0
 29 30  1  0  0  0  0
M  END
>  <Name_Molregno>
499031

>  <5-HT1A>
6

>  <5-HT1B>
5

>  <5-HT1D>
5.84

>  <5-HT1E>
5

>  <5-HT2C>
5.03

>  <5-HT3>
5

>  <5-HT5>
5

>  <5-HT6>
5

>  <5-HT7>
5.54

$$$$
513010
  Marvin  02231216192D 0   1.00000     0.00000     0

 22 24  0  0  1  0  0  0  0  0999 V2000
   -0.2296   -0.4433    0.0000 O   0  0  0  0  0  0  0  0  0
    0.5954   -0.4441    0.0000 C   0  0  0  0  0  0  0  0  0
    1.0086    0.2700    0.0000 O   0  0  0  0  0  0  0  0  0
    1.0072   -1.1590    0.0000 C   0  0  0  0  0  0  0  0  0
    1.8322   -1.1598    0.0000 C   0  0  0  0  0  0  0  0  0
    2.2440   -1.8747    0.0000 C   0  0  0  0  0  0  0  0  0
    1.8308   -2.5887    0.0000 C   0  0  0  0  0  0  0  0  0
    1.0058   -2.5879    0.0000 C   0  0  0  0  0  0  0  0  0
    0.5940   -1.8730    0.0000 C   0  0  0  0  0  0  0  0  0
   -0.6414    0.2716    0.0000 C   0  0  0  0  0  0  0  0  0
   -0.7796    1.0890    0.0000 C   0  0  0  0  0  0  0  0  0
   -1.7084    1.0735    0.0000 C   0  0  0  0  0  0  0  0  0
   -2.2690    1.5134    0.0000 N   0  0  0  0  0  0  0  0  0
   -2.1293    0.7003    0.0000 C   0  0  0  0  0  0  0  0  0
   -2.6492   -0.0120    0.0000 C   0  0  0  0  0  0  0  0  0
   -2.0289    0.3649    0.0000 C   0  0  0  0  0  0  0  0  0
   -1.1576    0.7003    0.0000 C   0  0  0  0  0  0  0  0  0
   -1.4378   -0.0757    0.0000 C   0  0  0  0  0  0  0  0  0
   -2.2499   -0.2210    0.0000 O   0  0  0  0  0  0  0  0  0
   -2.5301   -0.9969    0.0000 C   0  0  0  0  0  0  0  0  0
   -0.9059   -0.7063    0.0000 O   0  0  0  0  0  0  0  0  0
   -2.6916    2.2219    0.0000 C   0  0  0  0  0  0  0  0  0
  1  2  1  0  0  0  0
  1 10  1  0  0  0  0
  2  3  2  0  0  0  0
  2  4  1  0  0  0  0
  4  5  4  0  0  0  0
  4  9  4  0  0  0  0
  5  6  4  0  0  0  0
  6  7  4  0  0  0  0
  7  8  4  0  0  0  0
  8  9  4  0  0  0  0
 10 11  1  0  0  0  0
 10 17  1  0  0  0  0
 11 12  1  0  0  0  0
 12 13  1  0  0  0  0
 12 16  1  0  0  0  0
 13 14  1  0  0  0  0
 13 22  1  0  0  0  0
 14 15  1  0  0  0  0
 14 17  1  0  0  0  0
 15 16  1  0  0  0  0
 17 18  1  0  0  0  0
 18 19  1  0  0  0  0
 18 21  2  0  0  0  0
 19 20  1  0  0  0  0
M  END
>  <Name_Molregno>
513010

>  <5-HT1A>
5

>  <5-HT1B>
5.47

>  <5-HT1D>
5

>  <5-HT1E>
5

>  <5-HT3>
5.31

>  <5-HT5>
5

>  <5-HT6>
5

>  <5-HT7>
5

>  <Alpha-1A>
5.68

>  <Alpha-1B>
5

>  <Alpha-2A>
5

>  <Alpha-2C>
5

>  <Beta-1>
5

>  <Beta-2>
5

>  <DOPAMINE D1>
5

>  <DOPAMINE D2>
5

>  <DOPAMINE D4>
5

>  <DOPAMINE D5>
5

>  <Dopamine transporter>
6.67

>  <HISTAMINE H1>
5.67

>  <HISTAMINE H2>
5

>  <HISTAMINE H4>
5

>  <Muscarinic acetylcholine receptor M1>
5

>  <Muscarinic acetylcholine receptor M2>
5

>  <Muscarinic acetylcholine receptor M3>
5

>  <Muscarinic acetylcholine receptor M4>
5

>  <Muscarinic acetylcholine receptor M5>
5

>  <Norepinephrine transporter>
5.76

>  <Serotonin transporter>
6.68

$$$$
515852
  Marvin  02231216192D 0   1.00000     0.00000     0

 24 28  0  0  1  0  0  0  0  0999 V2000
    3.5696   -0.3324    0.0000 O   0  0  0  0  0  0  0  0  0
    3.9434   -1.0678    0.0000 C   0  0  0  0  0  0  0  0  0
    3.3594   -1.6506    0.0000 C   0  0  0  0  0  0  0  0  0
    2.6247   -1.2753    0.0000 C   0  0  0  0  0  0  0  0  0
    2.7546   -0.4606    0.0000 C   0  0  0  0  0  0  0  0  0
    2.1140    0.0593    0.0000 C   0  0  0  0  0  0  0  0  0
    1.3435   -0.2355    0.0000 C   0  0  0  0  0  0  0  0  0
    1.2136   -1.0502    0.0000 C   0  0  0  0  0  0  0  0  0
    1.8542   -1.5701    0.0000 C   0  0  0  0  0  0  0  0  0
    1.7243   -2.3848    0.0000 N   0  0  0  0  0  0  0  0  0
    0.9537   -2.6797    0.0000 C   0  0  0  0  0  0  0  0  0
    0.3131   -2.1598    0.0000 N   0  0  0  0  0  0  0  0  0
    0.4431   -1.3451    0.0000 C   0  0  0  0  0  0  0  0  0
   -0.1975   -0.8252    0.0000 N   0  0  0  0  0  0  0  0  0
   -0.9680   -1.1201    0.0000 C   0  0  0  0  0  0  0  0  0
   -1.6086   -0.6002    0.0000 C   0  0  0  0  0  0  0  0  0
   -1.4787    0.2145    0.0000 N   0  0  0  0  0  0  0  0  0
   -0.7082    0.5094    0.0000 C   0  0  0  0  0  0  0  0  0
   -0.0676   -0.0105    0.0000 C   0  0  0  0  0  0  0  0  0
    0.8238   -3.4944    0.0000 N   0  0  0  0  0  0  0  0  0
    3.5721   -2.4477    0.0000 C   0  0  0  0  0  0  0  0  0
    4.3687   -2.6621    0.0000 C   0  0  0  0  0  0  0  0  0
    4.9527   -2.0793    0.0000 C   0  0  0  0  0  0  0  0  0
    4.7400   -1.2822    0.0000 C   0  0  0  0  0  0  0  0  0
  1  2  1  0  0  0  0
  1  5  1  0  0  0  0
  2  3  1  0  0  0  0
  2 24  1  0  0  0  0
  3  4  1  0  0  0  0
  3 21  1  0  0  0  0
  4  5  2  0  0  0  0
  4  9  1  0  0  0  0
  5  6  1  0  0  0  0
  6  7  1  0  0  0  0
  7  8  1  0  0  0  0
  8  9  4  0  0  0  0
  8 13  4  0  0  0  0
  9 10  4  0  0  0  0
 10 11  4  0  0  0  0
 11 12  4  0  0  0  0
 11 20  1  0  0  0  0
 12 13  4  0  0  0  0
 13 14  1  0  0  0  0
 14 15  1  0  0  0  0
 14 19  1  0  0  0  0
 15 16  1  0  0  0  0
 16 17  1  0  0  0  0
 17 18  1  0  0  0  0
 18 19  1  0  0  0  0
 21 22  1  0  0  0  0
 22 23  1  0  0  0  0
 23 24  1  0  0  0  0
M  END
>  <Name_Molregno>
515852

>  <5-HT1A>
9.18

>  <5-HT1B>
7.74

>  <5-HT2A>
8.89

>  <5-HT2C>
8.41

>  <5-HT3>
8.18

>  <5-HT5>
6.96

>  <5-HT6>
7.03

>  <5-HT7>
9.66

>  <Beta-1>
6.37

>  <Beta-2>
9.3

>  <DOPAMINE D1>
9.42

>  <DOPAMINE D2>
8.54

>  <DOPAMINE D3>
8.85

>  <DOPAMINE D5>
9.32

>  <Dopamine transporter>
8.05

>  <HISTAMINE H1>
7.05

>  <HISTAMINE H2>
5.91

>  <HISTAMINE H3>
6.03

>  <HISTAMINE H4>
8.24

>  <Muscarinic acetylcholine receptor M1>
7.6

>  <Muscarinic acetylcholine receptor M2>
7.44

>  <Muscarinic acetylcholine receptor M3>
9.38

>  <Muscarinic acetylcholine receptor M4>
9.18

>  <Muscarinic acetylcholine receptor M5>
9.38

>  <Norepinephrine transporter>
8.17

>  <Serotonin transporter>
8.49

$$$$
521692
  Marvin  02231216192D 0   1.00000     0.00000     0

 18 20  0  0  0  0  0  0  0  0999 V2000
   -0.9719   -0.2633    0.0000 O   0  0  0  0  0  0  0  0  0
   -1.6863    0.1492    0.0000 C   0  0  0  0  0  0  0  0  0
   -2.4008   -0.2633    0.0000 C   0  0  0  0  0  0  0  0  0
   -2.4008   -1.0883    0.0000 C   0  0  0  0  0  0  0  0  0
   -3.1153   -1.5008    0.0000 C   0  0  0  0  0  0  0  0  0
   -3.8297   -1.0883    0.0000 N   0  0  0  0  0  0  0  0  0
   -3.8297   -0.2633    0.0000 C   0  0  0  0  0  0  0  0  0
   -3.1153    0.1492    0.0000 C   0  0  0  0  0  0  0  0  0
   -0.2574    0.1492    0.0000 C   0  0  0  0  0  0  0  0  0
    0.4571   -0.2633    0.0000 C   0  0  0  0  0  0  0  0  0
    1.1716    0.1492    0.0000 C   0  0  0  0  0  0  0  0  0
    1.1716    0.9742    0.0000 C   0  0  0  0  0  0  0  0  0
    0.4571    1.3867    0.0000 C   0  0  0  0  0  0  0  0  0
   -0.2574    0.9742    0.0000 C   0  0  0  0  0  0  0  0  0
    1.8860    1.3867    0.0000 C   0  0  0  0  0  0  0  0  0
    2.6005    0.9742    0.0000 C   0  0  0  0  0  0  0  0  0
    2.6005    0.1492    0.0000 C   0  0  0  0  0  0  0  0  0
    1.8860   -0.2633    0.0000 C   0  0  0  0  0  0  0  0  0
  1  2  1  0  0  0  0
  1  9  1  0  0  0  0
  2  3  1  0  0  0  0
  3  4  1  0  0  0  0
  3  8  1  0  0  0  0
  4  5  1  0  0  0  0
  5  6  1  0  0  0  0
  6  7  1  0  0  0  0
  7  8  1  0  0  0  0
  9 10  4  0  0  0  0
  9 14  4  0  0  0  0
 10 11  4  0  0  0  0
 11 12  4  0  0  0  0
 11 18  4  0  0  0  0
 12 13  4  0  0  0  0
 12 15  4  0  0  0  0
 13 14  4  0  0  0  0
 15 16  4  0  0  0  0
 16 17  4  0  0  0  0
 17 18  4  0  0  0  0
M  END
>  <Name_Molregno>
521692

>  <5-HT3>
6.51

$$$$
521763
  Marvin  02231216192D 0   1.00000     0.00000     0

 20 22  0  0  0  0  0  0  0  0999 V2000
   -1.6948    0.0147    0.0000 O   0  0  0  0  0  0  0  0  0
   -2.4092   -0.3978    0.0000 C   0  0  0  0  0  0  0  0  0
   -3.1237    0.0147    0.0000 C   0  0  0  0  0  0  0  0  0
   -3.8382   -0.3978    0.0000 C   0  0  0  0  0  0  0  0  0
   -4.5527    0.0147    0.0000 C   0  0  0  0  0  0  0  0  0
   -4.5527    0.8397    0.0000 N   0  0  0  0  0  0  0  0  0
   -3.8382    1.2522    0.0000 C   0  0  0  0  0  0  0  0  0
   -3.1237    0.8397    0.0000 C   0  0  0  0  0  0  0  0  0
   -0.9803   -0.3978    0.0000 C   0  0  0  0  0  0  0  0  0
   -0.2658    0.0147    0.0000 C   0  0  0  0  0  0  0  0  0
    0.4486   -0.3978    0.0000 C   0  0  0  0  0  0  0  0  0
    1.1631    0.0147    0.0000 C   0  0  0  0  0  0  0  0  0
    1.8776   -0.3978    0.0000 C   0  0  0  0  0  0  0  0  0
    1.8776   -1.2228    0.0000 C   0  0  0  0  0  0  0  0  0
    1.1631   -1.6353    0.0000 C   0  0  0  0  0  0  0  0  0
    0.4486   -1.2228    0.0000 C   0  0  0  0  0  0  0  0  0
   -0.2658   -1.6353    0.0000 C   0  0  0  0  0  0  0  0  0
   -0.9803   -1.2228    0.0000 C   0  0  0  0  0  0  0  0  0
    2.5921    0.0147    0.0000 C   0  0  0  0  0  0  0  0  0
    3.3065    0.4272    0.0000 N   0  0  0  0  0  0  0  0  0
  1  2  1  0  0  0  0
  1  9  1  0  0  0  0
  2  3  1  0  0  0  0
  3  4  1  0  0  0  0
  3  8  1  0  0  0  0
  4  5  1  0  0  0  0
  5  6  1  0  0  0  0
  6  7  1  0  0  0  0
  7  8  1  0  0  0  0
  9 10  4  0  0  0  0
  9 18  4  0  0  0  0
 10 11  4  0  0  0  0
 11 12  4  0  0  0  0
 11 16  4  0  0  0  0
 12 13  4  0  0  0  0
 13 14  4  0  0  0  0
 13 19  1  0  0  0  0
 14 15  4  0  0  0  0
 15 16  4  0  0  0  0
 16 17  4  0  0  0  0
 17 18  4  0  0  0  0
 19 20  3  0  0  0  0
M  END
>  <Name_Molregno>
521763

>  <5-HT3>
6.39

$$$$
521764
  Marvin  02231216192D 0   1.00000     0.00000     0

 21 23  0  0  1  0  0  0  0  0999 V2000
   -0.5759    0.9865    0.0000 O   0  0  0  0  0  0  0  0  0
    0.1386    1.3990    0.0000 C   0  0  0  0  0  0  0  0  0
    0.8531    0.9865    0.0000 C   0  0  0  0  0  0  0  0  0
    1.5676    1.3990    0.0000 O   0  0  0  0  0  0  0  0  0
    2.2820    0.9865    0.0000 C   0  0  0  0  0  0  0  0  0
    0.1386    2.2240    0.0000 C   0  0  0  0  0  0  0  0  0
   -0.5759    2.6365    0.0000 C   0  0  0  0  0  0  0  0  0
   -0.5759    3.4615    0.0000 C   0  0  0  0  0  0  0  0  0
    0.1386    3.8740    0.0000 N   0  0  0  0  0  0  0  0  0
    0.8531    3.4615    0.0000 C   0  0  0  0  0  0  0  0  0
    0.8531    2.6365    0.0000 C   0  0  0  0  0  0  0  0  0
   -0.5759    0.1615    0.0000 C   0  0  0  0  0  0  0  0  0
   -1.2903   -0.2510    0.0000 C   0  0  0  0  0  0  0  0  0
   -1.2903   -1.0760    0.0000 C   0  0  0  0  0  0  0  0  0
   -0.5759   -1.4885    0.0000 C   0  0  0  0  0  0  0  0  0
    0.1386   -1.0760    0.0000 C   0  0  0  0  0  0  0  0  0
    0.1386   -0.2510    0.0000 C   0  0  0  0  0  0  0  0  0
   -0.5759   -2.3135    0.0000 C   0  0  0  0  0  0  0  0  0
   -1.2903   -2.7260    0.0000 C   0  0  0  0  0  0  0  0  0
   -2.0048   -2.3135    0.0000 C   0  0  0  0  0  0  0  0  0
   -2.0048   -1.4885    0.0000 C   0  0  0  0  0  0  0  0  0
  1  2  1  0  0  0  0
  1 12  1  0  0  0  0
  2  3  1  0  0  0  0
  2  6  1  0  0  0  0
  3  4  1  0  0  0  0
  4  5  1  0  0  0  0
  6  7  1  0  0  0  0
  6 11  1  0  0  0  0
  7  8  1  0  0  0  0
  8  9  1  0  0  0  0
  9 10  1  0  0  0  0
 10 11  1  0  0  0  0
 12 13  4  0  0  0  0
 12 17  4  0  0  0  0
 13 14  4  0  0  0  0
 14 15  4  0  0  0  0
 14 21  4  0  0  0  0
 15 16  4  0  0  0  0
 15 18  4  0  0  0  0
 16 17  4  0  0  0  0
 18 19  4  0  0  0  0
 19 20  4  0  0  0  0
 20 21  4  0  0  0  0
M  END
>  <Name_Molregno>
521764

>  <5-HT3>
5

$$$$
591110
  Marvin  02231216192D 0   1.00000     0.00000     0

 27 31  0  0  1  0  0  0  0  0999 V2000
    0.4188    1.2437    0.0000 O   0  0  0  0  0  0  0  0  0
   -0.3658    0.9887    0.0000 C   0  0  0  0  0  0  0  0  0
   -0.3658    0.1637    0.0000 C   0  0  0  0  0  0  0  0  0
    0.4188   -0.0912    0.0000 O   0  0  0  0  0  0  0  0  0
    0.9037    0.5762    0.0000 C   0  0  0  0  0  0  0  0  0
   -1.0803   -0.2488    0.0000 C   0  0  0  0  0  0  0  0  0
   -1.7947    0.1637    0.0000 C   0  0  0  0  0  0  0  0  0
   -2.5092   -0.2488    0.0000 C   0  0  0  0  0  0  0  0  0
   -3.2237    0.1637    0.0000 C   0  0  0  0  0  0  0  0  0
   -3.9382   -0.2488    0.0000 N   0  0  0  0  0  0  0  0  0
   -4.6526    0.1637    0.0000 C   0  0  0  0  0  0  0  0  0
   -4.6526    0.9887    0.0000 C   0  0  0  0  0  0  0  0  0
   -3.9382    1.4012    0.0000 C   0  0  0  0  0  0  0  0  0
   -3.9382    2.2262    0.0000 C   0  0  0  0  0  0  0  0  0
   -3.2237    2.6387    0.0000 C   0  0  0  0  0  0  0  0  0
   -3.2237    3.4637    0.0000 C   0  0  0  0  0  0  0  0  0
   -3.9382    3.8762    0.0000 O   0  0  0  0  0  0  0  0  0
   -2.5092    3.8762    0.0000 C   0  0  0  0  0  0  0  0  0
   -2.5092    2.2262    0.0000 C   0  0  0  0  0  0  0  0  0
   -2.5092    1.4012    0.0000 C   0  0  0  0  0  0  0  0  0
   -3.2237    0.9887    0.0000 C   0  0  0  0  0  0  0  0  0
   -1.7947    0.9887    0.0000 C   0  0  0  0  0  0  0  0  0
   -1.0803    1.4012    0.0000 C   0  0  0  0  0  0  0  0  0
   -1.7947    2.6387    0.0000 C   0  0  0  0  0  0  0  0  0
   -1.0803    2.2262    0.0000 O   0  0  0  0  0  0  0  0  0
   -1.7947    3.4637    0.0000 C   0  0  0  0  0  0  0  0  0
   -3.9382   -1.0738    0.0000 C   0  0  0  0  0  0  0  0  0
  1  2  1  0  0  0  0
  1  5  1  0  0  0  0
  2  3  4  0  0  0  0
  2 23  4  0  0  0  0
  3  4  1  0  0  0  0
  3  6  4  0  0  0  0
  4  5  1  0  0  0  0
  6  7  4  0  0  0  0
  7  8  1  0  0  0  0
  7 22  4  0  0  0  0
  8  9  1  0  0  0  0
  9 10  1  0  0  0  0
  9 21  1  0  0  0  0
 10 11  1  0  0  0  0
 10 27  1  0  0  0  0
 11 12  1  0  0  0  0
 12 13  1  0  0  0  0
 13 14  4  0  0  0  0
 13 21  4  0  0  0  0
 14 15  4  0  0  0  0
 15 16  1  0  0  0  0
 15 19  4  0  0  0  0
 16 17  2  0  0  0  0
 16 18  1  0  0  0  0
 19 20  4  0  0  0  0
 19 24  1  0  0  0  0
 20 21  4  0  0  0  0
 20 22  1  0  0  0  0
 22 23  4  0  0  0  0
 24 25  2  0  0  0  0
 24 26  1  0  0  0  0
M  END
>  <Name_Molregno>
591110

>  <5-HT1B>
7

>  <5-HT1D>
7.31

>  <5-HT1E>
5

>  <5-HT2A>
6.08

>  <5-HT2C>
5.97

>  <5-HT3>
5

>  <5-HT5>
5.65

>  <5-HT6>
6.59

>  <5-HT7>
7.17

>  <Alpha-1A>
8.7

>  <Alpha-1B>
5.92

>  <Alpha-2A>
5.89

>  <Alpha-2B>
6.6

>  <Alpha-2C>
6.74

>  <Beta-1>
5.07

>  <Beta-2>
5

>  <DOPAMINE D1>
6.05

>  <DOPAMINE D2>
6.07

>  <DOPAMINE D3>
6.51

>  <DOPAMINE D4>
6.58

>  <DOPAMINE D5>
5.62

>  <Dopamine transporter>
5

>  <HISTAMINE H1>
5

>  <HISTAMINE H2>
6.17

>  <HISTAMINE H3>
5

>  <HISTAMINE H4>
5

>  <Muscarinic acetylcholine receptor M1>
5

>  <Muscarinic acetylcholine receptor M2>
5

>  <Muscarinic acetylcholine receptor M3>
5

>  <Muscarinic acetylcholine receptor M4>
5

>  <Norepinephrine transporter>
5

>  <Serotonin transporter>
6.61

$$$$
594448
  Marvin  02231216192D 0   1.00000     0.00000     0

 24 27  0  0  1  0  0  0  0  0999 V2000
   -0.1249   -0.5370    0.0000 O   0  0  0  0  0  0  0  0  0
    0.6852   -0.6929    0.0000 C   0  0  0  0  0  0  0  0  0
   -0.3950    0.2426    0.0000 C   0  0  0  0  0  0  0  0  0
   -1.2051    0.3985    0.0000 C   0  0  0  0  0  0  0  0  0
   -1.4751    1.1780    0.0000 C   0  0  0  0  0  0  0  0  0
   -2.2853    1.3340    0.0000 C   0  0  0  0  0  0  0  0  0
   -2.8254    0.7103    0.0000 C   0  0  0  0  0  0  0  0  0
   -2.5553   -0.0692    0.0000 N   0  0  0  0  0  0  0  0  0
   -1.7452   -0.2251    0.0000 C   0  0  0  0  0  0  0  0  0
   -3.0954   -0.6929    0.0000 C   0  0  0  0  0  0  0  0  0
   -3.9055   -0.5370    0.0000 C   0  0  0  0  0  0  0  0  0
   -4.1756    0.2426    0.0000 C   0  0  0  0  0  0  0  0  0
   -4.9857    0.3985    0.0000 C   0  0  0  0  0  0  0  0  0
   -5.2558    1.1780    0.0000 C   0  0  0  0  0  0  0  0  0
   -6.0659    1.3340    0.0000 O   0  0  0  0  0  0  0  0  0
   -6.6060    0.7103    0.0000 C   0  0  0  0  0  0  0  0  0
   -4.7157    1.8017    0.0000 C   0  0  0  0  0  0  0  0  0
   -4.9857    2.5812    0.0000 O   0  0  0  0  0  0  0  0  0
   -3.9055    1.6458    0.0000 C   0  0  0  0  0  0  0  0  0
   -3.6355    0.8662    0.0000 C   0  0  0  0  0  0  0  0  0
   -0.9351    1.8017    0.0000 C   0  0  0  0  0  0  0  0  0
   -0.1249    1.6458    0.0000 C   0  0  0  0  0  0  0  0  0
    0.1451    0.8662    0.0000 C   0  0  0  0  0  0  0  0  0
    0.9553    0.7103    0.0000 O   0  0  0  0  0  0  0  0  0
  1  2  1  0  0  0  0
  1  3  1  0  0  0  0
  3  4  4  0  0  0  0
  3 23  4  0  0  0  0
  4  5  4  0  0  0  0
  4  9  1  0  0  0  0
  5  6  1  0  0  0  0
  5 21  4  0  0  0  0
  6  7  1  0  0  0  0
  7  8  1  0  0  0  0
  7 20  1  0  0  0  0
  8  9  1  0  0  0  0
  8 10  1  0  0  0  0
 10 11  1  0  0  0  0
 11 12  1  0  0  0  0
 12 13  4  0  0  0  0
 12 20  4  0  0  0  0
 13 14  4  0  0  0  0
 14 15  1  0  0  0  0
 14 17  4  0  0  0  0
 15 16  1  0  0  0  0
 17 18  1  0  0  0  0
 17 19  4  0  0  0  0
 19 20  4  0  0  0  0
 21 22  4  0  0  0  0
 22 23  4  0  0  0  0
 23 24  1  0  0  0  0
M  END
>  <Name_Molregno>
594448

>  <5-HT1A>
6.84

>  <5-HT1B>
5.16

>  <5-HT1D>
5

>  <5-HT1E>
5

>  <5-HT2A>
5

>  <5-HT3>
5

>  <5-HT5>
5

>  <5-HT6>
5

>  <5-HT7>
5

>  <Alpha-1A>
5

>  <Alpha-1B>
5

>  <Alpha-2A>
5

>  <Alpha-2B>
5.16

>  <Alpha-2C>
6.67

>  <Beta-1>
5

>  <Beta-2>
5

>  <DOPAMINE D1>
8.23

>  <DOPAMINE D2>
6.01

>  <DOPAMINE D4>
5.43

>  <DOPAMINE D5>
8.36

>  <Dopamine transporter>
5

>  <HISTAMINE H1>
5

>  <HISTAMINE H2>
5

>  <HISTAMINE H4>
5

>  <Muscarinic acetylcholine receptor M2>
5

>  <Muscarinic acetylcholine receptor M5>
5

>  <Norepinephrine transporter>
5

>  <Serotonin transporter>
5

$$$$
604339
  Marvin  02231216192D 0   1.00000     0.00000     0

 24 27  0  0  1  0  0  0  0  0999 V2000
   -3.6733   -0.6043    0.0000 O   0  0  0  0  0  0  0  0  0
   -3.8373   -1.4129    0.0000 C   0  0  0  0  0  0  0  0  0
   -3.2191   -1.9591    0.0000 C   0  0  0  0  0  0  0  0  0
   -3.3830   -2.7677    0.0000 C   0  0  0  0  0  0  0  0  0
   -2.6647   -3.1735    0.0000 N   0  0  0  0  0  0  0  0  0
   -2.0568   -2.6157    0.0000 N   0  0  0  0  0  0  0  0  0
   -2.3994   -1.8652    0.0000 C   0  0  0  0  0  0  0  0  0
   -1.9936   -1.1469    0.0000 C   0  0  0  0  0  0  0  0  0
   -2.4128   -0.4363    0.0000 O   0  0  0  0  0  0  0  0  0
   -1.1687   -1.1392    0.0000 N   0  0  0  0  0  0  0  0  0
   -0.7629   -0.4209    0.0000 C   0  0  0  0  0  0  0  0  0
   -0.6360    0.3810    0.0000 C   0  0  0  0  0  0  0  0  0
    0.2830    0.3817    0.0000 C   0  0  0  0  0  0  0  0  0
    0.8328    0.8177    0.0000 N   0  0  0  0  0  0  0  0  0
    0.7016    0.0141    0.0000 C   0  0  0  0  0  0  0  0  0
   -0.2584    0.0034    0.0000 C   0  0  0  0  0  0  0  0  0
    0.7486   -0.9728    0.0000 C   0  0  0  0  0  0  0  0  0
   -0.0677   -1.1523    0.0000 C   0  0  0  0  0  0  0  0  0
    0.3444   -0.5714    0.0000 C   0  0  0  0  0  0  0  0  0
    1.2507    1.5291    0.0000 C   0  0  0  0  0  0  0  0  0
   -2.5708   -3.9931    0.0000 C   0  0  0  0  0  0  0  0  0
   -4.1652   -3.0299    0.0000 C   0  0  0  0  0  0  0  0  0
   -4.7835   -2.4837    0.0000 C   0  0  0  0  0  0  0  0  0
   -4.6195   -1.6751    0.0000 C   0  0  0  0  0  0  0  0  0
  1  2  1  0  0  0  0
  2  3  4  0  0  0  0
  2 24  4  0  0  0  0
  3  4  4  0  0  0  0
  3  7  4  0  0  0  0
  4  5  4  0  0  0  0
  4 22  4  0  0  0  0
  5  6  4  0  0  0  0
  5 21  1  0  0  0  0
  6  7  4  0  0  0  0
  7  8  1  0  0  0  0
  8  9  2  0  0  0  0
  8 10  1  0  0  0  0
 10 11  1  0  0  0  0
 11 12  1  0  0  0  0
 11 16  1  0  0  0  0
 12 13  1  0  0  0  0
 13 14  1  0  0  0  0
 13 19  1  0  0  0  0
 14 15  1  0  0  0  0
 14 20  1  0  0  0  0
 15 16  1  0  0  0  0
 15 17  1  0  0  0  0
 17 18  1  0  0  0  0
 18 19  1  0  0  0  0
 22 23  4  0  0  0  0
 23 24  4  0  0  0  0
M  END
>  <Name_Molregno>
604339

>  <5-HT3>
9.77

$$$$
604340
  Marvin  02231216192D 0   1.00000     0.00000     0

 25 28  0  0  1  0  0  0  0  0999 V2000
   -3.4903    1.6270    0.0000 O   0  0  0  0  0  0  0  0  0
   -4.1085    2.1732    0.0000 C   0  0  0  0  0  0  0  0  0
   -3.6543    0.8184    0.0000 C   0  0  0  0  0  0  0  0  0
   -3.0360    0.2722    0.0000 C   0  0  0  0  0  0  0  0  0
   -3.2000   -0.5364    0.0000 C   0  0  0  0  0  0  0  0  0
   -2.4817   -0.9422    0.0000 N   0  0  0  0  0  0  0  0  0
   -1.8738   -0.3844    0.0000 N   0  0  0  0  0  0  0  0  0
   -2.2164    0.3661    0.0000 C   0  0  0  0  0  0  0  0  0
   -1.8106    1.0844    0.0000 C   0  0  0  0  0  0  0  0  0
   -2.2298    1.7950    0.0000 O   0  0  0  0  0  0  0  0  0
   -0.9856    1.0921    0.0000 N   0  0  0  0  0  0  0  0  0
   -0.5798    1.8104    0.0000 C   0  0  0  0  0  0  0  0  0
   -0.4529    2.6123    0.0000 C   0  0  0  0  0  0  0  0  0
    0.4661    2.6130    0.0000 C   0  0  0  0  0  0  0  0  0
    1.0159    3.0490    0.0000 N   0  0  0  0  0  0  0  0  0
    0.8847    2.2454    0.0000 C   0  0  0  0  0  0  0  0  0
   -0.0753    2.2347    0.0000 C   0  0  0  0  0  0  0  0  0
    0.9317    1.2585    0.0000 C   0  0  0  0  0  0  0  0  0
    0.1154    1.0790    0.0000 C   0  0  0  0  0  0  0  0  0
    0.5275    1.6599    0.0000 C   0  0  0  0  0  0  0  0  0
    1.4337    3.7604    0.0000 C   0  0  0  0  0  0  0  0  0
   -2.3878   -1.7618    0.0000 C   0  0  0  0  0  0  0  0  0
   -3.9822   -0.7986    0.0000 C   0  0  0  0  0  0  0  0  0
   -4.6004   -0.2524    0.0000 C   0  0  0  0  0  0  0  0  0
   -4.4365    0.5562    0.0000 C   0  0  0  0  0  0  0  0  0
  1  2  1  0  0  0  0
  1  3  1  0  0  0  0
  3  4  4  0  0  0  0
  3 25  4  0  0  0  0
  4  5  4  0  0  0  0
  4  8  4  0  0  0  0
  5  6  4  0  0  0  0
  5 23  4  0  0  0  0
  6  7  4  0  0  0  0
  6 22  1  0  0  0  0
  7  8  4  0  0  0  0
  8  9  1  0  0  0  0
  9 10  2  0  0  0  0
  9 11  1  0  0  0  0
 11 12  1  0  0  0  0
 12 13  1  0  0  0  0
 12 17  1  0  0  0  0
 13 14  1  0  0  0  0
 14 15  1  0  0  0  0
 14 20  1  0  0  0  0
 15 16  1  0  0  0  0
 15 21  1  0  0  0  0
 16 17  1  0  0  0  0
 16 18  1  0  0  0  0
 18 19  1  0  0  0  0
 19 20  1  0  0  0  0
 23 24  4  0  0  0  0
 24 25  4  0  0  0  0
M  END
>  <Name_Molregno>
604340

>  <5-HT3>
7.58

$$$$
604404
  Marvin  02231216192D 0   1.00000     0.00000     0

 31 35  0  0  1  0  0  0  0  0999 V2000
   -2.8331    0.4981    0.0000 O   0  0  0  0  0  0  0  0  0
   -3.4513    1.0444    0.0000 C   0  0  0  0  0  0  0  0  0
   -3.2874    1.8529    0.0000 C   0  0  0  0  0  0  0  0  0
   -3.9056    2.3992    0.0000 C   0  0  0  0  0  0  0  0  0
   -3.7416    3.2077    0.0000 C   0  0  0  0  0  0  0  0  0
   -2.9594    3.4700    0.0000 C   0  0  0  0  0  0  0  0  0
   -2.3412    2.9237    0.0000 C   0  0  0  0  0  0  0  0  0
   -2.5052    2.1152    0.0000 C   0  0  0  0  0  0  0  0  0
   -2.9971   -0.3104    0.0000 C   0  0  0  0  0  0  0  0  0
   -2.3788   -0.8567    0.0000 C   0  0  0  0  0  0  0  0  0
   -2.5428   -1.6652    0.0000 C   0  0  0  0  0  0  0  0  0
   -1.8245   -2.0710    0.0000 N   0  0  0  0  0  0  0  0  0
   -1.2166   -1.5133    0.0000 N   0  0  0  0  0  0  0  0  0
   -1.5592   -0.7628    0.0000 C   0  0  0  0  0  0  0  0  0
   -1.1534   -0.0445    0.0000 C   0  0  0  0  0  0  0  0  0
   -1.5726    0.6661    0.0000 O   0  0  0  0  0  0  0  0  0
   -0.3284   -0.0368    0.0000 N   0  0  0  0  0  0  0  0  0
    0.0774    0.6815    0.0000 C   0  0  0  0  0  0  0  0  0
    0.2043    1.4834    0.0000 C   0  0  0  0  0  0  0  0  0
    1.1233    1.4841    0.0000 C   0  0  0  0  0  0  0  0  0
    1.6731    1.9201    0.0000 N   0  0  0  0  0  0  0  0  0
    1.5419    1.1165    0.0000 C   0  0  0  0  0  0  0  0  0
    0.5819    1.1058    0.0000 C   0  0  0  0  0  0  0  0  0
    1.5889    0.1296    0.0000 C   0  0  0  0  0  0  0  0  0
    0.7726   -0.0499    0.0000 C   0  0  0  0  0  0  0  0  0
    1.1847    0.5310    0.0000 C   0  0  0  0  0  0  0  0  0
    2.0909    2.6315    0.0000 C   0  0  0  0  0  0  0  0  0
   -1.7306   -2.8907    0.0000 C   0  0  0  0  0  0  0  0  0
   -3.3250   -1.9275    0.0000 C   0  0  0  0  0  0  0  0  0
   -3.9432   -1.3812    0.0000 C   0  0  0  0  0  0  0  0  0
   -3.7793   -0.5727    0.0000 C   0  0  0  0  0  0  0  0  0
  1  2  1  0  0  0  0
  1  9  1  0  0  0  0
  2  3  1  0  0  0  0
  3  4  4  0  0  0  0
  3  8  4  0  0  0  0
  4  5  4  0  0  0  0
  5  6  4  0  0  0  0
  6  7  4  0  0  0  0
  7  8  4  0  0  0  0
  9 10  4  0  0  0  0
  9 31  4  0  0  0  0
 10 11  4  0  0  0  0
 10 14  4  0  0  0  0
 11 12  4  0  0  0  0
 11 29  4  0  0  0  0
 12 13  4  0  0  0  0
 12 28  1  0  0  0  0
 13 14  4  0  0  0  0
 14 15  1  0  0  0  0
 15 16  2  0  0  0  0
 15 17  1  0  0  0  0
 17 18  1  0  0  0  0
 18 19  1  0  0  0  0
 18 23  1  0  0  0  0
 19 20  1  0  0  0  0
 20 21  1  0  0  0  0
 20 26  1  0  0  0  0
 21 22  1  0  0  0  0
 21 27  1  0  0  0  0
 22 23  1  0  0  0  0
 22 24  1  0  0  0  0
 24 25  1  0  0  0  0
 25 26  1  0  0  0  0
 29 30  4  0  0  0  0
 30 31  4  0  0  0  0
M  END
>  <Name_Molregno>
604404

>  <5-HT3>
6.43

$$$$
604405
  Marvin  02231216192D 0   1.00000     0.00000     0

 24 27  0  0  1  0  0  0  0  0999 V2000
   -0.2581   -1.1176    0.0000 O   0  0  0  0  0  0  0  0  0
    0.3602   -1.6639    0.0000 C   0  0  0  0  0  0  0  0  0
    1.1424   -1.4016    0.0000 C   0  0  0  0  0  0  0  0  0
    1.7606   -1.9479    0.0000 C   0  0  0  0  0  0  0  0  0
    1.5966   -2.7564    0.0000 C   0  0  0  0  0  0  0  0  0
    2.3149   -3.1622    0.0000 N   0  0  0  0  0  0  0  0  0
    2.9229   -2.6045    0.0000 N   0  0  0  0  0  0  0  0  0
    2.5803   -1.8540    0.0000 C   0  0  0  0  0  0  0  0  0
    2.9860   -1.1357    0.0000 C   0  0  0  0  0  0  0  0  0
    2.5669   -0.4251    0.0000 O   0  0  0  0  0  0  0  0  0
    3.8110   -1.1279    0.0000 N   0  0  0  0  0  0  0  0  0
    4.2168   -0.4096    0.0000 C   0  0  0  0  0  0  0  0  0
    4.3437    0.3923    0.0000 C   0  0  0  0  0  0  0  0  0
    5.2627    0.3930    0.0000 C   0  0  0  0  0  0  0  0  0
    5.8125    0.8290    0.0000 N   0  0  0  0  0  0  0  0  0
    5.6813    0.0254    0.0000 C   0  0  0  0  0  0  0  0  0
    4.7213    0.0147    0.0000 C   0  0  0  0  0  0  0  0  0
    5.7283   -0.9615    0.0000 C   0  0  0  0  0  0  0  0  0
    4.9120   -1.1410    0.0000 C   0  0  0  0  0  0  0  0  0
    5.3241   -0.5601    0.0000 C   0  0  0  0  0  0  0  0  0
    6.2303    1.5403    0.0000 C   0  0  0  0  0  0  0  0  0
    2.4089   -3.9819    0.0000 C   0  0  0  0  0  0  0  0  0
    0.8144   -3.0187    0.0000 C   0  0  0  0  0  0  0  0  0
    0.1962   -2.4724    0.0000 C   0  0  0  0  0  0  0  0  0
  1  2  1  0  0  0  0
  2  3  4  0  0  0  0
  2 24  4  0  0  0  0
  3  4  4  0  0  0  0
  4  5  4  0  0  0  0
  4  8  4  0  0  0  0
  5  6  4  0  0  0  0
  5 23  4  0  0  0  0
  6  7  4  0  0  0  0
  6 22  1  0  0  0  0
  7  8  4  0  0  0  0
  8  9  1  0  0  0  0
  9 10  2  0  0  0  0
  9 11  1  0  0  0  0
 11 12  1  0  0  0  0
 12 13  1  0  0  0  0
 12 17  1  0  0  0  0
 13 14  1  0  0  0  0
 14 15  1  0  0  0  0
 14 20  1  0  0  0  0
 15 16  1  0  0  0  0
 15 21  1  0  0  0  0
 16 17  1  0  0  0  0
 16 18  1  0  0  0  0
 18 19  1  0  0  0  0
 19 20  1  0  0  0  0
 23 24  4  0  0  0  0
M  END
>  <Name_Molregno>
604405

>  <5-HT3>
8.14

$$$$
604406
  Marvin  02231216192D 0   1.00000     0.00000     0

 25 28  0  0  1  0  0  0  0  0999 V2000
   -6.3890   -1.0355    0.0000 O   0  0  0  0  0  0  0  0  0
   -7.1712   -1.2978    0.0000 C   0  0  0  0  0  0  0  0  0
   -5.7708   -1.5818    0.0000 C   0  0  0  0  0  0  0  0  0
   -4.9886   -1.3195    0.0000 C   0  0  0  0  0  0  0  0  0
   -4.3704   -1.8658    0.0000 C   0  0  0  0  0  0  0  0  0
   -4.5343   -2.6743    0.0000 C   0  0  0  0  0  0  0  0  0
   -3.8160   -3.0801    0.0000 N   0  0  0  0  0  0  0  0  0
   -3.2081   -2.5224    0.0000 N   0  0  0  0  0  0  0  0  0
   -3.5507   -1.7719    0.0000 C   0  0  0  0  0  0  0  0  0
   -3.1449   -1.0536    0.0000 C   0  0  0  0  0  0  0  0  0
   -3.5641   -0.3430    0.0000 O   0  0  0  0  0  0  0  0  0
   -2.3200   -1.0458    0.0000 N   0  0  0  0  0  0  0  0  0
   -1.9142   -0.3275    0.0000 C   0  0  0  0  0  0  0  0  0
   -1.7873    0.4744    0.0000 C   0  0  0  0  0  0  0  0  0
   -0.8683    0.4751    0.0000 C   0  0  0  0  0  0  0  0  0
   -0.3185    0.9111    0.0000 N   0  0  0  0  0  0  0  0  0
   -0.4497    0.1075    0.0000 C   0  0  0  0  0  0  0  0  0
   -1.4097    0.0968    0.0000 C   0  0  0  0  0  0  0  0  0
   -0.4027   -0.8794    0.0000 C   0  0  0  0  0  0  0  0  0
   -1.2190   -1.0589    0.0000 C   0  0  0  0  0  0  0  0  0
   -0.8069   -0.4780    0.0000 C   0  0  0  0  0  0  0  0  0
    0.0994    1.6224    0.0000 C   0  0  0  0  0  0  0  0  0
   -3.7221   -3.8997    0.0000 C   0  0  0  0  0  0  0  0  0
   -5.3165   -2.9366    0.0000 C   0  0  0  0  0  0  0  0  0
   -5.9348   -2.3903    0.0000 C   0  0  0  0  0  0  0  0  0
  1  2  1  0  0  0  0
  1  3  1  0  0  0  0
  3  4  4  0  0  0  0
  3 25  4  0  0  0  0
  4  5  4  0  0  0  0
  5  6  4  0  0  0  0
  5  9  4  0  0  0  0
  6  7  4  0  0  0  0
  6 24  4  0  0  0  0
  7  8  4  0  0  0  0
  7 23  1  0  0  0  0
  8  9  4  0  0  0  0
  9 10  1  0  0  0  0
 10 11  2  0  0  0  0
 10 12  1  0  0  0  0
 12 13  1  0  0  0  0
 13 14  1  0  0  0  0
 13 18  1  0  0  0  0
 14 15  1  0  0  0  0
 15 16  1  0  0  0  0
 15 21  1  0  0  0  0
 16 17  1  0  0  0  0
 16 22  1  0  0  0  0
 17 18  1  0  0  0  0
 17 19  1  0  0  0  0
 19 20  1  0  0  0  0
 20 21  1  0  0  0  0
 24 25  4  0  0  0  0
M  END
>  <Name_Molregno>
604406

>  <5-HT3>
5.28

$$$$
604407
  Marvin  02231216192D 0   1.00000     0.00000     0

 31 35  0  0  1  0  0  0  0  0999 V2000
   -4.4453   -0.7425    0.0000 O   0  0  0  0  0  0  0  0  0
   -5.2275   -1.0047    0.0000 C   0  0  0  0  0  0  0  0  0
   -5.8458   -0.4585    0.0000 C   0  0  0  0  0  0  0  0  0
   -6.6280   -0.7207    0.0000 C   0  0  0  0  0  0  0  0  0
   -7.2462   -0.1745    0.0000 C   0  0  0  0  0  0  0  0  0
   -7.0822    0.6341    0.0000 C   0  0  0  0  0  0  0  0  0
   -6.3000    0.8963    0.0000 C   0  0  0  0  0  0  0  0  0
   -5.6818    0.3501    0.0000 C   0  0  0  0  0  0  0  0  0
   -3.8271   -1.2887    0.0000 C   0  0  0  0  0  0  0  0  0
   -3.0449   -1.0265    0.0000 C   0  0  0  0  0  0  0  0  0
   -2.4267   -1.5727    0.0000 C   0  0  0  0  0  0  0  0  0
   -2.5906   -2.3813    0.0000 C   0  0  0  0  0  0  0  0  0
   -1.8723   -2.7871    0.0000 N   0  0  0  0  0  0  0  0  0
   -1.2644   -2.2293    0.0000 N   0  0  0  0  0  0  0  0  0
   -1.6070   -1.4788    0.0000 C   0  0  0  0  0  0  0  0  0
   -1.2012   -0.7605    0.0000 C   0  0  0  0  0  0  0  0  0
   -1.6204   -0.0500    0.0000 O   0  0  0  0  0  0  0  0  0
   -0.3763   -0.7528    0.0000 N   0  0  0  0  0  0  0  0  0
    0.0295   -0.0345    0.0000 C   0  0  0  0  0  0  0  0  0
    0.1564    0.7674    0.0000 C   0  0  0  0  0  0  0  0  0
    1.0754    0.7681    0.0000 C   0  0  0  0  0  0  0  0  0
    1.6252    1.2041    0.0000 N   0  0  0  0  0  0  0  0  0
    1.4940    0.4005    0.0000 C   0  0  0  0  0  0  0  0  0
    0.5340    0.3898    0.0000 C   0  0  0  0  0  0  0  0  0
    1.5410   -0.5864    0.0000 C   0  0  0  0  0  0  0  0  0
    0.7247   -0.7659    0.0000 C   0  0  0  0  0  0  0  0  0
    1.1368   -0.1850    0.0000 C   0  0  0  0  0  0  0  0  0
    2.0431    1.9155    0.0000 C   0  0  0  0  0  0  0  0  0
   -1.7784   -3.6067    0.0000 C   0  0  0  0  0  0  0  0  0
   -3.3728   -2.6436    0.0000 C   0  0  0  0  0  0  0  0  0
   -3.9911   -2.0973    0.0000 C   0  0  0  0  0  0  0  0  0
  1  2  1  0  0  0  0
  1  9  1  0  0  0  0
  2  3  1  0  0  0  0
  3  4  4  0  0  0  0
  3  8  4  0  0  0  0
  4  5  4  0  0  0  0
  5  6  4  0  0  0  0
  6  7  4  0  0  0  0
  7  8  4  0  0  0  0
  9 10  4  0  0  0  0
  9 31  4  0  0  0  0
 10 11  4  0  0  0  0
 11 12  4  0  0  0  0
 11 15  4  0  0  0  0
 12 13  4  0  0  0  0
 12 30  4  0  0  0  0
 13 14  4  0  0  0  0
 13 29  1  0  0  0  0
 14 15  4  0  0  0  0
 15 16  1  0  0  0  0
 16 17  2  0  0  0  0
 16 18  1  0  0  0  0
 18 19  1  0  0  0  0
 19 20  1  0  0  0  0
 19 24  1  0  0  0  0
 20 21  1  0  0  0  0
 21 22  1  0  0  0  0
 21 27  1  0  0  0  0
 22 23  1  0  0  0  0
 22 28  1  0  0  0  0
 23 24  1  0  0  0  0
 23 25  1  0  0  0  0
 25 26  1  0  0  0  0
 26 27  1  0  0  0  0
 30 31  4  0  0  0  0
M  END
>  <Name_Molregno>
604407

>  <5-HT3>
5.52

$$$$
604408
  Marvin  02231216192D 0   1.00000     0.00000     0

 24 27  0  0  1  0  0  0  0  0999 V2000
    3.6709   -2.9901    0.0000 O   0  0  0  0  0  0  0  0  0
    3.4919   -2.1848    0.0000 C   0  0  0  0  0  0  0  0  0
    2.7049   -1.9372    0.0000 C   0  0  0  0  0  0  0  0  0
    2.5258   -1.1319    0.0000 C   0  0  0  0  0  0  0  0  0
    1.8075   -0.7261    0.0000 N   0  0  0  0  0  0  0  0  0
    1.9715    0.0825    0.0000 N   0  0  0  0  0  0  0  0  0
    2.7911    0.1764    0.0000 C   0  0  0  0  0  0  0  0  0
    3.1337   -0.5741    0.0000 C   0  0  0  0  0  0  0  0  0
    3.9207   -0.8217    0.0000 C   0  0  0  0  0  0  0  0  0
    4.0998   -1.6270    0.0000 C   0  0  0  0  0  0  0  0  0
    3.1969    0.8947    0.0000 C   0  0  0  0  0  0  0  0  0
    2.7777    1.6053    0.0000 O   0  0  0  0  0  0  0  0  0
    4.0219    0.9024    0.0000 N   0  0  0  0  0  0  0  0  0
    4.4277    1.6207    0.0000 C   0  0  0  0  0  0  0  0  0
    4.5546    2.4226    0.0000 C   0  0  0  0  0  0  0  0  0
    5.4736    2.4233    0.0000 C   0  0  0  0  0  0  0  0  0
    6.0234    2.8593    0.0000 N   0  0  0  0  0  0  0  0  0
    5.8922    2.0557    0.0000 C   0  0  0  0  0  0  0  0  0
    4.9322    2.0450    0.0000 C   0  0  0  0  0  0  0  0  0
    5.9392    1.0688    0.0000 C   0  0  0  0  0  0  0  0  0
    5.1229    0.8893    0.0000 C   0  0  0  0  0  0  0  0  0
    5.5350    1.4702    0.0000 C   0  0  0  0  0  0  0  0  0
    6.4412    3.5707    0.0000 C   0  0  0  0  0  0  0  0  0
    1.0570   -1.0687    0.0000 C   0  0  0  0  0  0  0  0  0
  1  2  1  0  0  0  0
  2  3  4  0  0  0  0
  2 10  4  0  0  0  0
  3  4  4  0  0  0  0
  4  5  4  0  0  0  0
  4  8  4  0  0  0  0
  5  6  4  0  0  0  0
  5 24  1  0  0  0  0
  6  7  4  0  0  0  0
  7  8  4  0  0  0  0
  7 11  1  0  0  0  0
  8  9  4  0  0  0  0
  9 10  4  0  0  0  0
 11 12  2  0  0  0  0
 11 13  1  0  0  0  0
 13 14  1  0  0  0  0
 14 15  1  0  0  0  0
 14 19  1  0  0  0  0
 15 16  1  0  0  0  0
 16 17  1  0  0  0  0
 16 22  1  0  0  0  0
 17 18  1  0  0  0  0
 17 23  1  0  0  0  0
 18 19  1  0  0  0  0
 18 20  1  0  0  0  0
 20 21  1  0  0  0  0
 21 22  1  0  0  0  0
M  END
>  <Name_Molregno>
604408

>  <5-HT3>
6.55

$$$$
604483
  Marvin  02231216192D 0   1.00000     0.00000     0

 25 28  0  0  1  0  0  0  0  0999 V2000
   -4.1341   -2.8660    0.0000 O   0  0  0  0  0  0  0  0  0
   -3.3471   -3.1136    0.0000 C   0  0  0  0  0  0  0  0  0
   -4.3132   -2.0607    0.0000 C   0  0  0  0  0  0  0  0  0
   -5.1001   -1.8131    0.0000 C   0  0  0  0  0  0  0  0  0
   -5.2792   -1.0077    0.0000 C   0  0  0  0  0  0  0  0  0
   -5.9975   -0.6020    0.0000 N   0  0  0  0  0  0  0  0  0
   -5.8335    0.2066    0.0000 N   0  0  0  0  0  0  0  0  0
   -5.0139    0.3005    0.0000 C   0  0  0  0  0  0  0  0  0
   -4.6713   -0.4500    0.0000 C   0  0  0  0  0  0  0  0  0
   -3.8843   -0.6976    0.0000 C   0  0  0  0  0  0  0  0  0
   -3.7053   -1.5029    0.0000 C   0  0  0  0  0  0  0  0  0
   -4.6081    1.0188    0.0000 C   0  0  0  0  0  0  0  0  0
   -5.0273    1.7294    0.0000 O   0  0  0  0  0  0  0  0  0
   -3.7831    1.0265    0.0000 N   0  0  0  0  0  0  0  0  0
   -3.3774    1.7448    0.0000 C   0  0  0  0  0  0  0  0  0
   -3.2505    2.5467    0.0000 C   0  0  0  0  0  0  0  0  0
   -2.3315    2.5474    0.0000 C   0  0  0  0  0  0  0  0  0
   -1.7817    2.9834    0.0000 N   0  0  0  0  0  0  0  0  0
   -1.9129    2.1798    0.0000 C   0  0  0  0  0  0  0  0  0
   -2.8729    2.1691    0.0000 C   0  0  0  0  0  0  0  0  0
   -1.8659    1.1929    0.0000 C   0  0  0  0  0  0  0  0  0
   -2.6822    1.0134    0.0000 C   0  0  0  0  0  0  0  0  0
   -2.2701    1.5943    0.0000 C   0  0  0  0  0  0  0  0  0
   -1.3638    3.6948    0.0000 C   0  0  0  0  0  0  0  0  0
   -6.7480   -0.9445    0.0000 C   0  0  0  0  0  0  0  0  0
  1  2  1  0  0  0  0
  1  3  1  0  0  0  0
  3  4  4  0  0  0  0
  3 11  4  0  0  0  0
  4  5  4  0  0  0  0
  5  6  4  0  0  0  0
  5  9  4  0  0  0  0
  6  7  4  0  0  0  0
  6 25  1  0  0  0  0
  7  8  4  0  0  0  0
  8  9  4  0  0  0  0
  8 12  1  0  0  0  0
  9 10  4  0  0  0  0
 10 11  4  0  0  0  0
 12 13  2  0  0  0  0
 12 14  1  0  0  0  0
 14 15  1  0  0  0  0
 15 16  1  0  0  0  0
 15 20  1  0  0  0  0
 16 17  1  0  0  0  0
 17 18  1  0  0  0  0
 17 23  1  0  0  0  0
 18 19  1  0  0  0  0
 18 24  1  0  0  0  0
 19 20  1  0  0  0  0
 19 21  1  0  0  0  0
 21 22  1  0  0  0  0
 22 23  1  0  0  0  0
M  END
>  <Name_Molregno>
604483

>  <5-HT3>
6.63

$$$$
604484
  Marvin  02231216192D 0   1.00000     0.00000     0

 31 35  0  0  1  0  0  0  0  0999 V2000
   -3.1839   -2.5797    0.0000 O   0  0  0  0  0  0  0  0  0
   -2.3969   -2.8273    0.0000 C   0  0  0  0  0  0  0  0  0
   -2.2178   -3.6326    0.0000 C   0  0  0  0  0  0  0  0  0
   -1.4309   -3.8802    0.0000 C   0  0  0  0  0  0  0  0  0
   -1.2518   -4.6855    0.0000 C   0  0  0  0  0  0  0  0  0
   -1.8597   -5.2432    0.0000 C   0  0  0  0  0  0  0  0  0
   -2.6467   -4.9957    0.0000 C   0  0  0  0  0  0  0  0  0
   -2.8257   -4.1903    0.0000 C   0  0  0  0  0  0  0  0  0
   -3.3630   -1.7743    0.0000 C   0  0  0  0  0  0  0  0  0
   -4.1499   -1.5268    0.0000 C   0  0  0  0  0  0  0  0  0
   -4.3290   -0.7214    0.0000 C   0  0  0  0  0  0  0  0  0
   -5.0473   -0.3156    0.0000 N   0  0  0  0  0  0  0  0  0
   -4.8833    0.4929    0.0000 N   0  0  0  0  0  0  0  0  0
   -4.0637    0.5868    0.0000 C   0  0  0  0  0  0  0  0  0
   -3.7211   -0.1637    0.0000 C   0  0  0  0  0  0  0  0  0
   -2.9341   -0.4113    0.0000 C   0  0  0  0  0  0  0  0  0
   -2.7551   -1.2166    0.0000 C   0  0  0  0  0  0  0  0  0
   -3.6579    1.3051    0.0000 C   0  0  0  0  0  0  0  0  0
   -4.0771    2.0157    0.0000 O   0  0  0  0  0  0  0  0  0
   -2.8329    1.3128    0.0000 N   0  0  0  0  0  0  0  0  0
   -2.4271    2.0311    0.0000 C   0  0  0  0  0  0  0  0  0
   -2.3002    2.8330    0.0000 C   0  0  0  0  0  0  0  0  0
   -1.3812    2.8337    0.0000 C   0  0  0  0  0  0  0  0  0
   -0.8314    3.2697    0.0000 N   0  0  0  0  0  0  0  0  0
   -0.9626    2.4661    0.0000 C   0  0  0  0  0  0  0  0  0
   -1.9226    2.4554    0.0000 C   0  0  0  0  0  0  0  0  0
   -0.9156    1.4792    0.0000 C   0  0  0  0  0  0  0  0  0
   -1.7319    1.2997    0.0000 C   0  0  0  0  0  0  0  0  0
   -1.3198    1.8806    0.0000 C   0  0  0  0  0  0  0  0  0
   -0.4136    3.9811    0.0000 C   0  0  0  0  0  0  0  0  0
   -5.7978   -0.6582    0.0000 C   0  0  0  0  0  0  0  0  0
  1  2  1  0  0  0  0
  1  9  1  0  0  0  0
  2  3  1  0  0  0  0
  3  4  4  0  0  0  0
  3  8  4  0  0  0  0
  4  5  4  0  0  0  0
  5  6  4  0  0  0  0
  6  7  4  0  0  0  0
  7  8  4  0  0  0  0
  9 10  4  0  0  0  0
  9 17  4  0  0  0  0
 10 11  4  0  0  0  0
 11 12  4  0  0  0  0
 11 15  4  0  0  0  0
 12 13  4  0  0  0  0
 12 31  1  0  0  0  0
 13 14  4  0  0  0  0
 14 15  4  0  0  0  0
 14 18  1  0  0  0  0
 15 16  4  0  0  0  0
 16 17  4  0  0  0  0
 18 19  2  0  0  0  0
 18 20  1  0  0  0  0
 20 21  1  0  0  0  0
 21 22  1  0  0  0  0
 21 26  1  0  0  0  0
 22 23  1  0  0  0  0
 23 24  1  0  0  0  0
 23 29  1  0  0  0  0
 24 25  1  0  0  0  0
 24 30  1  0  0  0  0
 25 26  1  0  0  0  0
 25 27  1  0  0  0  0
 27 28  1  0  0  0  0
 28 29  1  0  0  0  0
M  END
>  <Name_Molregno>
604484

>  <5-HT3>
6.13

$$$$
604485
  Marvin  02231216192D 0   1.00000     0.00000     0

 24 27  0  0  1  0  0  0  0  0999 V2000
   -5.3602   -3.3414    0.0000 O   0  0  0  0  0  0  0  0  0
   -4.7523   -2.7836    0.0000 C   0  0  0  0  0  0  0  0  0
   -4.9313   -1.9783    0.0000 C   0  0  0  0  0  0  0  0  0
   -5.6496   -1.5725    0.0000 N   0  0  0  0  0  0  0  0  0
   -5.4857   -0.7640    0.0000 N   0  0  0  0  0  0  0  0  0
   -4.6660   -0.6700    0.0000 C   0  0  0  0  0  0  0  0  0
   -4.3234   -1.4205    0.0000 C   0  0  0  0  0  0  0  0  0
   -3.5365   -1.6681    0.0000 C   0  0  0  0  0  0  0  0  0
   -3.3574   -2.4735    0.0000 C   0  0  0  0  0  0  0  0  0
   -3.9653   -3.0312    0.0000 C   0  0  0  0  0  0  0  0  0
   -4.2602    0.0483    0.0000 C   0  0  0  0  0  0  0  0  0
   -4.6794    0.7588    0.0000 O   0  0  0  0  0  0  0  0  0
   -3.4353    0.0560    0.0000 N   0  0  0  0  0  0  0  0  0
   -3.0295    0.7743    0.0000 C   0  0  0  0  0  0  0  0  0
   -2.9026    1.5762    0.0000 C   0  0  0  0  0  0  0  0  0
   -1.9836    1.5769    0.0000 C   0  0  0  0  0  0  0  0  0
   -1.4338    2.0129    0.0000 N   0  0  0  0  0  0  0  0  0
   -1.5650    1.2093    0.0000 C   0  0  0  0  0  0  0  0  0
   -2.5250    1.1986    0.0000 C   0  0  0  0  0  0  0  0  0
   -1.5180    0.2224    0.0000 C   0  0  0  0  0  0  0  0  0
   -2.3343    0.0429    0.0000 C   0  0  0  0  0  0  0  0  0
   -1.9222    0.6238    0.0000 C   0  0  0  0  0  0  0  0  0
   -1.0159    2.7242    0.0000 C   0  0  0  0  0  0  0  0  0
   -6.4001   -1.9151    0.0000 C   0  0  0  0  0  0  0  0  0
  1  2  1  0  0  0  0
  2  3  4  0  0  0  0
  2 10  4  0  0  0  0
  3  4  4  0  0  0  0
  3  7  4  0  0  0  0
  4  5  4  0  0  0  0
  4 24  1  0  0  0  0
  5  6  4  0  0  0  0
  6  7  4  0  0  0  0
  6 11  1  0  0  0  0
  7  8  4  0  0  0  0
  8  9  4  0  0  0  0
  9 10  4  0  0  0  0
 11 12  2  0  0  0  0
 11 13  1  0  0  0  0
 13 14  1  0  0  0  0
 14 15  1  0  0  0  0
 14 19  1  0  0  0  0
 15 16  1  0  0  0  0
 16 17  1  0  0  0  0
 16 22  1  0  0  0  0
 17 18  1  0  0  0  0
 17 23  1  0  0  0  0
 18 19  1  0  0  0  0
 18 20  1  0  0  0  0
 20 21  1  0  0  0  0
 21 22  1  0  0  0  0
M  END
>  <Name_Molregno>
604485

>  <5-HT3>
9.17

$$$$
604486
  Marvin  02231216192D 0   1.00000     0.00000     0

 25 28  0  0  1  0  0  0  0  0999 V2000
   -4.8151   -4.2760    0.0000 O   0  0  0  0  0  0  0  0  0
   -4.6361   -5.0814    0.0000 C   0  0  0  0  0  0  0  0  0
   -4.2072   -3.7183    0.0000 C   0  0  0  0  0  0  0  0  0
   -4.3863   -2.9129    0.0000 C   0  0  0  0  0  0  0  0  0
   -5.1046   -2.5072    0.0000 N   0  0  0  0  0  0  0  0  0
   -4.9406   -1.6986    0.0000 N   0  0  0  0  0  0  0  0  0
   -4.1210   -1.6047    0.0000 C   0  0  0  0  0  0  0  0  0
   -3.7784   -2.3552    0.0000 C   0  0  0  0  0  0  0  0  0
   -2.9914   -2.6028    0.0000 C   0  0  0  0  0  0  0  0  0
   -2.8124   -3.4081    0.0000 C   0  0  0  0  0  0  0  0  0
   -3.4203   -3.9659    0.0000 C   0  0  0  0  0  0  0  0  0
   -3.7152   -0.8864    0.0000 C   0  0  0  0  0  0  0  0  0
   -4.1344   -0.1758    0.0000 O   0  0  0  0  0  0  0  0  0
   -2.8902   -0.8787    0.0000 N   0  0  0  0  0  0  0  0  0
   -2.4844   -0.1604    0.0000 C   0  0  0  0  0  0  0  0  0
   -2.3575    0.6415    0.0000 C   0  0  0  0  0  0  0  0  0
   -1.4385    0.6422    0.0000 C   0  0  0  0  0  0  0  0  0
   -0.8887    1.0782    0.0000 N   0  0  0  0  0  0  0  0  0
   -1.0199    0.2746    0.0000 C   0  0  0  0  0  0  0  0  0
   -1.9799    0.2639    0.0000 C   0  0  0  0  0  0  0  0  0
   -0.9729   -0.7123    0.0000 C   0  0  0  0  0  0  0  0  0
   -1.7892   -0.8918    0.0000 C   0  0  0  0  0  0  0  0  0
   -1.3771   -0.3109    0.0000 C   0  0  0  0  0  0  0  0  0
   -0.4709    1.7896    0.0000 C   0  0  0  0  0  0  0  0  0
   -5.8551   -2.8498    0.0000 C   0  0  0  0  0  0  0  0  0
  1  2  1  0  0  0  0
  1  3  1  0  0  0  0
  3  4  4  0  0  0  0
  3 11  4  0  0  0  0
  4  5  4  0  0  0  0
  4  8  4  0  0  0  0
  5  6  4  0  0  0  0
  5 25  1  0  0  0  0
  6  7  4  0  0  0  0
  7  8  4  0  0  0  0
  7 12  1  0  0  0  0
  8  9  4  0  0  0  0
  9 10  4  0  0  0  0
 10 11  4  0  0  0  0
 12 13  2  0  0  0  0
 12 14  1  0  0  0  0
 14 15  1  0  0  0  0
 15 16  1  0  0  0  0
 15 20  1  0  0  0  0
 16 17  1  0  0  0  0
 17 18  1  0  0  0  0
 17 23  1  0  0  0  0
 18 19  1  0  0  0  0
 18 24  1  0  0  0  0
 19 20  1  0  0  0  0
 19 21  1  0  0  0  0
 21 22  1  0  0  0  0
 22 23  1  0  0  0  0
M  END
>  <Name_Molregno>
604486

>  <5-HT3>
7.15

$$$$
604487
  Marvin  02231216192D 0   1.00000     0.00000     0

 31 35  0  0  1  0  0  0  0  0999 V2000
   -3.5317   -1.5916    0.0000 O   0  0  0  0  0  0  0  0  0
   -3.3527   -2.3969    0.0000 C   0  0  0  0  0  0  0  0  0
   -3.9606   -2.9546    0.0000 C   0  0  0  0  0  0  0  0  0
   -3.7815   -3.7600    0.0000 C   0  0  0  0  0  0  0  0  0
   -4.3894   -4.3177    0.0000 C   0  0  0  0  0  0  0  0  0
   -5.1764   -4.0701    0.0000 C   0  0  0  0  0  0  0  0  0
   -5.3554   -3.2648    0.0000 C   0  0  0  0  0  0  0  0  0
   -4.7475   -2.7070    0.0000 C   0  0  0  0  0  0  0  0  0
   -2.9238   -1.0338    0.0000 C   0  0  0  0  0  0  0  0  0
   -3.1029   -0.2285    0.0000 C   0  0  0  0  0  0  0  0  0
   -3.8212    0.1773    0.0000 N   0  0  0  0  0  0  0  0  0
   -3.6572    0.9859    0.0000 N   0  0  0  0  0  0  0  0  0
   -2.8376    1.0798    0.0000 C   0  0  0  0  0  0  0  0  0
   -2.4950    0.3293    0.0000 C   0  0  0  0  0  0  0  0  0
   -1.7080    0.0817    0.0000 C   0  0  0  0  0  0  0  0  0
   -1.5290   -0.7236    0.0000 C   0  0  0  0  0  0  0  0  0
   -2.1369   -1.2814    0.0000 C   0  0  0  0  0  0  0  0  0
   -2.4318    1.7981    0.0000 C   0  0  0  0  0  0  0  0  0
   -2.8510    2.5087    0.0000 O   0  0  0  0  0  0  0  0  0
   -1.6068    1.8058    0.0000 N   0  0  0  0  0  0  0  0  0
   -1.2011    2.5241    0.0000 C   0  0  0  0  0  0  0  0  0
   -1.0742    3.3260    0.0000 C   0  0  0  0  0  0  0  0  0
   -0.1552    3.3267    0.0000 C   0  0  0  0  0  0  0  0  0
    0.3946    3.7627    0.0000 N   0  0  0  0  0  0  0  0  0
    0.2634    2.9591    0.0000 C   0  0  0  0  0  0  0  0  0
   -0.6966    2.9484    0.0000 C   0  0  0  0  0  0  0  0  0
    0.3104    1.9722    0.0000 C   0  0  0  0  0  0  0  0  0
   -0.5059    1.7927    0.0000 C   0  0  0  0  0  0  0  0  0
   -0.0938    2.3736    0.0000 C   0  0  0  0  0  0  0  0  0
    0.8125    4.4741    0.0000 C   0  0  0  0  0  0  0  0  0
   -4.5717   -0.1653    0.0000 C   0  0  0  0  0  0  0  0  0
  1  2  1  0  0  0  0
  1  9  1  0  0  0  0
  2  3  1  0  0  0  0
  3  4  4  0  0  0  0
  3  8  4  0  0  0  0
  4  5  4  0  0  0  0
  5  6  4  0  0  0  0
  6  7  4  0  0  0  0
  7  8  4  0  0  0  0
  9 10  4  0  0  0  0
  9 17  4  0  0  0  0
 10 11  4  0  0  0  0
 10 14  4  0  0  0  0
 11 12  4  0  0  0  0
 11 31  1  0  0  0  0
 12 13  4  0  0  0  0
 13 14  4  0  0  0  0
 13 18  1  0  0  0  0
 14 15  4  0  0  0  0
 15 16  4  0  0  0  0
 16 17  4  0  0  0  0
 18 19  2  0  0  0  0
 18 20  1  0  0  0  0
 20 21  1  0  0  0  0
 21 22  1  0  0  0  0
 21 26  1  0  0  0  0
 22 23  1  0  0  0  0
 23 24  1  0  0  0  0
 23 29  1  0  0  0  0
 24 25  1  0  0  0  0
 24 30  1  0  0  0  0
 25 26  1  0  0  0  0
 25 27  1  0  0  0  0
 27 28  1  0  0  0  0
 28 29  1  0  0  0  0
M  END
>  <Name_Molregno>
604487

>  <5-HT3>
9.64

$$$$
604559
  Marvin  02231216192D 0   1.00000     0.00000     0

 29 33  0  0  1  0  0  0  0  0999 V2000
   -0.5838   -0.6397    0.0000 O   0  0  0  0  0  0  0  0  0
   -0.3288   -1.4243    0.0000 C   0  0  0  0  0  0  0  0  0
   -0.8809   -2.0374    0.0000 N   0  0  0  0  0  0  0  0  0
   -1.6878   -1.8658    0.0000 C   0  0  0  0  0  0  0  0  0
   -2.4908   -1.9854    0.0000 C   0  0  0  0  0  0  0  0  0
   -2.7673   -1.1090    0.0000 C   0  0  0  0  0  0  0  0  0
   -3.3482   -0.7154    0.0000 N   0  0  0  0  0  0  0  0  0
   -2.5423   -0.5994    0.0000 C   0  0  0  0  0  0  0  0  0
   -2.2440   -1.5119    0.0000 C   0  0  0  0  0  0  0  0  0
   -1.6150   -0.2584    0.0000 C   0  0  0  0  0  0  0  0  0
   -1.1988   -0.9832    0.0000 C   0  0  0  0  0  0  0  0  0
   -1.8766   -0.7644    0.0000 C   0  0  0  0  0  0  0  0  0
   -4.1522   -0.5303    0.0000 C   0  0  0  0  0  0  0  0  0
   -4.3939    0.2585    0.0000 C   0  0  0  0  0  0  0  0  0
   -5.1978    0.4436    0.0000 C   0  0  0  0  0  0  0  0  0
   -5.4395    1.2324    0.0000 C   0  0  0  0  0  0  0  0  0
   -4.8772    1.8361    0.0000 C   0  0  0  0  0  0  0  0  0
   -4.0733    1.6510    0.0000 C   0  0  0  0  0  0  0  0  0
   -3.8316    0.8622    0.0000 C   0  0  0  0  0  0  0  0  0
    0.4782   -1.5958    0.0000 C   0  0  0  0  0  0  0  0  0
    0.8137   -2.3495    0.0000 N   0  0  0  0  0  0  0  0  0
    1.6342   -2.2632    0.0000 N   0  0  0  0  0  0  0  0  0
    1.8057   -1.4563    0.0000 C   0  0  0  0  0  0  0  0  0
    1.0912   -1.0438    0.0000 C   0  0  0  0  0  0  0  0  0
    1.0912   -0.2188    0.0000 C   0  0  0  0  0  0  0  0  0
    1.8057    0.1937    0.0000 C   0  0  0  0  0  0  0  0  0
    2.5202   -0.2188    0.0000 C   0  0  0  0  0  0  0  0  0
    2.5202   -1.0438    0.0000 C   0  0  0  0  0  0  0  0  0
    2.1862   -2.8763    0.0000 C   0  0  0  0  0  0  0  0  0
  1  2  2  0  0  0  0
  2  3  1  0  0  0  0
  2 20  1  0  0  0  0
  3  4  1  0  0  0  0
  4  5  1  0  0  0  0
  4  9  1  0  0  0  0
  5  6  1  0  0  0  0
  6  7  1  0  0  0  0
  6 12  1  0  0  0  0
  7  8  1  0  0  0  0
  7 13  1  0  0  0  0
  8  9  1  0  0  0  0
  8 10  1  0  0  0  0
 10 11  1  0  0  0  0
 11 12  1  0  0  0  0
 13 14  1  0  0  0  0
 14 15  4  0  0  0  0
 14 19  4  0  0  0  0
 15 16  4  0  0  0  0
 16 17  4  0  0  0  0
 17 18  4  0  0  0  0
 18 19  4  0  0  0  0
 20 21  4  0  0  0  0
 20 24  4  0  0  0  0
 21 22  4  0  0  0  0
 22 23  4  0  0  0  0
 22 29  1  0  0  0  0
 23 24  4  0  0  0  0
 23 28  4  0  0  0  0
 24 25  4  0  0  0  0
 25 26  4  0  0  0  0
 26 27  4  0  0  0  0
 27 28  4  0  0  0  0
M  END
>  <Name_Molregno>
604559

>  <5-HT3>
7.23

$$$$
604560
  Marvin  02231216192D 0   1.00000     0.00000     0

 26 29  0  0  1  0  0  0  0  0999 V2000
   -0.7674   -2.6001    0.0000 O   0  0  0  0  0  0  0  0  0
   -0.2154   -1.9870    0.0000 C   0  0  0  0  0  0  0  0  0
   -0.4703   -1.2024    0.0000 N   0  0  0  0  0  0  0  0  0
   -1.2773   -1.0309    0.0000 C   0  0  0  0  0  0  0  0  0
   -2.0803   -1.1505    0.0000 C   0  0  0  0  0  0  0  0  0
   -2.3567   -0.2740    0.0000 C   0  0  0  0  0  0  0  0  0
   -2.9376    0.1196    0.0000 N   0  0  0  0  0  0  0  0  0
   -2.1317    0.2356    0.0000 C   0  0  0  0  0  0  0  0  0
   -1.8334   -0.6770    0.0000 C   0  0  0  0  0  0  0  0  0
   -1.2044    0.5766    0.0000 C   0  0  0  0  0  0  0  0  0
   -0.7882   -0.1482    0.0000 C   0  0  0  0  0  0  0  0  0
   -1.4660    0.0706    0.0000 C   0  0  0  0  0  0  0  0  0
   -3.7416    0.3047    0.0000 C   0  0  0  0  0  0  0  0  0
    0.5916   -2.1585    0.0000 C   0  0  0  0  0  0  0  0  0
    0.9272   -2.9122    0.0000 N   0  0  0  0  0  0  0  0  0
    1.7477   -2.8260    0.0000 N   0  0  0  0  0  0  0  0  0
    1.9192   -2.0190    0.0000 C   0  0  0  0  0  0  0  0  0
    1.2047   -1.6065    0.0000 C   0  0  0  0  0  0  0  0  0
    1.2047   -0.7815    0.0000 C   0  0  0  0  0  0  0  0  0
    1.9192   -0.3690    0.0000 C   0  0  0  0  0  0  0  0  0
    2.6337   -0.7815    0.0000 C   0  0  0  0  0  0  0  0  0
    2.6337   -1.6065    0.0000 C   0  0  0  0  0  0  0  0  0
    2.2997   -3.4391    0.0000 C   0  0  0  0  0  0  0  0  0
    3.1067   -3.2675    0.0000 C   0  0  0  0  0  0  0  0  0
    3.6587   -3.8806    0.0000 C   0  0  0  0  0  0  0  0  0
    4.4657   -3.7091    0.0000 N   0  0  0  0  0  0  0  0  0
  1  2  2  0  0  0  0
  2  3  1  0  0  0  0
  2 14  1  0  0  0  0
  3  4  1  0  0  0  0
  4  5  1  0  0  0  0
  4  9  1  0  0  0  0
  5  6  1  0  0  0  0
  6  7  1  0  0  0  0
  6 12  1  0  0  0  0
  7  8  1  0  0  0  0
  7 13  1  0  0  0  0
  8  9  1  0  0  0  0
  8 10  1  0  0  0  0
 10 11  1  0  0  0  0
 11 12  1  0  0  0  0
 14 15  4  0  0  0  0
 14 18  4  0  0  0  0
 15 16  4  0  0  0  0
 16 17  4  0  0  0  0
 16 23  1  0  0  0  0
 17 18  4  0  0  0  0
 17 22  4  0  0  0  0
 18 19  4  0  0  0  0
 19 20  4  0  0  0  0
 20 21  4  0  0  0  0
 21 22  4  0  0  0  0
 23 24  1  0  0  0  0
 24 25  1  0  0  0  0
 25 26  1  0  0  0  0
M  END
>  <Name_Molregno>
604560

>  <5-HT3>
8.72

$$$$
604561
  Marvin  02231216192D 0   1.00000     0.00000     0

 46 52  0  0  1  0  0  0  0  0999 V2000
   -0.3297    0.2143    0.0000 F   0  0  0  0  0  0  0  0  0
    0.2006    0.8463    0.0000 B   0  5  0  0  0  0  0  0  0
    0.7309    0.2143    0.0000 F   0  0  0  0  0  0  0  0  0
   -0.5138    1.2588    0.0000 N   0  3  0  0  0  0  0  0  0
   -0.5138    2.0838    0.0000 C   0  0  0  0  0  0  0  0  0
   -1.2985    2.3387    0.0000 C   0  0  0  0  0  0  0  0  0
   -1.7834    1.6713    0.0000 C   0  0  0  0  0  0  0  0  0
   -1.2985    1.0039    0.0000 C   0  0  0  0  0  0  0  0  0
   -1.5534    0.2192    0.0000 N   0  0  0  0  0  0  0  0  0
   -2.3604    0.0477    0.0000 C   0  0  0  0  0  0  0  0  0
   -2.6153   -0.7369    0.0000 C   0  0  0  0  0  0  0  0  0
   -2.0633   -1.3500    0.0000 O   0  0  0  0  0  0  0  0  0
   -3.4223   -0.9084    0.0000 N   0  0  0  0  0  0  0  0  0
   -3.6772   -1.6931    0.0000 C   0  0  0  0  0  0  0  0  0
   -4.4842   -1.8646    0.0000 C   0  0  0  0  0  0  0  0  0
   -4.7391   -2.6492    0.0000 C   0  0  0  0  0  0  0  0  0
   -5.5461   -2.8207    0.0000 N   0  0  0  0  0  0  0  0  0
   -6.1592   -2.2687    0.0000 N   0  0  0  0  0  0  0  0  0
   -6.8737   -2.6812    0.0000 C   0  0  0  0  0  0  0  0  0
   -6.7021   -3.4882    0.0000 C   0  0  0  0  0  0  0  0  0
   -5.8817   -3.5744    0.0000 C   0  0  0  0  0  0  0  0  0
   -5.5461   -4.3281    0.0000 C   0  0  0  0  0  0  0  0  0
   -6.0310   -4.9955    0.0000 C   0  0  0  0  0  0  0  0  0
   -6.8515   -4.9093    0.0000 C   0  0  0  0  0  0  0  0  0
   -7.1871   -4.1556    0.0000 C   0  0  0  0  0  0  0  0  0
   -7.6273   -2.3457    0.0000 C   0  0  0  0  0  0  0  0  0
   -7.7136   -1.5252    0.0000 O   0  0  0  0  0  0  0  0  0
   -8.2948   -2.8306    0.0000 N   0  0  0  0  0  0  0  0  0
   -9.0485   -2.4950    0.0000 C   0  0  0  0  0  0  0  0  0
   -9.8588   -2.4451    0.0000 C   0  0  0  0  0  0  0  0  0
   -9.9470   -1.5303    0.0000 C   0  0  0  0  0  0  0  0  0
  -10.4334   -1.0245    0.0000 N   0  0  0  0  0  0  0  0  0
   -9.6209   -1.0786    0.0000 C   0  0  0  0  0  0  0  0  0
   -9.5189   -2.0332    0.0000 C   0  0  0  0  0  0  0  0  0
   -8.6430   -0.9378    0.0000 C   0  0  0  0  0  0  0  0  0
   -8.3866   -1.7333    0.0000 C   0  0  0  0  0  0  0  0  0
   -9.0041   -1.3784    0.0000 C   0  0  0  0  0  0  0  0  0
  -11.1813   -0.6763    0.0000 C   0  0  0  0  0  0  0  0  0
    0.2006    2.4963    0.0000 C   0  0  0  0  0  0  0  0  0
    0.9151    2.0838    0.0000 C   0  0  0  0  0  0  0  0  0
    0.9151    1.2588    0.0000 N   0  0  0  0  0  0  0  0  0
    1.6997    1.0039    0.0000 C   0  0  0  0  0  0  0  0  0
    2.1847    1.6713    0.0000 C   0  0  0  0  0  0  0  0  0
    1.6997    2.3387    0.0000 C   0  0  0  0  0  0  0  0  0
    1.9547    3.1234    0.0000 C   0  0  0  0  0  0  0  0  0
    1.9547    0.2192    0.0000 C   0  0  0  0  0  0  0  0  0
  1  2  1  0  0  0  0
  2  3  1  0  0  0  0
  2  4  1  0  0  0  0
  2 41  1  0  0  0  0
  4  5  1  0  0  0  0
  4  8  2  0  0  0  0
  5  6  1  0  0  0  0
  5 39  2  0  0  0  0
  6  7  2  0  0  0  0
  7  8  1  0  0  0  0
  8  9  1  0  0  0  0
  9 10  1  0  0  0  0
 10 11  1  0  0  0  0
 11 12  2  0  0  0  0
 11 13  1  0  0  0  0
 13 14  1  0  0  0  0
 14 15  1  0  0  0  0
 15 16  1  0  0  0  0
 16 17  1  0  0  0  0
 17 18  4  0  0  0  0
 17 21  4  0  0  0  0
 18 19  4  0  0  0  0
 19 20  4  0  0  0  0
 19 26  1  0  0  0  0
 20 21  4  0  0  0  0
 20 25  4  0  0  0  0
 21 22  4  0  0  0  0
 22 23  4  0  0  0  0
 23 24  4  0  0  0  0
 24 25  4  0  0  0  0
 26 27  2  0  0  0  0
 26 28  1  0  0  0  0
 28 29  1  0  0  0  0
 29 30  1  0  0  0  0
 29 34  1  0  0  0  0
 30 31  1  0  0  0  0
 31 32  1  0  0  0  0
 31 37  1  0  0  0  0
 32 33  1  0  0  0  0
 32 38  1  0  0  0  0
 33 34  1  0  0  0  0
 33 35  1  0  0  0  0
 35 36  1  0  0  0  0
 36 37  1  0  0  0  0
 39 40  1  0  0  0  0
 40 41  4  0  0  0  0
 40 44  4  0  0  0  0
 41 42  4  0  0  0  0
 42 43  4  0  0  0  0
 42 46  1  0  0  0  0
 43 44  4  0  0  0  0
 44 45  1  0  0  0  0
M  CHG  2   2  -1   4   1
M  END
>  <Name_Molregno>
604561

>  <5-HT3>
8.55

$$$$
5-Hydroxy-Tryptamine
  Marvin  02231216192D 0   1.00000     0.00000     0

 13 14  0  0  0  0  0  0  0  0999 V2000
    0.1644   -1.0899    0.0000 O   0  0  0  0  0  0  0  0  0
   -0.5501   -0.6774    0.0000 C   0  0  0  0  0  0  0  0  0
   -1.2645   -1.0899    0.0000 C   0  0  0  0  0  0  0  0  0
   -1.9790   -0.6774    0.0000 C   0  0  0  0  0  0  0  0  0
   -1.9790    0.1476    0.0000 C   0  0  0  0  0  0  0  0  0
   -2.7636    0.4026    0.0000 N   0  0  0  0  0  0  0  0  0
   -3.2486   -0.2649    0.0000 C   0  0  0  0  0  0  0  0  0
   -2.7636   -0.9323    0.0000 C   0  0  0  0  0  0  0  0  0
   -3.0186   -1.7169    0.0000 C   0  0  0  0  0  0  0  0  0
   -3.8255   -1.8885    0.0000 C   0  0  0  0  0  0  0  0  0
   -4.0805   -2.6731    0.0000 N   0  0  0  0  0  0  0  0  0
   -1.2645    0.5601    0.0000 C   0  0  0  0  0  0  0  0  0
   -0.5501    0.1476    0.0000 C   0  0  0  0  0  0  0  0  0
  1  2  1  0  0  0  0
  2  3  4  0  0  0  0
  2 13  4  0  0  0  0
  3  4  4  0  0  0  0
  4  5  4  0  0  0  0
  4  8  4  0  0  0  0
  5  6  4  0  0  0  0
  5 12  4  0  0  0  0
  6  7  4  0  0  0  0
  7  8  4  0  0  0  0
  8  9  1  0  0  0  0
  9 10  1  0  0  0  0
 10 11  1  0  0  0  0
 12 13  4  0  0  0  0
M  STY  1   1 DAT
M  SAL   1  1   6
M  SDT   1 MRV_IMPLICIT_H                                        
M  SDD   1     0.0000    0.0000    DR    ALL  0       0  
M  SED   1 IMPL_H1
M  END
>  <Name_Molregno>
5-Hydroxy-Tryptamine

>  <5-HT1A>
8.25

>  <5-HT1B>
8.48

>  <5-HT1D>
8.54

>  <5-HT1E>
8.23

>  <5-HT2A>
7.1

>  <5-HT2C>
7.9

>  <5-HT3>
5.99

>  <5-HT5>
6.9

>  <5-HT6>
7.1

>  <5-HT7>
8.48

>  <DOPAMINE D1>
5.01

>  <DOPAMINE D2>
5

>  <DOPAMINE D5>
5.52

>  <Dopamine transporter>
5

$$$$
9-OH-risperidone
  Marvin  02231216192D 0   1.00000     0.00000     0

 31 35  0  0  1  0  0  0  0  0999 V2000
    1.7758   -2.6889    0.0000 F   0  0  0  0  0  0  0  0  0
    2.0308   -1.9043    0.0000 C   0  0  0  0  0  0  0  0  0
    1.4788   -1.2912    0.0000 C   0  0  0  0  0  0  0  0  0
    1.7337   -0.5066    0.0000 C   0  0  0  0  0  0  0  0  0
    1.3212    0.2079    0.0000 O   0  0  0  0  0  0  0  0  0
    1.8732    0.8210    0.0000 N   0  0  0  0  0  0  0  0  0
    2.6269    0.4854    0.0000 C   0  0  0  0  0  0  0  0  0
    2.5407   -0.3350    0.0000 C   0  0  0  0  0  0  0  0  0
    3.0927   -0.9481    0.0000 C   0  0  0  0  0  0  0  0  0
    2.8378   -1.7327    0.0000 C   0  0  0  0  0  0  0  0  0
    3.3414    0.8979    0.0000 C   0  0  0  0  0  0  0  0  0
    3.3414    1.7229    0.0000 C   0  0  0  0  0  0  0  0  0
    4.0558    2.1354    0.0000 C   0  0  0  0  0  0  0  0  0
    4.7703    1.7229    0.0000 N   0  0  0  0  0  0  0  0  0
    4.7703    0.8979    0.0000 C   0  0  0  0  0  0  0  0  0
    4.0558    0.4854    0.0000 C   0  0  0  0  0  0  0  0  0
    5.4848    2.1354    0.0000 C   0  0  0  0  0  0  0  0  0
    6.1993    1.7229    0.0000 C   0  0  0  0  0  0  0  0  0
    6.9137    2.1354    0.0000 C   0  0  0  0  0  0  0  0  0
    7.6282    1.7229    0.0000 C   0  0  0  0  0  0  0  0  0
    7.6282    0.8979    0.0000 O   0  0  0  0  0  0  0  0  0
    8.3427    2.1354    0.0000 N   0  0  0  0  0  0  0  0  0
    8.3427    2.9604    0.0000 C   0  0  0  0  0  0  0  0  0
    7.6282    3.3729    0.0000 N   0  0  0  0  0  0  0  0  0
    6.9137    2.9604    0.0000 C   0  0  0  0  0  0  0  0  0
    6.1993    3.3729    0.0000 C   0  0  0  0  0  0  0  0  0
    9.0571    3.3729    0.0000 C   0  0  0  0  0  0  0  0  0
    9.0571    4.1979    0.0000 O   0  0  0  0  0  0  0  0  0
    9.7716    2.9604    0.0000 C   0  0  0  0  0  0  0  0  0
    9.7716    2.1354    0.0000 C   0  0  0  0  0  0  0  0  0
    9.0571    1.7229    0.0000 C   0  0  0  0  0  0  0  0  0
  1  2  1  0  0  0  0
  2  3  4  0  0  0  0
  2 10  4  0  0  0  0
  3  4  4  0  0  0  0
  4  5  4  0  0  0  0
  4  8  4  0  0  0  0
  5  6  4  0  0  0  0
  6  7  4  0  0  0  0
  7  8  4  0  0  0  0
  7 11  1  0  0  0  0
  8  9  4  0  0  0  0
  9 10  4  0  0  0  0
 11 12  1  0  0  0  0
 11 16  1  0  0  0  0
 12 13  1  0  0  0  0
 13 14  1  0  0  0  0
 14 15  1  0  0  0  0
 14 17  1  0  0  0  0
 15 16  1  0  0  0  0
 17 18  1  0  0  0  0
 18 19  1  0  0  0  0
 19 20  1  0  0  0  0
 19 25  2  0  0  0  0
 20 21  2  0  0  0  0
 20 22  1  0  0  0  0
 22 23  1  0  0  0  0
 22 31  1  0  0  0  0
 23 24  2  0  0  0  0
 23 27  1  0  0  0  0
 24 25  1  0  0  0  0
 25 26  1  0  0  0  0
 27 28  1  0  0  0  0
 27 29  1  0  0  0  0
 29 30  1  0  0  0  0
 30 31  1  0  0  0  0
M  END
>  <Name_Molregno>
9-OH-risperidone

>  <5-HT1A>
6.24

>  <5-HT1B>
7.51

>  <5-HT1D>
7.44

>  <5-HT1E>
5.49

>  <5-HT2A>
9

>  <5-HT2C>
7.32

>  <5-HT3>
5

>  <5-HT5>
6.56

>  <5-HT6>
5.62

>  <5-HT7>
8.57

>  <Alpha-1A>
8.6

>  <Alpha-1B>
9.15

>  <Alpha-2A>
7.92

>  <Alpha-2B>
7.63

>  <Alpha-2C>
8.2

>  <Beta-1>
5.15

>  <Beta-2>
5.15

>  <DOPAMINE D1>
7.39

>  <DOPAMINE D2>
8.61

>  <DOPAMINE D3>
9.07

>  <DOPAMINE D4>
7.4

>  <DOPAMINE D5>
7.54

>  <Dopamine transporter>
5

>  <HISTAMINE H1>
8.07

>  <HISTAMINE H2>
6.92

>  <HISTAMINE H4>
5.06

>  <Muscarinic acetylcholine receptor M1>
5

>  <Muscarinic acetylcholine receptor M2>
5

>  <Muscarinic acetylcholine receptor M3>
5

>  <Muscarinic acetylcholine receptor M4>
5

>  <Muscarinic acetylcholine receptor M5>
5

>  <Norepinephrine transporter>
5

>  <Serotonin transporter>
5.71

$$$$
Acetylsalicylic-acid
  Marvin  02231216192D 0   1.00000     0.00000     0

 13 13  0  0  0  0  0  0  0  0999 V2000
    0.0203    0.5019    0.0000 O   0  0  0  0  0  0  0  0  0
    0.7347    0.0894    0.0000 C   0  0  0  0  0  0  0  0  0
    1.4492    0.5019    0.0000 O   0  0  0  0  0  0  0  0  0
    0.7347   -0.7356    0.0000 C   0  0  0  0  0  0  0  0  0
   -0.6942    0.0894    0.0000 C   0  0  0  0  0  0  0  0  0
   -0.6942   -0.7356    0.0000 C   0  0  0  0  0  0  0  0  0
   -1.4087   -1.1481    0.0000 C   0  0  0  0  0  0  0  0  0
   -2.1232   -0.7356    0.0000 C   0  0  0  0  0  0  0  0  0
   -2.1232    0.0894    0.0000 C   0  0  0  0  0  0  0  0  0
   -1.4087    0.5019    0.0000 C   0  0  0  0  0  0  0  0  0
   -1.4087    1.3269    0.0000 C   0  0  0  0  0  0  0  0  0
   -2.1232    1.7394    0.0000 O   0  0  0  0  0  0  0  0  0
   -0.6942    1.7394    0.0000 O   0  0  0  0  0  0  0  0  0
  1  2  1  0  0  0  0
  1  5  1  0  0  0  0
  2  3  2  0  0  0  0
  2  4  1  0  0  0  0
  5  6  4  0  0  0  0
  5 10  4  0  0  0  0
  6  7  4  0  0  0  0
  7  8  4  0  0  0  0
  8  9  4  0  0  0  0
  9 10  4  0  0  0  0
 10 11  1  0  0  0  0
 11 12  1  0  0  0  0
 11 13  2  0  0  0  0
M  END
>  <Name_Molregno>
Acetylsalicylic-acid

>  <5-HT1A>
5

>  <5-HT1B>
5

>  <5-HT1D>
5

>  <5-HT2A>
5

>  <5-HT3>
5

>  <5-HT5>
5

>  <5-HT6>
5

>  <5-HT7>
5

>  <Alpha-1A>
5

>  <Alpha-1B>
5

>  <Alpha-2A>
5

>  <Alpha-2B>
5

>  <Alpha-2C>
5

>  <DOPAMINE D1>
5

>  <DOPAMINE D2>
5

>  <DOPAMINE D4>
5

>  <DOPAMINE D5>
5

>  <HISTAMINE H1>
5

>  <HISTAMINE H2>
5

>  <Muscarinic acetylcholine receptor M2>
5

>  <Muscarinic acetylcholine receptor M5>
5

$$$$
alcuronium
  Marvin  02231216192D 0   1.00000     0.00000     0

 50 60  0  0  1  0  0  0  0  0999 V2000
   -7.3209   -2.5728    0.0000 O   0  0  0  0  0  0  0  0  0
   -7.1020   -3.3682    0.0000 C   0  0  0  0  0  0  0  0  0
   -6.2577   -3.5883    0.0000 C   0  0  0  0  0  0  0  0  0
   -5.4764   -3.1652    0.0000 C   0  0  0  0  0  0  0  0  0
   -4.6595   -2.5596    0.0000 C   0  0  0  0  0  0  0  0  0
   -4.5524   -3.1951    0.0000 C   0  0  0  0  0  0  0  0  0
   -3.8295   -2.3912    0.0000 C   0  0  0  0  0  0  0  0  0
   -2.9706   -1.8517    0.0000 N   0  0  0  0  0  0  0  0  0
   -3.5633   -1.8290    0.0000 C   0  0  0  0  0  0  0  0  0
   -2.6544   -2.3567    0.0000 C   0  0  0  0  0  0  0  0  0
   -1.9315   -1.7065    0.0000 C   0  0  0  0  0  0  0  0  0
   -1.5219   -2.2519    0.0000 C   0  0  0  0  0  0  0  0  0
   -1.0985   -2.8703    0.0000 C   0  0  0  0  0  0  0  0  0
   -0.3679   -2.5429    0.0000 N   0  3  0  0  0  0  0  0  0
   -0.4102   -1.6565    0.0000 C   0  0  0  0  0  0  0  0  0
   -1.1874   -1.2510    0.0000 C   0  0  0  0  0  0  0  0  0
   -1.4151   -0.3854    0.0000 C   0  0  0  0  0  0  0  0  0
   -0.9384    0.3042    0.0000 C   0  0  0  0  0  0  0  0  0
   -1.2917    1.0498    0.0000 O   0  0  0  0  0  0  0  0  0
   -0.0213   -3.3267    0.0000 C   0  0  0  0  0  0  0  0  0
   -0.6413   -3.9190    0.0000 C   0  0  0  0  0  0  0  0  0
   -1.4915   -3.5978    0.0000 C   0  0  0  0  0  0  0  0  0
   -2.3884   -3.3696    0.0000 C   0  0  0  0  0  0  0  0  0
   -3.1015   -3.9855    0.0000 N   0  0  0  0  0  0  0  0  0
   -4.1854   -3.9381    0.0000 C   0  0  0  0  0  0  0  0  0
   -2.4425   -4.6884    0.0000 C   0  0  0  0  0  0  0  0  0
   -1.6456   -4.4751    0.0000 C   0  0  0  0  0  0  0  0  0
   -1.0624   -5.0586    0.0000 C   0  0  0  0  0  0  0  0  0
   -1.2761   -5.8554    0.0000 C   0  0  0  0  0  0  0  0  0
   -2.0731   -6.0687    0.0000 C   0  0  0  0  0  0  0  0  0
   -2.6563   -5.4852    0.0000 C   0  0  0  0  0  0  0  0  0
    0.4566   -1.9661    0.0000 C   0  0  0  0  0  0  0  0  0
    0.9665   -1.2149    0.0000 C   0  0  0  0  0  0  0  0  0
    0.6070   -0.4723    0.0000 C   0  0  0  0  0  0  0  0  0
   -2.2091   -2.1638    0.0000 C   0  0  0  0  0  0  0  0  0
   -2.3806   -2.9708    0.0000 C   0  0  0  0  0  0  0  0  0
   -3.2307   -3.1603    0.0000 C   0  0  0  0  0  0  0  0  0
   -3.8165   -3.9190    0.0000 C   0  0  0  0  0  0  0  0  0
   -3.9368   -3.2979    0.0000 N   0  3  0  0  0  0  0  0  0
   -4.9709   -2.8039    0.0000 C   0  0  0  0  0  0  0  0  0
   -3.4959   -4.3615    0.0000 C   0  0  0  0  0  0  0  0  0
   -2.6696   -3.9493    0.0000 C   0  0  0  0  0  0  0  0  0
   -4.4073   -2.4165    0.0000 C   0  0  0  0  0  0  0  0  0
   -4.7996   -1.5885    0.0000 C   0  0  0  0  0  0  0  0  0
   -5.6219   -1.5216    0.0000 C   0  0  0  0  0  0  0  0  0
   -4.7570   -3.7626    0.0000 C   0  0  0  0  0  0  0  0  0
   -1.7674   -3.5227    0.0000 C   0  0  0  0  0  0  0  0  0
   -0.9828   -3.2677    0.0000 C   0  0  0  0  0  0  0  0  0
   -0.8114   -2.4607    0.0000 C   0  0  0  0  0  0  0  0  0
   -1.4246   -1.9087    0.0000 C   0  0  0  0  0  0  0  0  0
  1  2  1  0  0  0  0
  2  3  1  0  0  0  0
  3  4  2  0  0  0  0
  4  5  1  0  0  0  0
  4 40  1  0  0  0  0
  5  6  1  0  0  0  0
  5 46  1  0  0  0  0
  6  7  1  0  0  0  0
  6 25  2  0  0  0  0
  7  8  1  0  0  0  0
  7 37  1  0  0  0  0
  8  9  1  0  0  0  0
  8 35  1  0  0  0  0
  9 10  2  0  0  0  0
 10 11  1  0  0  0  0
 10 23  1  0  0  0  0
 11 12  1  0  0  0  0
 11 16  1  0  0  0  0
 12 13  1  0  0  0  0
 13 14  1  0  0  0  0
 13 22  1  0  0  0  0
 14 15  1  0  0  0  0
 14 20  1  0  0  0  0
 14 32  1  0  0  0  0
 15 16  1  0  0  0  0
 16 17  2  0  0  0  0
 17 18  1  0  0  0  0
 18 19  1  0  0  0  0
 20 21  1  0  0  0  0
 21 22  1  0  0  0  0
 22 23  1  0  0  0  0
 22 27  1  0  0  0  0
 23 24  1  0  0  0  0
 24 25  1  0  0  0  0
 24 26  1  0  0  0  0
 26 27  4  0  0  0  0
 26 31  4  0  0  0  0
 27 28  4  0  0  0  0
 28 29  4  0  0  0  0
 29 30  4  0  0  0  0
 30 31  4  0  0  0  0
 32 33  1  0  0  0  0
 33 34  2  0  0  0  0
 35 36  4  0  0  0  0
 35 50  4  0  0  0  0
 36 37  1  0  0  0  0
 36 47  4  0  0  0  0
 37 38  1  0  0  0  0
 37 42  1  0  0  0  0
 38 39  1  0  0  0  0
 38 46  1  0  0  0  0
 39 40  1  0  0  0  0
 39 41  1  0  0  0  0
 39 43  1  0  0  0  0
 41 42  1  0  0  0  0
 43 44  1  0  0  0  0
 44 45  2  0  0  0  0
 47 48  4  0  0  0  0
 48 49  4  0  0  0  0
 49 50  4  0  0  0  0
M  CHG  2  14   1  39   1
M  END
>  <Name_Molregno>
alcuronium

>  <5-HT3>
4.33

$$$$
Amentoflavone
  Marvin  02231216192D 0   1.00000     0.00000     0

 40 45  0  0  0  0  0  0  0  0999 V2000
   -3.5941   -0.9772    0.0000 O   0  0  0  0  0  0  0  0  0
   -3.5941   -0.1522    0.0000 C   0  0  0  0  0  0  0  0  0
   -4.3085    0.2603    0.0000 C   0  0  0  0  0  0  0  0  0
   -5.0230   -0.1522    0.0000 C   0  0  0  0  0  0  0  0  0
   -5.7375    0.2603    0.0000 O   0  0  0  0  0  0  0  0  0
   -5.0230   -0.9772    0.0000 C   0  0  0  0  0  0  0  0  0
   -4.3085   -1.3897    0.0000 C   0  0  0  0  0  0  0  0  0
   -4.3085   -2.2147    0.0000 C   0  0  0  0  0  0  0  0  0
   -3.5941   -2.6272    0.0000 C   0  0  0  0  0  0  0  0  0
   -3.5941   -3.4522    0.0000 C   0  0  0  0  0  0  0  0  0
   -4.3085   -3.8647    0.0000 C   0  0  0  0  0  0  0  0  0
   -4.3085   -4.6897    0.0000 O   0  0  0  0  0  0  0  0  0
   -5.0230   -3.4522    0.0000 C   0  0  0  0  0  0  0  0  0
   -5.0230   -2.6272    0.0000 C   0  0  0  0  0  0  0  0  0
   -4.3085    1.0853    0.0000 C   0  0  0  0  0  0  0  0  0
   -5.0230    1.4978    0.0000 O   0  0  0  0  0  0  0  0  0
   -3.5941    1.4978    0.0000 C   0  0  0  0  0  0  0  0  0
   -2.8796    1.0853    0.0000 C   0  0  0  0  0  0  0  0  0
   -2.1651    1.4978    0.0000 O   0  0  0  0  0  0  0  0  0
   -2.8796    0.2603    0.0000 C   0  0  0  0  0  0  0  0  0
   -2.1651   -0.1522    0.0000 C   0  0  0  0  0  0  0  0  0
   -1.4507    0.2603    0.0000 C   0  0  0  0  0  0  0  0  0
   -0.7362   -0.1522    0.0000 C   0  0  0  0  0  0  0  0  0
   -0.7362   -0.9772    0.0000 C   0  0  0  0  0  0  0  0  0
   -1.4507   -1.3897    0.0000 C   0  0  0  0  0  0  0  0  0
   -2.1651   -0.9772    0.0000 C   0  0  0  0  0  0  0  0  0
   -2.8796   -1.3897    0.0000 O   0  0  0  0  0  0  0  0  0
   -0.0217    0.2603    0.0000 C   0  0  0  0  0  0  0  0  0
    0.6928   -0.1522    0.0000 O   0  0  0  0  0  0  0  0  0
    1.4072    0.2603    0.0000 C   0  0  0  0  0  0  0  0  0
    1.4072    1.0853    0.0000 C   0  0  0  0  0  0  0  0  0
    0.6928    1.4978    0.0000 C   0  0  0  0  0  0  0  0  0
    0.6928    2.3228    0.0000 O   0  0  0  0  0  0  0  0  0
   -0.0217    1.0853    0.0000 C   0  0  0  0  0  0  0  0  0
    2.1217    1.4978    0.0000 C   0  0  0  0  0  0  0  0  0
    2.1217    2.3228    0.0000 O   0  0  0  0  0  0  0  0  0
    2.8362    1.0853    0.0000 C   0  0  0  0  0  0  0  0  0
    2.8362    0.2603    0.0000 C   0  0  0  0  0  0  0  0  0
    3.5506   -0.1522    0.0000 O   0  0  0  0  0  0  0  0  0
    2.1217   -0.1522    0.0000 C   0  0  0  0  0  0  0  0  0
  1  2  1  0  0  0  0
  1  7  1  0  0  0  0
  2  3  4  0  0  0  0
  2 20  4  0  0  0  0
  3  4  1  0  0  0  0
  3 15  4  0  0  0  0
  4  5  2  0  0  0  0
  4  6  1  0  0  0  0
  6  7  2  0  0  0  0
  7  8  1  0  0  0  0
  8  9  4  0  0  0  0
  8 14  4  0  0  0  0
  9 10  4  0  0  0  0
 10 11  4  0  0  0  0
 11 12  1  0  0  0  0
 11 13  4  0  0  0  0
 13 14  4  0  0  0  0
 15 16  1  0  0  0  0
 15 17  4  0  0  0  0
 17 18  4  0  0  0  0
 18 19  1  0  0  0  0
 18 20  4  0  0  0  0
 20 21  1  0  0  0  0
 21 22  4  0  0  0  0
 21 26  4  0  0  0  0
 22 23  4  0  0  0  0
 23 24  4  0  0  0  0
 23 28  1  0  0  0  0
 24 25  4  0  0  0  0
 25 26  4  0  0  0  0
 26 27  1  0  0  0  0
 28 29  1  0  0  0  0
 28 34  2  0  0  0  0
 29 30  1  0  0  0  0
 30 31  4  0  0  0  0
 30 40  4  0  0  0  0
 31 32  1  0  0  0  0
 31 35  4  0  0  0  0
 32 33  2  0  0  0  0
 32 34  1  0  0  0  0
 35 36  1  0  0  0  0
 35 37  4  0  0  0  0
 37 38  4  0  0  0  0
 38 39  1  0  0  0  0
 38 40  4  0  0  0  0
M  END
>  <Name_Molregno>
Amentoflavone

>  <5-HT1A>
5

>  <5-HT1B>
5.39

>  <5-HT1D>
5

>  <5-HT2C>
5.59

>  <5-HT3>
5

>  <5-HT5>
5

>  <5-HT6>
5

>  <5-HT7>
5

>  <Alpha-1A>
5

>  <Alpha-1B>
5

>  <Alpha-2A>
5

>  <Alpha-2B>
5

>  <Alpha-2C>
5

>  <DOPAMINE D1>
5

>  <DOPAMINE D5>
5

>  <Muscarinic acetylcholine receptor M1>
5

>  <Muscarinic acetylcholine receptor M2>
5

>  <Muscarinic acetylcholine receptor M3>
5

>  <Muscarinic acetylcholine receptor M4>
5

>  <Muscarinic acetylcholine receptor M5>
5

>  <Norepinephrine transporter>
5

>  <Serotonin transporter>
5

$$$$
ARIPIPRAZOLE
  Marvin  02231216192D 0   1.00000     0.00000     0

 30 33  0  0  0  0  0  0  0  0999 V2000
   -8.7485    0.0493    0.0000 Cl  0  0  0  0  0  0  0  0  0
   -8.7485   -0.7757    0.0000 C   0  0  0  0  0  0  0  0  0
   -8.0340   -1.1882    0.0000 C   0  0  0  0  0  0  0  0  0
   -7.3195   -0.7757    0.0000 N   0  0  0  0  0  0  0  0  0
   -7.3195    0.0493    0.0000 C   0  0  0  0  0  0  0  0  0
   -6.6051    0.4618    0.0000 C   0  0  0  0  0  0  0  0  0
   -5.8906    0.0493    0.0000 N   0  0  0  0  0  0  0  0  0
   -5.8906   -0.7757    0.0000 C   0  0  0  0  0  0  0  0  0
   -6.6051   -1.1882    0.0000 C   0  0  0  0  0  0  0  0  0
   -5.1761    0.4618    0.0000 C   0  0  0  0  0  0  0  0  0
   -4.4616    0.0493    0.0000 C   0  0  0  0  0  0  0  0  0
   -3.7472    0.4618    0.0000 C   0  0  0  0  0  0  0  0  0
   -3.0327    0.0493    0.0000 C   0  0  0  0  0  0  0  0  0
   -2.3182    0.4618    0.0000 O   0  0  0  0  0  0  0  0  0
   -1.6038    0.0493    0.0000 C   0  0  0  0  0  0  0  0  0
   -0.8893    0.4618    0.0000 C   0  0  0  0  0  0  0  0  0
   -0.1748    0.0493    0.0000 C   0  0  0  0  0  0  0  0  0
    0.5397    0.4618    0.0000 N   0  0  0  0  0  0  0  0  0
    1.2541    0.0493    0.0000 C   0  0  0  0  0  0  0  0  0
    1.9686    0.4618    0.0000 O   0  0  0  0  0  0  0  0  0
    1.2541   -0.7757    0.0000 C   0  0  0  0  0  0  0  0  0
    0.5397   -1.1882    0.0000 C   0  0  0  0  0  0  0  0  0
   -0.1748   -0.7757    0.0000 C   0  0  0  0  0  0  0  0  0
   -0.8893   -1.1882    0.0000 C   0  0  0  0  0  0  0  0  0
   -1.6038   -0.7757    0.0000 C   0  0  0  0  0  0  0  0  0
   -8.0340   -2.0132    0.0000 C   0  0  0  0  0  0  0  0  0
   -8.7485   -2.4257    0.0000 C   0  0  0  0  0  0  0  0  0
   -9.4629   -2.0132    0.0000 C   0  0  0  0  0  0  0  0  0
   -9.4629   -1.1882    0.0000 C   0  0  0  0  0  0  0  0  0
  -10.1774   -0.7757    0.0000 Cl  0  0  0  0  0  0  0  0  0
  1  2  1  0  0  0  0
  2  3  4  0  0  0  0
  2 29  4  0  0  0  0
  3  4  1  0  0  0  0
  3 26  4  0  0  0  0
  4  5  1  0  0  0  0
  4  9  1  0  0  0  0
  5  6  1  0  0  0  0
  6  7  1  0  0  0  0
  7  8  1  0  0  0  0
  7 10  1  0  0  0  0
  8  9  1  0  0  0  0
 10 11  1  0  0  0  0
 11 12  1  0  0  0  0
 12 13  1  0  0  0  0
 13 14  1  0  0  0  0
 14 15  1  0  0  0  0
 15 16  4  0  0  0  0
 15 25  4  0  0  0  0
 16 17  4  0  0  0  0
 17 18  1  0  0  0  0
 17 23  4  0  0  0  0
 18 19  1  0  0  0  0
 19 20  2  0  0  0  0
 19 21  1  0  0  0  0
 21 22  1  0  0  0  0
 22 23  1  0  0  0  0
 23 24  4  0  0  0  0
 24 25  4  0  0  0  0
 26 27  4  0  0  0  0
 27 28  4  0  0  0  0
 28 29  4  0  0  0  0
 29 30  1  0  0  0  0
M  END
>  <Name_Molregno>
ARIPIPRAZOLE

>  <5-HT1A>
8.21

>  <5-HT1B>
6.08

>  <5-HT1D>
7.18

>  <5-HT1E>
5.1

>  <5-HT2A>
7.85

>  <5-HT2C>
7.48

>  <5-HT3>
6.25

>  <5-HT5>
5.91

>  <5-HT6>
6.32

>  <5-HT7>
7.81

>  <Alpha-1A>
7.59

>  <Alpha-1B>
7.46

>  <Alpha-2A>
7.13

>  <Alpha-2B>
6.99

>  <Alpha-2C>
7.42

>  <Beta-1>
6.85

>  <Beta-2>
6.79

>  <DOPAMINE D1>
6.06

>  <DOPAMINE D2>
8.72

>  <DOPAMINE D3>
8.45

>  <DOPAMINE D4>
6.51

>  <DOPAMINE D5>
5.69

>  <Dopamine transporter>
5.49

>  <HISTAMINE H1>
7.56

>  <HISTAMINE H2>
5

>  <HISTAMINE H4>
5

>  <Muscarinic acetylcholine receptor M1>
5.17

>  <Muscarinic acetylcholine receptor M2>
5.45

>  <Muscarinic acetylcholine receptor M3>
5.33

>  <Muscarinic acetylcholine receptor M4>
5.82

>  <Muscarinic acetylcholine receptor M5>
5.63

>  <Norepinephrine transporter>
5.68

>  <Serotonin transporter>
6.48

$$$$
ATR
  Marvin  02231216192D 0   1.00000     0.00000     0

 21 23  0  0  1  0  0  0  0  0999 V2000
    1.2790    0.7485    0.0000 O   0  0  0  0  0  0  0  0  0
    0.8658    0.0345    0.0000 C   0  0  0  0  0  0  0  0  0
    0.0408    0.0353    0.0000 O   0  0  0  0  0  0  0  0  0
    1.2776   -0.6804    0.0000 C   0  0  0  0  0  0  0  0  0
    2.1026   -0.6812    0.0000 C   0  0  0  0  0  0  0  0  0
    2.5144   -1.3961    0.0000 O   0  0  0  0  0  0  0  0  0
    0.8644   -1.3945    0.0000 C   0  0  0  0  0  0  0  0  0
    1.2762   -2.1093    0.0000 C   0  0  0  0  0  0  0  0  0
    0.8630   -2.8234    0.0000 C   0  0  0  0  0  0  0  0  0
    0.0380   -2.8226    0.0000 C   0  0  0  0  0  0  0  0  0
   -0.3738   -2.1077    0.0000 C   0  0  0  0  0  0  0  0  0
    0.0394   -1.3937    0.0000 C   0  0  0  0  0  0  0  0  0
    0.8672    1.4634    0.0000 C   0  0  0  0  0  0  0  0  0
    0.7290    2.2808    0.0000 C   0  0  0  0  0  0  0  0  0
   -0.1998    2.2653    0.0000 C   0  0  0  0  0  0  0  0  0
   -0.7604    2.7052    0.0000 N   0  0  0  0  0  0  0  0  0
   -0.6207    1.8921    0.0000 C   0  0  0  0  0  0  0  0  0
    0.3510    1.8921    0.0000 C   0  0  0  0  0  0  0  0  0
   -1.1406    1.1798    0.0000 C   0  0  0  0  0  0  0  0  0
   -0.5203    1.5567    0.0000 C   0  0  0  0  0  0  0  0  0
   -1.1830    3.4137    0.0000 C   0  0  0  0  0  0  0  0  0
  1  2  1  0  0  0  0
  1 13  1  0  0  0  0
  2  3  2  0  0  0  0
  2  4  1  0  0  0  0
  4  5  1  0  0  0  0
  4  7  1  0  0  0  0
  5  6  1  0  0  0  0
  7  8  4  0  0  0  0
  7 12  4  0  0  0  0
  8  9  4  0  0  0  0
  9 10  4  0  0  0  0
 10 11  4  0  0  0  0
 11 12  4  0  0  0  0
 13 14  1  0  0  0  0
 13 18  1  0  0  0  0
 14 15  1  0  0  0  0
 15 16  1  0  0  0  0
 15 20  1  0  0  0  0
 16 17  1  0  0  0  0
 16 21  1  0  0  0  0
 17 18  1  0  0  0  0
 17 19  1  0  0  0  0
 19 20  1  0  0  0  0
M  END
>  <Name_Molregno>
ATR

>  <5-HT2A>
5.15

>  <5-HT3>
5

>  <HISTAMINE H1>
5.86

>  <Muscarinic acetylcholine receptor M1>
9.33

>  <Muscarinic acetylcholine receptor M2>
8.97

>  <Muscarinic acetylcholine receptor M3>
9.48

>  <Muscarinic acetylcholine receptor M4>
9.4

>  <Muscarinic acetylcholine receptor M5>
9.33

$$$$
BRL43694
  Marvin  02231216192D 0   1.00000     0.00000     0

 23 26  0  0  1  0  0  0  0  0999 V2000
   -0.4999   -0.5311    0.0000 O   0  0  0  0  0  0  0  0  0
   -0.2449   -1.3157    0.0000 C   0  0  0  0  0  0  0  0  0
   -0.7970   -1.9288    0.0000 N   0  0  0  0  0  0  0  0  0
   -1.6040   -1.7572    0.0000 C   0  0  0  0  0  0  0  0  0
   -2.4070   -1.8768    0.0000 C   0  0  0  0  0  0  0  0  0
   -2.6834   -1.0004    0.0000 C   0  0  0  0  0  0  0  0  0
   -3.2643   -0.6068    0.0000 N   0  0  0  0  0  0  0  0  0
   -2.4584   -0.4908    0.0000 C   0  0  0  0  0  0  0  0  0
   -2.1601   -1.4033    0.0000 C   0  0  0  0  0  0  0  0  0
   -1.5311   -0.1498    0.0000 C   0  0  0  0  0  0  0  0  0
   -1.1149   -0.8746    0.0000 C   0  0  0  0  0  0  0  0  0
   -1.7927   -0.6558    0.0000 C   0  0  0  0  0  0  0  0  0
   -4.0683   -0.4217    0.0000 C   0  0  0  0  0  0  0  0  0
    0.5620   -1.4872    0.0000 C   0  0  0  0  0  0  0  0  0
    0.8976   -2.2409    0.0000 N   0  0  0  0  0  0  0  0  0
    1.7181   -2.1546    0.0000 N   0  0  0  0  0  0  0  0  0
    1.8896   -1.3477    0.0000 C   0  0  0  0  0  0  0  0  0
    1.1751   -0.9352    0.0000 C   0  0  0  0  0  0  0  0  0
    1.1751   -0.1102    0.0000 C   0  0  0  0  0  0  0  0  0
    1.8896    0.3023    0.0000 C   0  0  0  0  0  0  0  0  0
    2.6041   -0.1102    0.0000 C   0  0  0  0  0  0  0  0  0
    2.6041   -0.9352    0.0000 C   0  0  0  0  0  0  0  0  0
    2.2701   -2.7677    0.0000 C   0  0  0  0  0  0  0  0  0
  1  2  2  0  0  0  0
  2  3  1  0  0  0  0
  2 14  1  0  0  0  0
  3  4  1  0  0  0  0
  4  5  1  0  0  0  0
  4  9  1  0  0  0  0
  5  6  1  0  0  0  0
  6  7  1  0  0  0  0
  6 12  1  0  0  0  0
  7  8  1  0  0  0  0
  7 13  1  0  0  0  0
  8  9  1  0  0  0  0
  8 10  1  0  0  0  0
 10 11  1  0  0  0  0
 11 12  1  0  0  0  0
 14 15  4  0  0  0  0
 14 18  4  0  0  0  0
 15 16  4  0  0  0  0
 16 17  4  0  0  0  0
 16 23  1  0  0  0  0
 17 18  4  0  0  0  0
 17 22  4  0  0  0  0
 18 19  4  0  0  0  0
 19 20  4  0  0  0  0
 20 21  4  0  0  0  0
 21 22  4  0  0  0  0
M  END
>  <Name_Molregno>
BRL43694

>  <5-HT3>
8.69

$$$$
Cathinone
  Marvin  02231216192D 0   1.00000     0.00000     0

 11 11  0  0  1  0  0  0  0  0999 V2000
    1.9974    0.2298    0.0000 O   0  0  0  0  0  0  0  0  0
    1.2829   -0.1827    0.0000 C   0  0  0  0  0  0  0  0  0
    0.5684    0.2298    0.0000 C   0  0  0  0  0  0  0  0  0
    0.5684    1.0548    0.0000 N   0  0  0  0  0  0  0  0  0
   -0.1461   -0.1827    0.0000 C   0  0  0  0  0  0  0  0  0
    1.2829   -1.0077    0.0000 C   0  0  0  0  0  0  0  0  0
    1.9974   -1.4202    0.0000 C   0  0  0  0  0  0  0  0  0
    1.9974   -2.2452    0.0000 C   0  0  0  0  0  0  0  0  0
    1.2829   -2.6577    0.0000 C   0  0  0  0  0  0  0  0  0
    0.5684   -2.2452    0.0000 C   0  0  0  0  0  0  0  0  0
    0.5684   -1.4202    0.0000 C   0  0  0  0  0  0  0  0  0
  1  2  2  0  0  0  0
  2  3  1  0  0  0  0
  2  6  1  0  0  0  0
  3  4  1  0  0  0  0
  3  5  1  0  0  0  0
  6  7  4  0  0  0  0
  6 11  4  0  0  0  0
  7  8  4  0  0  0  0
  8  9  4  0  0  0  0
  9 10  4  0  0  0  0
 10 11  4  0  0  0  0
M  END
>  <Name_Molregno>
Cathinone

>  <5-HT1A>
5

>  <5-HT1B>
5

>  <5-HT1D>
5

>  <5-HT1E>
5

>  <5-HT3>
5

>  <5-HT5>
5

>  <5-HT6>
5

>  <5-HT7>
5.57

>  <Alpha-1A>
5

>  <Alpha-1B>
5

>  <Alpha-2A>
5.17

>  <Alpha-2B>
6.04

>  <Alpha-2C>
6.12

>  <Beta-1>
5

>  <Beta-2>
5

>  <DOPAMINE D1>
5

>  <DOPAMINE D2>
5

>  <DOPAMINE D4>
5

>  <DOPAMINE D5>
5

>  <Dopamine transporter>
6.37

>  <HISTAMINE H1>
5

>  <HISTAMINE H2>
5

>  <HISTAMINE H4>
5

>  <Muscarinic acetylcholine receptor M1>
5

>  <Muscarinic acetylcholine receptor M2>
5

>  <Muscarinic acetylcholine receptor M3>
5

>  <Muscarinic acetylcholine receptor M4>
5

>  <Muscarinic acetylcholine receptor M5>
5

>  <Norepinephrine transporter>
6.76

>  <Serotonin transporter>
5.32

$$$$
CELECOXIB
  Marvin  02231216192D 0   1.00000     0.00000     0

 26 28  0  0  0  0  0  0  0  0999 V2000
   -2.2304    2.3034    0.0000 S   0  0  0  0  0  0  0  0  0
   -2.2304    3.1284    0.0000 O   0  0  0  0  0  0  0  0  0
   -3.0554    2.3034    0.0000 O   0  0  0  0  0  0  0  0  0
   -1.4054    2.3034    0.0000 N   0  0  0  0  0  0  0  0  0
   -2.2304    1.4784    0.0000 C   0  0  0  0  0  0  0  0  0
   -1.5159    1.0659    0.0000 C   0  0  0  0  0  0  0  0  0
   -1.5159    0.2409    0.0000 C   0  0  0  0  0  0  0  0  0
   -2.2304   -0.1716    0.0000 C   0  0  0  0  0  0  0  0  0
   -2.2304   -0.9966    0.0000 N   0  0  0  0  0  0  0  0  0
   -1.5629   -1.4815    0.0000 N   0  0  0  0  0  0  0  0  0
   -1.8179   -2.2662    0.0000 C   0  0  0  0  0  0  0  0  0
   -2.6429   -2.2662    0.0000 C   0  0  0  0  0  0  0  0  0
   -2.8978   -1.4815    0.0000 C   0  0  0  0  0  0  0  0  0
   -3.6824   -1.2266    0.0000 C   0  0  0  0  0  0  0  0  0
   -4.2955   -1.7786    0.0000 C   0  0  0  0  0  0  0  0  0
   -5.0802   -1.5237    0.0000 C   0  0  0  0  0  0  0  0  0
   -5.2517   -0.7167    0.0000 C   0  0  0  0  0  0  0  0  0
   -4.6386   -0.1647    0.0000 C   0  0  0  0  0  0  0  0  0
   -3.8540   -0.4196    0.0000 C   0  0  0  0  0  0  0  0  0
   -6.0363   -0.4618    0.0000 C   0  0  0  0  0  0  0  0  0
   -1.3330   -2.9336    0.0000 C   0  0  0  0  0  0  0  0  0
   -0.8480   -3.6010    0.0000 F   0  0  0  0  0  0  0  0  0
   -2.0004   -3.4185    0.0000 F   0  0  0  0  0  0  0  0  0
   -0.6655   -2.4487    0.0000 F   0  0  0  0  0  0  0  0  0
   -2.9448    0.2409    0.0000 C   0  0  0  0  0  0  0  0  0
   -2.9448    1.0659    0.0000 C   0  0  0  0  0  0  0  0  0
  1  2  2  0  0  0  0
  1  3  2  0  0  0  0
  1  4  1  0  0  0  0
  1  5  1  0  0  0  0
  5  6  4  0  0  0  0
  5 26  4  0  0  0  0
  6  7  4  0  0  0  0
  7  8  4  0  0  0  0
  8  9  1  0  0  0  0
  8 25  4  0  0  0  0
  9 10  4  0  0  0  0
  9 13  4  0  0  0  0
 10 11  4  0  0  0  0
 11 12  4  0  0  0  0
 11 21  1  0  0  0  0
 12 13  4  0  0  0  0
 13 14  1  0  0  0  0
 14 15  4  0  0  0  0
 14 19  4  0  0  0  0
 15 16  4  0  0  0  0
 16 17  4  0  0  0  0
 17 18  4  0  0  0  0
 17 20  1  0  0  0  0
 18 19  4  0  0  0  0
 21 22  1  0  0  0  0
 21 23  1  0  0  0  0
 21 24  1  0  0  0  0
 25 26  4  0  0  0  0
M  END
>  <Name_Molregno>
CELECOXIB

>  <5-HT1A>
5

>  <5-HT1B>
5

>  <5-HT1D>
5

>  <5-HT1E>
5

>  <5-HT2A>
5

>  <5-HT3>
5

>  <5-HT6>
5

>  <5-HT7>
5

>  <Alpha-1A>
5

>  <Alpha-1B>
5

>  <Alpha-2A>
5

>  <Alpha-2B>
5

>  <Alpha-2C>
5

>  <DOPAMINE D1>
5

>  <DOPAMINE D2>
5

>  <DOPAMINE D4>
5

>  <DOPAMINE D5>
5

>  <Dopamine transporter>
6.18

>  <HISTAMINE H1>
5

>  <HISTAMINE H2>
5

>  <Muscarinic acetylcholine receptor M2>
5

>  <Muscarinic acetylcholine receptor M5>
5

>  <Norepinephrine transporter>
5

>  <Serotonin transporter>
5

$$$$
CHLOROPHENYLPIPERAZINE
  Marvin  02231216192D 0   1.00000     0.00000     0

 13 14  0  0  0  0  0  0  0  0999 V2000
    1.2605    1.9269    0.0000 Cl  0  0  0  0  0  0  0  0  0
    1.2605    1.1019    0.0000 C   0  0  0  0  0  0  0  0  0
    1.9750    0.6894    0.0000 C   0  0  0  0  0  0  0  0  0
    1.9750   -0.1356    0.0000 C   0  0  0  0  0  0  0  0  0
    2.6894   -0.5481    0.0000 N   0  0  0  0  0  0  0  0  0
    3.4039   -0.1356    0.0000 C   0  0  0  0  0  0  0  0  0
    4.1184   -0.5481    0.0000 C   0  0  0  0  0  0  0  0  0
    4.1184   -1.3731    0.0000 N   0  0  0  0  0  0  0  0  0
    3.4039   -1.7856    0.0000 C   0  0  0  0  0  0  0  0  0
    2.6894   -1.3731    0.0000 C   0  0  0  0  0  0  0  0  0
    1.2605   -0.5481    0.0000 C   0  0  0  0  0  0  0  0  0
    0.5460   -0.1356    0.0000 C   0  0  0  0  0  0  0  0  0
    0.5460    0.6894    0.0000 C   0  0  0  0  0  0  0  0  0
  1  2  1  0  0  0  0
  2  3  4  0  0  0  0
  2 13  4  0  0  0  0
  3  4  4  0  0  0  0
  4  5  1  0  0  0  0
  4 11  4  0  0  0  0
  5  6  1  0  0  0  0
  5 10  1  0  0  0  0
  6  7  1  0  0  0  0
  7  8  1  0  0  0  0
  8  9  1  0  0  0  0
  9 10  1  0  0  0  0
 11 12  4  0  0  0  0
 12 13  4  0  0  0  0
M  END
>  <Name_Molregno>
CHLOROPHENYLPIPERAZINE

>  <5-HT1A>
6.88

>  <5-HT1B>
6.72

>  <5-HT1D>
6.23

>  <5-HT2A>
7.01

>  <5-HT2C>
7.55

>  <5-HT3>
6.37

>  <5-HT5>
5.87

>  <5-HT6>
5.7

>  <5-HT7>
6.79

>  <Alpha-1A>
5.86

>  <Alpha-1B>
6.04

>  <Alpha-2A>
6.84

>  <Alpha-2B>
6.98

>  <Alpha-2C>
6.91

>  <Beta-1>
5.63

>  <Beta-2>
5.46

>  <DOPAMINE D1>
5.15

>  <DOPAMINE D2>
5

>  <DOPAMINE D5>
5

>  <HISTAMINE H1>
6.49

>  <Norepinephrine transporter>
5.36

>  <Serotonin transporter>
6.13

$$$$
CHLORPROMAZINE
  Marvin  02231216192D 0   1.00000     0.00000     0

 21 23  0  0  0  0  0  0  0  0999 V2000
   -1.3730   -3.5598    0.0000 Cl  0  0  0  0  0  0  0  0  0
   -2.0875   -3.1473    0.0000 C   0  0  0  0  0  0  0  0  0
   -2.0875   -2.3223    0.0000 C   0  0  0  0  0  0  0  0  0
   -2.8019   -1.9098    0.0000 C   0  0  0  0  0  0  0  0  0
   -2.8019   -1.0848    0.0000 N   0  0  0  0  0  0  0  0  0
   -3.5164   -0.6723    0.0000 C   0  0  0  0  0  0  0  0  0
   -4.2309   -1.0848    0.0000 C   0  0  0  0  0  0  0  0  0
   -4.2309   -1.9098    0.0000 S   0  0  0  0  0  0  0  0  0
   -3.5164   -2.3223    0.0000 C   0  0  0  0  0  0  0  0  0
   -3.5164   -3.1473    0.0000 C   0  0  0  0  0  0  0  0  0
   -2.8019   -3.5598    0.0000 C   0  0  0  0  0  0  0  0  0
   -4.9453   -0.6723    0.0000 C   0  0  0  0  0  0  0  0  0
   -4.9453    0.1527    0.0000 C   0  0  0  0  0  0  0  0  0
   -4.2309    0.5652    0.0000 C   0  0  0  0  0  0  0  0  0
   -3.5164    0.1527    0.0000 C   0  0  0  0  0  0  0  0  0
   -2.0875   -0.6723    0.0000 C   0  0  0  0  0  0  0  0  0
   -1.3730   -1.0848    0.0000 C   0  0  0  0  0  0  0  0  0
   -0.6585   -0.6723    0.0000 C   0  0  0  0  0  0  0  0  0
    0.0560   -1.0848    0.0000 N   0  0  0  0  0  0  0  0  0
    0.7704   -0.6723    0.0000 C   0  0  0  0  0  0  0  0  0
    0.0560   -1.9098    0.0000 C   0  0  0  0  0  0  0  0  0
  1  2  1  0  0  0  0
  2  3  4  0  0  0  0
  2 11  4  0  0  0  0
  3  4  4  0  0  0  0
  4  5  1  0  0  0  0
  4  9  4  0  0  0  0
  5  6  1  0  0  0  0
  5 16  1  0  0  0  0
  6  7  4  0  0  0  0
  6 15  4  0  0  0  0
  7  8  1  0  0  0  0
  7 12  4  0  0  0  0
  8  9  1  0  0  0  0
  9 10  4  0  0  0  0
 10 11  4  0  0  0  0
 12 13  4  0  0  0  0
 13 14  4  0  0  0  0
 14 15  4  0  0  0  0
 16 17  1  0  0  0  0
 17 18  1  0  0  0  0
 18 19  1  0  0  0  0
 19 20  1  0  0  0  0
 19 21  1  0  0  0  0
M  END
>  <Name_Molregno>
CHLORPROMAZINE

>  <5-HT1A>
5.98

>  <5-HT1B>
5.83

>  <5-HT1D>
6.34

>  <5-HT1E>
6.46

>  <5-HT2A>
8.36

>  <5-HT2C>
7.74

>  <5-HT3>
6.01

>  <5-HT5>
6.93

>  <5-HT6>
7.59

>  <5-HT7>
7.54

>  <Alpha-1A>
9.55

>  <Alpha-1B>
9.09

>  <Alpha-2A>
6.71

>  <Alpha-2B>
7.81

>  <Alpha-2C>
7.36

>  <Beta-1>
5

>  <Beta-2>
5

>  <DOPAMINE D1>
7.1

>  <DOPAMINE D2>
8.51

>  <DOPAMINE D3>
8.58

>  <DOPAMINE D4>
8.03

>  <DOPAMINE D5>
6.82

>  <Dopamine transporter>
5

>  <HISTAMINE H1>
8.47

>  <HISTAMINE H2>
6.76

>  <HISTAMINE H3>
6

>  <HISTAMINE H4>
6.3

>  <Muscarinic acetylcholine receptor M1>
7.36

>  <Muscarinic acetylcholine receptor M2>
6.67

>  <Muscarinic acetylcholine receptor M3>
7.25

>  <Muscarinic acetylcholine receptor M4>
7.11

>  <Muscarinic acetylcholine receptor M5>
7.5

>  <Norepinephrine transporter>
5.61

>  <Serotonin transporter>
6.54

$$$$
cis-Thiothixene
  Marvin  02231216192D 0   1.00000     0.00000     0

 30 33  0  0  0  0  0  0  0  0999 V2000
    1.0940   -3.6931    0.0000 S   0  0  0  0  0  0  0  0  0
    1.8085   -3.2806    0.0000 C   0  0  0  0  0  0  0  0  0
    1.8085   -2.4556    0.0000 C   0  0  0  0  0  0  0  0  0
    2.5230   -2.0431    0.0000 C   0  0  0  0  0  0  0  0  0
    3.2375   -2.4556    0.0000 C   0  0  0  0  0  0  0  0  0
    3.9519   -2.0431    0.0000 S   0  0  0  0  0  0  0  0  0
    3.5394   -1.3286    0.0000 O   0  0  0  0  0  0  0  0  0
    4.3644   -2.7575    0.0000 O   0  0  0  0  0  0  0  0  0
    4.6664   -1.6306    0.0000 N   0  0  0  0  0  0  0  0  0
    5.3809   -2.0431    0.0000 C   0  0  0  0  0  0  0  0  0
    4.6664   -0.8056    0.0000 C   0  0  0  0  0  0  0  0  0
    3.2375   -3.2806    0.0000 C   0  0  0  0  0  0  0  0  0
    2.5230   -3.6931    0.0000 C   0  0  0  0  0  0  0  0  0
    1.0940   -2.0431    0.0000 C   0  0  0  0  0  0  0  0  0
    0.3796   -2.4556    0.0000 C   0  0  0  0  0  0  0  0  0
    0.3796   -3.2806    0.0000 C   0  0  0  0  0  0  0  0  0
   -0.3349   -3.6931    0.0000 C   0  0  0  0  0  0  0  0  0
   -1.0494   -3.2806    0.0000 C   0  0  0  0  0  0  0  0  0
   -1.0494   -2.4556    0.0000 C   0  0  0  0  0  0  0  0  0
   -0.3349   -2.0431    0.0000 C   0  0  0  0  0  0  0  0  0
    1.0940   -1.2181    0.0000 C   0  0  0  0  0  0  0  0  0
    0.3796   -0.8056    0.0000 C   0  0  0  0  0  0  0  0  0
   -0.3349   -1.2181    0.0000 C   0  0  0  0  0  0  0  0  0
   -1.0494   -0.8056    0.0000 N   0  0  0  0  0  0  0  0  0
   -1.7638   -1.2181    0.0000 C   0  0  0  0  0  0  0  0  0
   -2.4783   -0.8056    0.0000 C   0  0  0  0  0  0  0  0  0
   -2.4783    0.0194    0.0000 N   0  0  0  0  0  0  0  0  0
   -1.7638    0.4319    0.0000 C   0  0  0  0  0  0  0  0  0
   -1.0494    0.0194    0.0000 C   0  0  0  0  0  0  0  0  0
   -3.1928    0.4319    0.0000 C   0  0  0  0  0  0  0  0  0
  1  2  1  0  0  0  0
  1 16  1  0  0  0  0
  2  3  4  0  0  0  0
  2 13  4  0  0  0  0
  3  4  4  0  0  0  0
  3 14  1  0  0  0  0
  4  5  4  0  0  0  0
  5  6  1  0  0  0  0
  5 12  4  0  0  0  0
  6  7  2  0  0  0  0
  6  8  2  0  0  0  0
  6  9  1  0  0  0  0
  9 10  1  0  0  0  0
  9 11  1  0  0  0  0
 12 13  4  0  0  0  0
 14 15  1  0  0  0  0
 14 21  2  0  0  0  0
 15 16  4  0  0  0  0
 15 20  4  0  0  0  0
 16 17  4  0  0  0  0
 17 18  4  0  0  0  0
 18 19  4  0  0  0  0
 19 20  4  0  0  0  0
 21 22  1  0  0  0  0
 22 23  1  0  0  0  0
 23 24  1  0  0  0  0
 24 25  1  0  0  0  0
 24 29  1  0  0  0  0
 25 26  1  0  0  0  0
 26 27  1  0  0  0  0
 27 28  1  0  0  0  0
 27 30  1  0  0  0  0
 28 29  1  0  0  0  0
M  END
>  <Name_Molregno>
cis-Thiothixene

>  <5-HT1A>
6.39

>  <5-HT1B>
6.82

>  <5-HT1D>
6.18

>  <5-HT1E>
5

>  <5-HT2A>
7.42

>  <5-HT2C>
5.87

>  <5-HT3>
5.73

>  <5-HT5>
6.44

>  <5-HT6>
6.62

>  <5-HT7>
7.82

>  <Alpha-1A>
7.94

>  <Alpha-1B>
7.46

>  <Alpha-2A>
7.1

>  <Alpha-2B>
7.3

>  <Alpha-2C>
7.28

>  <Beta-1>
5

>  <Beta-2>
5

>  <DOPAMINE D1>
7.29

>  <DOPAMINE D2>
9.56

>  <DOPAMINE D3>
9.41

>  <DOPAMINE D4>
6.86

>  <DOPAMINE D5>
6.58

>  <Dopamine transporter>
5

>  <HISTAMINE H1>
8.23

>  <HISTAMINE H2>
6.39

>  <HISTAMINE H4>
5

>  <Muscarinic acetylcholine receptor M1>
5.3

>  <Muscarinic acetylcholine receptor M2>
5.34

>  <Muscarinic acetylcholine receptor M3>
5.27

>  <Muscarinic acetylcholine receptor M4>
5.4

>  <Muscarinic acetylcholine receptor M5>
5.32

>  <Norepinephrine transporter>
5

>  <Serotonin transporter>
5.41

$$$$
CLOZAPINE
  Marvin  02231216192D 0   1.00000     0.00000     0

 23 26  0  0  0  0  0  0  0  0999 V2000
   -0.5622   -2.2603    0.0000 Cl  0  0  0  0  0  0  0  0  0
    0.2262   -2.5035    0.0000 C   0  0  0  0  0  0  0  0  0
    0.8309   -1.9424    0.0000 C   0  0  0  0  0  0  0  0  0
    1.6193   -2.1855    0.0000 C   0  0  0  0  0  0  0  0  0
    2.1337   -1.5405    0.0000 N   0  0  0  0  0  0  0  0  0
    2.9587   -1.5405    0.0000 C   0  0  0  0  0  0  0  0  0
    3.3166   -0.7972    0.0000 N   0  0  0  0  0  0  0  0  0
    2.8519   -0.1156    0.0000 C   0  0  0  0  0  0  0  0  0
    3.2098    0.6277    0.0000 C   0  0  0  0  0  0  0  0  0
    4.0325    0.6894    0.0000 N   0  0  0  0  0  0  0  0  0
    4.4973    0.0077    0.0000 C   0  0  0  0  0  0  0  0  0
    4.1393   -0.7356    0.0000 C   0  0  0  0  0  0  0  0  0
    4.3905    1.4327    0.0000 C   0  0  0  0  0  0  0  0  0
    3.4730   -2.1855    0.0000 C   0  0  0  0  0  0  0  0  0
    3.2895   -2.9898    0.0000 C   0  0  0  0  0  0  0  0  0
    2.5462   -3.3478    0.0000 N   0  0  0  0  0  0  0  0  0
    1.8029   -2.9898    0.0000 C   0  0  0  0  0  0  0  0  0
    1.1981   -3.5510    0.0000 C   0  0  0  0  0  0  0  0  0
    0.4098   -3.3078    0.0000 C   0  0  0  0  0  0  0  0  0
    3.8942   -3.5510    0.0000 C   0  0  0  0  0  0  0  0  0
    4.6826   -3.3078    0.0000 C   0  0  0  0  0  0  0  0  0
    4.8662   -2.5035    0.0000 C   0  0  0  0  0  0  0  0  0
    4.2614   -1.9424    0.0000 C   0  0  0  0  0  0  0  0  0
  1  2  1  0  0  0  0
  2  3  4  0  0  0  0
  2 19  4  0  0  0  0
  3  4  4  0  0  0  0
  4  5  1  0  0  0  0
  4 17  4  0  0  0  0
  5  6  1  0  0  0  0
  6  7  1  0  0  0  0
  6 14  2  0  0  0  0
  7  8  1  0  0  0  0
  7 12  1  0  0  0  0
  8  9  1  0  0  0  0
  9 10  1  0  0  0  0
 10 11  1  0  0  0  0
 10 13  1  0  0  0  0
 11 12  1  0  0  0  0
 14 15  1  0  0  0  0
 14 23  1  0  0  0  0
 15 16  2  0  0  0  0
 15 20  1  0  0  0  0
 16 17  1  0  0  0  0
 17 18  4  0  0  0  0
 18 19  4  0  0  0  0
 20 21  2  0  0  0  0
 21 22  1  0  0  0  0
 22 23  2  0  0  0  0
M  END
>  <Name_Molregno>
CLOZAPINE

>  <5-HT1A>
6.88

>  <5-HT1B>
6.33

>  <5-HT1D>
6.27

>  <5-HT1E>
6.19

>  <5-HT2A>
8.22

>  <5-HT2C>
8

>  <5-HT3>
6.62

>  <5-HT5>
5.41

>  <5-HT6>
7.9

>  <5-HT7>
8.05

>  <Alpha-1A>
8.8

>  <Alpha-1B>
8.15

>  <Alpha-2A>
7.15

>  <Alpha-2B>
7.61

>  <Alpha-2C>
7.88

>  <Beta-1>
5.15

>  <Beta-2>
5.39

>  <DOPAMINE D1>
6.69

>  <DOPAMINE D2>
6.9

>  <DOPAMINE D3>
6.62

>  <DOPAMINE D4>
7.62

>  <DOPAMINE D5>
6.62

>  <Dopamine transporter>
5

>  <HISTAMINE H1>
8.81

>  <HISTAMINE H2>
6.82

>  <HISTAMINE H3>
5.25

>  <HISTAMINE H4>
6.15

>  <Muscarinic acetylcholine receptor M1>
8.26

>  <Muscarinic acetylcholine receptor M2>
7.17

>  <Muscarinic acetylcholine receptor M3>
7.59

>  <Muscarinic acetylcholine receptor M4>
7.85

>  <Muscarinic acetylcholine receptor M5>
7.79

>  <Norepinephrine transporter>
5.5

>  <Serotonin transporter>
5.73

$$$$
CLOZAPINE-2
  Marvin  02231216192D 0   1.00000     0.00000     0

 23 26  0  0  0  0  0  0  0  0999 V2000
   -0.5622   -2.2603    0.0000 Cl  0  0  0  0  0  0  0  0  0
    0.2262   -2.5035    0.0000 C   0  0  0  0  0  0  0  0  0
    0.8309   -1.9424    0.0000 C   0  0  0  0  0  0  0  0  0
    1.6193   -2.1855    0.0000 C   0  0  0  0  0  0  0  0  0
    2.1337   -1.5405    0.0000 N   0  0  0  0  0  0  0  0  0
    2.9587   -1.5405    0.0000 C   0  0  0  0  0  0  0  0  0
    3.3166   -0.7972    0.0000 N   0  0  0  0  0  0  0  0  0
    2.8519   -0.1156    0.0000 C   0  0  0  0  0  0  0  0  0
    3.2098    0.6277    0.0000 C   0  0  0  0  0  0  0  0  0
    4.0325    0.6894    0.0000 N   0  0  0  0  0  0  0  0  0
    4.4973    0.0077    0.0000 C   0  0  0  0  0  0  0  0  0
    4.1393   -0.7356    0.0000 C   0  0  0  0  0  0  0  0  0
    4.3905    1.4327    0.0000 C   0  0  0  0  0  0  0  0  0
    3.4730   -2.1855    0.0000 C   0  0  0  0  0  0  0  0  0
    3.2895   -2.9898    0.0000 C   0  0  0  0  0  0  0  0  0
    2.5462   -3.3478    0.0000 N   0  0  0  0  0  0  0  0  0
    1.8029   -2.9898    0.0000 C   0  0  0  0  0  0  0  0  0
    1.1981   -3.5510    0.0000 C   0  0  0  0  0  0  0  0  0
    0.4098   -3.3078    0.0000 C   0  0  0  0  0  0  0  0  0
    3.8942   -3.5510    0.0000 C   0  0  0  0  0  0  0  0  0
    4.6826   -3.3078    0.0000 C   0  0  0  0  0  0  0  0  0
    4.8662   -2.5035    0.0000 C   0  0  0  0  0  0  0  0  0
    4.2614   -1.9424    0.0000 C   0  0  0  0  0  0  0  0  0
  1  2  1  0  0  0  0
  2  3  4  0  0  0  0
  2 19  4  0  0  0  0
  3  4  4  0  0  0  0
  4  5  1  0  0  0  0
  4 17  4  0  0  0  0
  5  6  2  0  0  0  0
  6  7  1  0  0  0  0
  6 14  1  0  0  0  0
  7  8  1  0  0  0  0
  7 12  1  0  0  0  0
  8  9  1  0  0  0  0
  9 10  1  0  0  0  0
 10 11  1  0  0  0  0
 10 13  1  0  0  0  0
 11 12  1  0  0  0  0
 14 15  4  0  0  0  0
 14 23  4  0  0  0  0
 15 16  1  0  0  0  0
 15 20  4  0  0  0  0
 16 17  1  0  0  0  0
 17 18  4  0  0  0  0
 18 19  4  0  0  0  0
 20 21  4  0  0  0  0
 21 22  4  0  0  0  0
 22 23  4  0  0  0  0
M  END
>  <Name_Molregno>
CLOZAPINE-2

>  <5-HT1A>
6.92

>  <5-HT2A>
8.15

>  <5-HT2C>
7.92

>  <5-HT3>
6.4

>  <5-HT5>
6

>  <5-HT6>
7.85

>  <5-HT7>
7.47

>  <Alpha-2A>
7.62

>  <Alpha-2C>
8.54

>  <DOPAMINE D1>
7

>  <DOPAMINE D2>
7.03

>  <DOPAMINE D3>
6.48

>  <DOPAMINE D4>
7.6

>  <DOPAMINE D5>
6.7

>  <HISTAMINE H1>
8.77

>  <HISTAMINE H3>
6.1

>  <HISTAMINE H4>
6.75

>  <Muscarinic acetylcholine receptor M1>
8.47

>  <Muscarinic acetylcholine receptor M4>
7.9

>  <Serotonin transporter>
5.41

$$$$
Cyamemazine
  Marvin  02231216192D 0   1.00000     0.00000     0

 23 25  0  0  1  0  0  0  0  0999 V2000
   -0.6214   -0.6088    0.0000 S   0  0  0  0  0  0  0  0  0
   -0.6214   -1.4338    0.0000 C   0  0  0  0  0  0  0  0  0
    0.0931   -1.8463    0.0000 C   0  0  0  0  0  0  0  0  0
    0.8076   -1.4338    0.0000 N   0  0  0  0  0  0  0  0  0
    0.8076   -0.6088    0.0000 C   0  0  0  0  0  0  0  0  0
    0.0931   -0.1963    0.0000 C   0  0  0  0  0  0  0  0  0
    0.0931    0.6287    0.0000 C   0  0  0  0  0  0  0  0  0
    0.8076    1.0412    0.0000 C   0  0  0  0  0  0  0  0  0
    1.5220    0.6287    0.0000 C   0  0  0  0  0  0  0  0  0
    1.5220   -0.1963    0.0000 C   0  0  0  0  0  0  0  0  0
    1.5220   -1.8463    0.0000 C   0  0  0  0  0  0  0  0  0
    2.2365   -1.4338    0.0000 C   0  0  0  0  0  0  0  0  0
    2.9510   -1.8463    0.0000 C   0  0  0  0  0  0  0  0  0
    3.6655   -1.4338    0.0000 N   0  0  0  0  0  0  0  0  0
    4.3799   -1.8463    0.0000 C   0  0  0  0  0  0  0  0  0
    3.6655   -0.6088    0.0000 C   0  0  0  0  0  0  0  0  0
    2.2365   -0.6088    0.0000 C   0  0  0  0  0  0  0  0  0
    0.0931   -2.6713    0.0000 C   0  0  0  0  0  0  0  0  0
   -0.6214   -3.0838    0.0000 C   0  0  0  0  0  0  0  0  0
   -1.3358   -2.6713    0.0000 C   0  0  0  0  0  0  0  0  0
   -1.3358   -1.8463    0.0000 C   0  0  0  0  0  0  0  0  0
   -0.6214   -3.9088    0.0000 C   0  0  0  0  0  0  0  0  0
   -0.6214   -4.7338    0.0000 N   0  0  0  0  0  0  0  0  0
  1  2  1  0  0  0  0
  1  6  1  0  0  0  0
  2  3  4  0  0  0  0
  2 21  4  0  0  0  0
  3  4  1  0  0  0  0
  3 18  4  0  0  0  0
  4  5  1  0  0  0  0
  4 11  1  0  0  0  0
  5  6  4  0  0  0  0
  5 10  4  0  0  0  0
  6  7  4  0  0  0  0
  7  8  4  0  0  0  0
  8  9  4  0  0  0  0
  9 10  4  0  0  0  0
 11 12  1  0  0  0  0
 12 13  1  0  0  0  0
 12 17  1  0  0  0  0
 13 14  1  0  0  0  0
 14 15  1  0  0  0  0
 14 16  1  0  0  0  0
 18 19  4  0  0  0  0
 19 20  4  0  0  0  0
 19 22  1  0  0  0  0
 20 21  4  0  0  0  0
 22 23  3  0  0  0  0
M  END
>  <Name_Molregno>
Cyamemazine

>  <5-HT1A>
6.29

>  <5-HT2A>
8.82

>  <5-HT2C>
7.92

>  <5-HT3>
5.53

>  <5-HT7>
7.66

>  <DOPAMINE D1>
8.42

>  <DOPAMINE D2>
8.24

>  <DOPAMINE D3>
8.6

>  <DOPAMINE D4>
8.28

>  <Muscarinic acetylcholine receptor M1>
7.89

>  <Muscarinic acetylcholine receptor M2>
7.38

>  <Muscarinic acetylcholine receptor M3>
7.49

>  <Muscarinic acetylcholine receptor M4>
7.92

>  <Muscarinic acetylcholine receptor M5>
7.46

$$$$
D-cystine
  Marvin  02231216192D 0   1.00000     0.00000     0

 14 13  0  0  1  0  0  0  0  0999 V2000
    0.5597    0.5534    0.0000 S   0  0  0  0  0  0  0  0  0
   -0.1548    0.1409    0.0000 S   0  0  0  0  0  0  0  0  0
   -0.8693    0.5534    0.0000 C   0  0  0  0  0  0  0  0  0
   -1.5838    0.1409    0.0000 C   0  0  0  0  0  0  0  0  0
   -1.5838   -0.6841    0.0000 N   0  0  0  0  0  0  0  0  0
   -2.2982    0.5534    0.0000 C   0  0  0  0  0  0  0  0  0
   -3.0127    0.1409    0.0000 O   0  0  0  0  0  0  0  0  0
   -2.2982    1.3784    0.0000 O   0  0  0  0  0  0  0  0  0
    1.2741    0.1409    0.0000 C   0  0  0  0  0  0  0  0  0
    1.9886    0.5534    0.0000 C   0  0  0  0  0  0  0  0  0
    1.9886    1.3784    0.0000 N   0  0  0  0  0  0  0  0  0
    2.7031    0.1409    0.0000 C   0  0  0  0  0  0  0  0  0
    3.4175    0.5534    0.0000 O   0  0  0  0  0  0  0  0  0
    2.7031   -0.6841    0.0000 O   0  0  0  0  0  0  0  0  0
  1  2  1  0  0  0  0
  1  9  1  0  0  0  0
  2  3  1  0  0  0  0
  3  4  1  0  0  0  0
  4  5  1  0  0  0  0
  4  6  1  0  0  0  0
  6  7  1  0  0  0  0
  6  8  2  0  0  0  0
  9 10  1  0  0  0  0
 10 11  1  0  0  0  0
 10 12  1  0  0  0  0
 12 13  1  0  0  0  0
 12 14  2  0  0  0  0
M  END
>  <Name_Molregno>
D-cystine

>  <5-HT1A>
5

>  <5-HT1B>
5

>  <5-HT1D>
5

>  <5-HT3>
5

>  <5-HT5>
5

>  <5-HT6>
5

>  <5-HT7>
5

>  <Alpha-1A>
5

>  <Alpha-1B>
5

>  <Alpha-2A>
5

>  <Alpha-2B>
5

>  <Alpha-2C>
5

>  <DOPAMINE D1>
5

>  <DOPAMINE D2>
5

>  <DOPAMINE D3>
5

>  <DOPAMINE D5>
5

>  <Dopamine transporter>
5

>  <HISTAMINE H1>
5

>  <HISTAMINE H2>
5

>  <HISTAMINE H4>
5

>  <Muscarinic acetylcholine receptor M1>
5

>  <Muscarinic acetylcholine receptor M2>
5

>  <Muscarinic acetylcholine receptor M3>
5

>  <Muscarinic acetylcholine receptor M4>
5

>  <Muscarinic acetylcholine receptor M5>
5

>  <Norepinephrine transporter>
5

>  <Serotonin transporter>
5

$$$$
d-Fenfluramine
  Marvin  02231216192D 0   1.00000     0.00000     0

 16 16  0  0  1  0  0  0  0  0999 V2000
   -5.1694    0.5172    0.0000 F   0  0  0  0  0  0  0  0  0
   -4.4549    0.1047    0.0000 C   0  0  0  0  0  0  0  0  0
   -4.8674   -0.6097    0.0000 F   0  0  0  0  0  0  0  0  0
   -4.0424    0.8192    0.0000 F   0  0  0  0  0  0  0  0  0
   -3.7405   -0.3078    0.0000 C   0  0  0  0  0  0  0  0  0
   -3.0260    0.1047    0.0000 C   0  0  0  0  0  0  0  0  0
   -2.3115   -0.3078    0.0000 C   0  0  0  0  0  0  0  0  0
   -2.3115   -1.1328    0.0000 C   0  0  0  0  0  0  0  0  0
   -3.0260   -1.5453    0.0000 C   0  0  0  0  0  0  0  0  0
   -3.7405   -1.1328    0.0000 C   0  0  0  0  0  0  0  0  0
   -1.5971    0.1047    0.0000 C   0  0  0  0  0  0  0  0  0
   -0.8826   -0.3078    0.0000 C   0  0  0  0  0  0  0  0  0
   -0.1681    0.1047    0.0000 N   0  0  0  0  0  0  0  0  0
    0.5464   -0.3078    0.0000 C   0  0  0  0  0  0  0  0  0
    1.2608    0.1047    0.0000 C   0  0  0  0  0  0  0  0  0
   -0.8826   -1.1328    0.0000 C   0  0  0  0  0  0  0  0  0
  1  2  1  0  0  0  0
  2  3  1  0  0  0  0
  2  4  1  0  0  0  0
  2  5  1  0  0  0  0
  5  6  4  0  0  0  0
  5 10  4  0  0  0  0
  6  7  4  0  0  0  0
  7  8  4  0  0  0  0
  7 11  1  0  0  0  0
  8  9  4  0  0  0  0
  9 10  4  0  0  0  0
 11 12  1  0  0  0  0
 12 13  1  0  0  0  0
 12 16  1  0  0  0  0
 13 14  1  0  0  0  0
 14 15  1  0  0  0  0
M  END
>  <Name_Molregno>
d-Fenfluramine

>  <5-HT1A>
6.11

>  <5-HT1B>
5.67

>  <5-HT1D>
5.79

>  <5-HT1E>
5

>  <5-HT2A>
5.92

>  <5-HT2C>
6.27

>  <5-HT3>
5

>  <5-HT5>
5

>  <5-HT6>
5.01

>  <5-HT7>
5.17

>  <Alpha-1A>
5.52

>  <Alpha-1B>
5.62

>  <Alpha-2A>
6.26

>  <Alpha-2B>
6.65

>  <Alpha-2C>
6.68

>  <Beta-1>
5.67

>  <Beta-2>
5.07

>  <DOPAMINE D1>
5

>  <DOPAMINE D2>
5

>  <DOPAMINE D4>
5

>  <DOPAMINE D5>
5

>  <Dopamine transporter>
5

>  <HISTAMINE H1>
5

>  <HISTAMINE H2>
5

>  <Muscarinic acetylcholine receptor M1>
5.61

>  <Muscarinic acetylcholine receptor M2>
5.39

>  <Muscarinic acetylcholine receptor M3>
5.22

>  <Muscarinic acetylcholine receptor M4>
5.1

>  <Muscarinic acetylcholine receptor M5>
5

>  <Norepinephrine transporter>
5

>  <Serotonin transporter>
6.18

$$$$
Diclofenac
  Marvin  02231216192D 0   1.00000     0.00000     0

 19 20  0  0  0  0  0  0  0  0999 V2000
    1.8639   -0.1839    0.0000 Cl  0  0  0  0  0  0  0  0  0
    1.8639   -1.0089    0.0000 C   0  0  0  0  0  0  0  0  0
    2.5784   -1.4214    0.0000 C   0  0  0  0  0  0  0  0  0
    2.5784   -2.2464    0.0000 C   0  0  0  0  0  0  0  0  0
    1.8639   -2.6589    0.0000 C   0  0  0  0  0  0  0  0  0
    1.1494   -2.2464    0.0000 C   0  0  0  0  0  0  0  0  0
    0.4350   -2.6589    0.0000 Cl  0  0  0  0  0  0  0  0  0
    1.1494   -1.4214    0.0000 C   0  0  0  0  0  0  0  0  0
    0.4350   -1.0089    0.0000 N   0  0  0  0  0  0  0  0  0
   -0.2795   -1.4214    0.0000 C   0  0  0  0  0  0  0  0  0
   -0.2795   -2.2464    0.0000 C   0  0  0  0  0  0  0  0  0
   -0.9940   -2.6589    0.0000 C   0  0  0  0  0  0  0  0  0
   -1.7085   -2.2464    0.0000 C   0  0  0  0  0  0  0  0  0
   -1.7085   -1.4214    0.0000 C   0  0  0  0  0  0  0  0  0
   -0.9940   -1.0089    0.0000 C   0  0  0  0  0  0  0  0  0
   -0.9940   -0.1839    0.0000 C   0  0  0  0  0  0  0  0  0
   -0.2795    0.2286    0.0000 C   0  0  0  0  0  0  0  0  0
   -0.2795    1.0536    0.0000 O   0  0  0  0  0  0  0  0  0
    0.4350   -0.1839    0.0000 O   0  0  0  0  0  0  0  0  0
  1  2  1  0  0  0  0
  2  3  4  0  0  0  0
  2  8  4  0  0  0  0
  3  4  4  0  0  0  0
  4  5  4  0  0  0  0
  5  6  4  0  0  0  0
  6  7  1  0  0  0  0
  6  8  4  0  0  0  0
  8  9  1  0  0  0  0
  9 10  1  0  0  0  0
 10 11  4  0  0  0  0
 10 15  4  0  0  0  0
 11 12  4  0  0  0  0
 12 13  4  0  0  0  0
 13 14  4  0  0  0  0
 14 15  4  0  0  0  0
 15 16  1  0  0  0  0
 16 17  1  0  0  0  0
 17 18  1  0  0  0  0
 17 19  2  0  0  0  0
M  END
>  <Name_Molregno>
Diclofenac

>  <5-HT1A>
5

>  <5-HT1B>
5

>  <5-HT1D>
5

>  <5-HT1E>
5

>  <5-HT2A>
5

>  <5-HT3>
5

>  <5-HT5>
5

>  <5-HT6>
5

>  <5-HT7>
5

>  <Alpha-1A>
5

>  <Alpha-1B>
5

>  <Alpha-2A>
5

>  <Alpha-2B>
5

>  <Alpha-2C>
5

>  <DOPAMINE D1>
5

>  <DOPAMINE D2>
5

>  <DOPAMINE D4>
5

>  <DOPAMINE D5>
5

>  <HISTAMINE H1>
5

>  <HISTAMINE H2>
5

>  <Muscarinic acetylcholine receptor M2>
5

>  <Muscarinic acetylcholine receptor M5>
5

$$$$
DL-homocysteic-acid
  Marvin  02231216192D 0   1.00000     0.00000     0

 11 10  0  0  1  0  0  0  0  0999 V2000
   -2.6928   -0.0066    0.0000 S   0  0  0  0  0  0  0  0  0
   -3.4073   -0.4191    0.0000 O   0  0  0  0  0  0  0  0  0
   -2.2803   -0.7210    0.0000 O   0  0  0  0  0  0  0  0  0
   -3.1053    0.7079    0.0000 O   0  0  0  0  0  0  0  0  0
   -1.9783    0.4059    0.0000 C   0  0  0  0  0  0  0  0  0
   -1.2639   -0.0066    0.0000 C   0  0  0  0  0  0  0  0  0
   -0.5494    0.4059    0.0000 C   0  0  0  0  0  0  0  0  0
   -0.5494    1.2309    0.0000 N   0  0  0  0  0  0  0  0  0
    0.1651   -0.0066    0.0000 C   0  0  0  0  0  0  0  0  0
    0.8795    0.4059    0.0000 O   0  0  0  0  0  0  0  0  0
    0.1651   -0.8316    0.0000 O   0  0  0  0  0  0  0  0  0
  1  2  2  0  0  0  0
  1  3  2  0  0  0  0
  1  4  1  0  0  0  0
  1  5  1  0  0  0  0
  5  6  1  0  0  0  0
  6  7  1  0  0  0  0
  7  8  1  0  0  0  0
  7  9  1  0  0  0  0
  9 10  1  0  0  0  0
  9 11  2  0  0  0  0
M  END
>  <Name_Molregno>
DL-homocysteic-acid

>  <5-HT1A>
5

>  <5-HT1B>
5

>  <5-HT1D>
5

>  <5-HT3>
5

>  <5-HT5>
5

>  <5-HT6>
5

>  <5-HT7>
5

>  <Alpha-1A>
5

>  <Alpha-1B>
5

>  <Alpha-2A>
5

>  <Alpha-2B>
5

>  <Alpha-2C>
5

>  <DOPAMINE D1>
5

>  <DOPAMINE D2>
5

>  <DOPAMINE D3>
5

>  <DOPAMINE D5>
5

>  <Dopamine transporter>
5

>  <Muscarinic acetylcholine receptor M1>
5

>  <Muscarinic acetylcholine receptor M2>
5

>  <Muscarinic acetylcholine receptor M3>
5

>  <Muscarinic acetylcholine receptor M4>
5

>  <Muscarinic acetylcholine receptor M5>
5

>  <Norepinephrine transporter>
5

>  <Serotonin transporter>
5

$$$$
DL-homocysteine
  Marvin  02231216192D 0   1.00000     0.00000     0

  8  7  0  0  1  0  0  0  0  0999 V2000
   -0.0519    0.0021    0.0000 S   0  0  0  0  0  0  0  0  0
    0.6626    0.4146    0.0000 C   0  0  0  0  0  0  0  0  0
    1.3770    0.0021    0.0000 C   0  0  0  0  0  0  0  0  0
    2.0915    0.4146    0.0000 C   0  0  0  0  0  0  0  0  0
    2.0915    1.2396    0.0000 N   0  0  0  0  0  0  0  0  0
    2.8060    0.0021    0.0000 C   0  0  0  0  0  0  0  0  0
    3.5205    0.4146    0.0000 O   0  0  0  0  0  0  0  0  0
    2.8060   -0.8229    0.0000 O   0  0  0  0  0  0  0  0  0
  1  2  1  0  0  0  0
  2  3  1  0  0  0  0
  3  4  1  0  0  0  0
  4  5  1  0  0  0  0
  4  6  1  0  0  0  0
  6  7  1  0  0  0  0
  6  8  2  0  0  0  0
M  END
>  <Name_Molregno>
DL-homocysteine

>  <5-HT1A>
5

>  <5-HT1B>
5

>  <5-HT1D>
5

>  <5-HT3>
5

>  <5-HT5>
5

>  <5-HT6>
5

>  <5-HT7>
5

>  <Alpha-1A>
5

>  <Alpha-1B>
5

>  <Alpha-2A>
5

>  <Alpha-2B>
5

>  <Alpha-2C>
5

>  <DOPAMINE D1>
5

>  <DOPAMINE D2>
5

>  <DOPAMINE D3>
5

>  <DOPAMINE D5>
5

>  <Dopamine transporter>
5

>  <HISTAMINE H1>
5

>  <HISTAMINE H2>
5

>  <HISTAMINE H4>
5

>  <Muscarinic acetylcholine receptor M1>
5

>  <Muscarinic acetylcholine receptor M2>
5

>  <Muscarinic acetylcholine receptor M3>
5

>  <Muscarinic acetylcholine receptor M4>
5

>  <Muscarinic acetylcholine receptor M5>
5

>  <Norepinephrine transporter>
5

>  <Serotonin transporter>
5

$$$$
D-methionine
  Marvin  02231216192D 0   1.00000     0.00000     0

  9  8  0  0  1  0  0  0  0  0999 V2000
   -0.3763    1.2394    0.0000 S   0  0  0  0  0  0  0  0  0
    0.3381    0.8269    0.0000 C   0  0  0  0  0  0  0  0  0
    1.0526    1.2394    0.0000 C   0  0  0  0  0  0  0  0  0
    1.7671    0.8269    0.0000 C   0  0  0  0  0  0  0  0  0
    1.7671    0.0019    0.0000 N   0  0  0  0  0  0  0  0  0
    2.4816    1.2394    0.0000 C   0  0  0  0  0  0  0  0  0
    3.1960    0.8269    0.0000 O   0  0  0  0  0  0  0  0  0
    2.4816    2.0644    0.0000 O   0  0  0  0  0  0  0  0  0
   -1.0908    0.8269    0.0000 C   0  0  0  0  0  0  0  0  0
  1  2  1  0  0  0  0
  1  9  1  0  0  0  0
  2  3  1  0  0  0  0
  3  4  1  0  0  0  0
  4  5  1  0  0  0  0
  4  6  1  0  0  0  0
  6  7  1  0  0  0  0
  6  8  2  0  0  0  0
M  END
>  <Name_Molregno>
D-methionine

>  <5-HT1A>
5

>  <5-HT1B>
5

>  <5-HT1D>
5

>  <5-HT3>
5

>  <5-HT5>
5

>  <5-HT6>
5

>  <5-HT7>
5

>  <Alpha-1A>
5

>  <Alpha-1B>
5

>  <Alpha-2A>
5

>  <Alpha-2B>
5

>  <Alpha-2C>
5

>  <DOPAMINE D1>
5

>  <DOPAMINE D2>
5

>  <DOPAMINE D3>
5

>  <DOPAMINE D5>
5

>  <Dopamine transporter>
5

>  <HISTAMINE H1>
5

>  <HISTAMINE H2>
5

>  <HISTAMINE H4>
5

>  <Muscarinic acetylcholine receptor M1>
5

>  <Muscarinic acetylcholine receptor M2>
5

>  <Muscarinic acetylcholine receptor M3>
5

>  <Muscarinic acetylcholine receptor M4>
5

>  <Muscarinic acetylcholine receptor M5>
5

>  <Norepinephrine transporter>
5

>  <Serotonin transporter>
5

$$$$
DOPAMINE
  Marvin  02231216192D 0   1.00000     0.00000     0

 11 11  0  0  0  0  0  0  0  0999 V2000
    3.1358    1.8244    0.0000 O   0  0  0  0  0  0  0  0  0
    2.4213    1.4119    0.0000 C   0  0  0  0  0  0  0  0  0
    2.4213    0.5869    0.0000 C   0  0  0  0  0  0  0  0  0
    1.7068    0.1744    0.0000 C   0  0  0  0  0  0  0  0  0
    0.9924    0.5869    0.0000 C   0  0  0  0  0  0  0  0  0
    0.9924    1.4119    0.0000 C   0  0  0  0  0  0  0  0  0
    1.7068    1.8244    0.0000 C   0  0  0  0  0  0  0  0  0
    1.7068    2.6494    0.0000 O   0  0  0  0  0  0  0  0  0
    1.7068   -0.6506    0.0000 C   0  0  0  0  0  0  0  0  0
    0.9924   -1.0631    0.0000 C   0  0  0  0  0  0  0  0  0
    0.9924   -1.8881    0.0000 N   0  0  0  0  0  0  0  0  0
  1  2  1  0  0  0  0
  2  3  4  0  0  0  0
  2  7  4  0  0  0  0
  3  4  4  0  0  0  0
  4  5  4  0  0  0  0
  4  9  1  0  0  0  0
  5  6  4  0  0  0  0
  6  7  4  0  0  0  0
  7  8  1  0  0  0  0
  9 10  1  0  0  0  0
 10 11  1  0  0  0  0
M  END
>  <Name_Molregno>
DOPAMINE

>  <5-HT1A>
5.08

>  <5-HT2A>
5

>  <5-HT3>
5

>  <5-HT7>
5

>  <DOPAMINE D1>
5.72

>  <DOPAMINE D2>
6.7

>  <DOPAMINE D3>
7.41

>  <DOPAMINE D4>
7.64

>  <DOPAMINE D5>
6.64

>  <Dopamine transporter>
5.79

>  <Norepinephrine transporter>
6.49

$$$$
Ephedrine
  Marvin  02231216192D 0   1.00000     0.00000     0

 12 12  0  0  1  0  0  0  0  0999 V2000
    1.9192   -0.0549    0.0000 O   0  0  0  0  0  0  0  0  0
    1.2047   -0.4674    0.0000 C   0  0  0  0  0  0  0  0  0
    0.4903   -0.0549    0.0000 C   0  0  0  0  0  0  0  0  0
    0.4903    0.7701    0.0000 N   0  0  0  0  0  0  0  0  0
   -0.2242    1.1826    0.0000 C   0  0  0  0  0  0  0  0  0
   -0.2242   -0.4674    0.0000 C   0  0  0  0  0  0  0  0  0
    1.2047   -1.2924    0.0000 C   0  0  0  0  0  0  0  0  0
    1.9192   -1.7049    0.0000 C   0  0  0  0  0  0  0  0  0
    1.9192   -2.5299    0.0000 C   0  0  0  0  0  0  0  0  0
    1.2047   -2.9424    0.0000 C   0  0  0  0  0  0  0  0  0
    0.4903   -2.5299    0.0000 C   0  0  0  0  0  0  0  0  0
    0.4903   -1.7049    0.0000 C   0  0  0  0  0  0  0  0  0
  1  2  1  0  0  0  0
  2  3  1  0  0  0  0
  2  7  1  0  0  0  0
  3  4  1  0  0  0  0
  3  6  1  0  0  0  0
  4  5  1  0  0  0  0
  7  8  4  0  0  0  0
  7 12  4  0  0  0  0
  8  9  4  0  0  0  0
  9 10  4  0  0  0  0
 10 11  4  0  0  0  0
 11 12  4  0  0  0  0
M  END
>  <Name_Molregno>
Ephedrine

>  <5-HT1A>
5

>  <5-HT1B>
5

>  <5-HT1D>
5

>  <5-HT1E>
5

>  <5-HT3>
5

>  <5-HT5>
5

>  <5-HT6>
5

>  <5-HT7>
5.33

>  <Alpha-1A>
5

>  <Alpha-1B>
5

>  <Alpha-2A>
5.17

>  <Alpha-2B>
5.48

>  <Alpha-2C>
5.51

>  <Beta-1>
5

>  <Beta-2>
5

>  <DOPAMINE D1>
5

>  <DOPAMINE D2>
5

>  <DOPAMINE D4>
5

>  <DOPAMINE D5>
5

>  <Dopamine transporter>
5.38

>  <HISTAMINE H1>
5

>  <HISTAMINE H2>
5

>  <HISTAMINE H4>
5

>  <Muscarinic acetylcholine receptor M1>
5

>  <Muscarinic acetylcholine receptor M2>
5

>  <Muscarinic acetylcholine receptor M3>
5

>  <Muscarinic acetylcholine receptor M4>
5

>  <Muscarinic acetylcholine receptor M5>
5

>  <Norepinephrine transporter>
5.79

>  <Serotonin transporter>
5

$$$$
ERGOTAMINE
  Marvin  02231216192D 0   1.00000     0.00000     0

 43 50  0  0  1  0  0  0  0  0999 V2000
   -2.1239   -1.0172    0.0000 O   0  0  0  0  0  0  0  0  0
   -1.3035   -1.1045    0.0000 C   0  0  0  0  0  0  0  0  0
   -1.3025   -0.2795    0.0000 N   0  0  0  0  0  0  0  0  0
   -0.5876    0.1322    0.0000 C   0  0  0  0  0  0  0  0  0
    0.1264   -0.2812    0.0000 O   0  0  0  0  0  0  0  0  0
   -0.5866    0.9572    0.0000 C   0  0  0  0  0  0  0  0  0
    0.1284    1.3688    0.0000 C   0  0  0  0  0  0  0  0  0
    0.1294    2.1938    0.0000 C   0  0  0  0  0  0  0  0  0
   -0.5846    2.6072    0.0000 C   0  0  0  0  0  0  0  0  0
   -1.2996    2.1955    0.0000 N   0  0  0  0  0  0  0  0  0
   -1.3006    1.3705    0.0000 C   0  0  0  0  0  0  0  0  0
   -2.0136    2.6089    0.0000 C   0  0  0  0  0  0  0  0  0
   -0.5831    3.4313    0.0000 C   0  0  0  0  0  0  0  0  0
    0.1294    3.8438    0.0000 C   0  0  0  0  0  0  0  0  0
    0.8419    3.4313    0.0000 C   0  0  0  0  0  0  0  0  0
    0.8419    2.6063    0.0000 C   0  0  0  0  0  0  0  0  0
    1.5597    2.1938    0.0000 C   0  0  0  0  0  0  0  0  0
    2.2722    2.6063    0.0000 C   0  0  0  0  0  0  0  0  0
    2.2722    3.4313    0.0000 C   0  0  0  0  0  0  0  0  0
    1.5597    3.8438    0.0000 C   0  0  0  0  0  0  0  0  0
    1.2544    4.7010    0.0000 N   0  0  0  0  0  0  0  0  0
    0.4294    4.7010    0.0000 C   0  0  0  0  0  0  0  0  0
   -0.4830   -1.0192    0.0000 C   0  0  0  0  0  0  0  0  0
   -1.1330   -1.9116    0.0000 C   0  0  0  0  0  0  0  0  0
   -0.3797   -2.2481    0.0000 O   0  0  0  0  0  0  0  0  0
   -1.8479   -2.3233    0.0000 N   0  0  0  0  0  0  0  0  0
   -2.0204   -3.1301    0.0000 C   0  0  0  0  0  0  0  0  0
   -1.4080   -3.6828    0.0000 C   0  0  0  0  0  0  0  0  0
   -1.5805   -4.4896    0.0000 C   0  0  0  0  0  0  0  0  0
   -0.9681   -5.0424    0.0000 C   0  0  0  0  0  0  0  0  0
   -1.1406   -5.8491    0.0000 C   0  0  0  0  0  0  0  0  0
   -1.9255   -6.1031    0.0000 C   0  0  0  0  0  0  0  0  0
   -2.5379   -5.5504    0.0000 C   0  0  0  0  0  0  0  0  0
   -2.3654   -4.7436    0.0000 C   0  0  0  0  0  0  0  0  0
   -2.8054   -3.3841    0.0000 C   0  0  0  0  0  0  0  0  0
   -2.9779   -4.1908    0.0000 O   0  0  0  0  0  0  0  0  0
   -3.4178   -2.8313    0.0000 N   0  0  0  0  0  0  0  0  0
   -3.2453   -2.0245    0.0000 C   0  0  0  0  0  0  0  0  0
   -3.9593   -1.6112    0.0000 C   0  0  0  0  0  0  0  0  0
   -4.5730   -2.1625    0.0000 C   0  0  0  0  0  0  0  0  0
   -4.2384   -2.9165    0.0000 C   0  0  0  0  0  0  0  0  0
   -2.4604   -1.7705    0.0000 C   0  0  0  0  0  0  0  0  0
   -3.0117   -1.1568    0.0000 O   0  0  0  0  0  0  0  0  0
  1  2  1  0  0  0  0
  1 42  1  0  0  0  0
  2  3  1  0  0  0  0
  2 23  1  0  0  0  0
  2 24  1  0  0  0  0
  3  4  1  0  0  0  0
  4  5  2  0  0  0  0
  4  6  1  0  0  0  0
  6  7  1  0  0  0  0
  6 11  1  0  0  0  0
  7  8  2  0  0  0  0
  8  9  1  0  0  0  0
  8 16  1  0  0  0  0
  9 10  1  0  0  0  0
  9 13  1  0  0  0  0
 10 11  1  0  0  0  0
 10 12  1  0  0  0  0
 13 14  1  0  0  0  0
 14 15  4  0  0  0  0
 14 22  4  0  0  0  0
 15 16  4  0  0  0  0
 15 20  4  0  0  0  0
 16 17  4  0  0  0  0
 17 18  4  0  0  0  0
 18 19  4  0  0  0  0
 19 20  4  0  0  0  0
 20 21  4  0  0  0  0
 21 22  4  0  0  0  0
 24 25  2  0  0  0  0
 24 26  1  0  0  0  0
 26 27  1  0  0  0  0
 26 42  1  0  0  0  0
 27 28  1  0  0  0  0
 27 35  1  0  0  0  0
 28 29  1  0  0  0  0
 29 30  4  0  0  0  0
 29 34  4  0  0  0  0
 30 31  4  0  0  0  0
 31 32  4  0  0  0  0
 32 33  4  0  0  0  0
 33 34  4  0  0  0  0
 35 36  2  0  0  0  0
 35 37  1  0  0  0  0
 37 38  1  0  0  0  0
 37 41  1  0  0  0  0
 38 39  1  0  0  0  0
 38 42  1  0  0  0  0
 39 40  1  0  0  0  0
 40 41  1  0  0  0  0
 42 43  1  0  0  0  0
M  STY  1   1 DAT
M  SAL   1  1  21
M  SDT   1 MRV_IMPLICIT_H                                        
M  SDD   1     0.0000    0.0000    DR    ALL  0       0  
M  SED   1 IMPL_H1
M  END
>  <Name_Molregno>
ERGOTAMINE

>  <5-HT1A>
9.77

>  <5-HT1B>
8.33

>  <5-HT1D>
9

>  <5-HT1E>
6.58

>  <5-HT2A>
9.1

>  <5-HT2C>
8.37

>  <5-HT3>
5

>  <5-HT6>
7.92

>  <5-HT7>
5.89

>  <Alpha-1A>
5

>  <Alpha-1B>
5

>  <Alpha-2A>
6.97

>  <Alpha-2B>
7.05

>  <Alpha-2C>
5

>  <Beta-1>
5

>  <Beta-2>
5

>  <DOPAMINE D1>
5

>  <DOPAMINE D2>
5

>  <DOPAMINE D4>
5

>  <DOPAMINE D5>
6.77

>  <Dopamine transporter>
5

>  <HISTAMINE H1>
5

>  <HISTAMINE H2>
5

>  <Muscarinic acetylcholine receptor M1>
6.06

>  <Muscarinic acetylcholine receptor M2>
6.04

>  <Muscarinic acetylcholine receptor M3>
5

>  <Muscarinic acetylcholine receptor M4>
5

>  <Muscarinic acetylcholine receptor M5>
5

>  <Norepinephrine transporter>
5

>  <Serotonin transporter>
5

$$$$
ETORICOXIB
  Marvin  02231216192D 0   1.00000     0.00000     0

 24 26  0  0  0  0  0  0  0  0999 V2000
    1.3103    1.0543    0.0000 Cl  0  0  0  0  0  0  0  0  0
    1.3103    0.2293    0.0000 C   0  0  0  0  0  0  0  0  0
    2.0248   -0.1832    0.0000 C   0  0  0  0  0  0  0  0  0
    2.0248   -1.0082    0.0000 C   0  0  0  0  0  0  0  0  0
    1.3103   -1.4207    0.0000 C   0  0  0  0  0  0  0  0  0
    0.5958   -1.0082    0.0000 N   0  0  0  0  0  0  0  0  0
    0.5958   -0.1832    0.0000 C   0  0  0  0  0  0  0  0  0
    1.3103   -2.2457    0.0000 C   0  0  0  0  0  0  0  0  0
    2.0248   -2.6582    0.0000 C   0  0  0  0  0  0  0  0  0
    2.0248   -3.4832    0.0000 C   0  0  0  0  0  0  0  0  0
    1.3103   -3.8957    0.0000 C   0  0  0  0  0  0  0  0  0
    0.5958   -3.4832    0.0000 N   0  0  0  0  0  0  0  0  0
    0.5958   -2.6582    0.0000 C   0  0  0  0  0  0  0  0  0
    1.3103   -4.7207    0.0000 C   0  0  0  0  0  0  0  0  0
    2.7392   -1.4207    0.0000 C   0  0  0  0  0  0  0  0  0
    3.4537   -1.0082    0.0000 C   0  0  0  0  0  0  0  0  0
    4.1682   -1.4207    0.0000 C   0  0  0  0  0  0  0  0  0
    4.1682   -2.2457    0.0000 C   0  0  0  0  0  0  0  0  0
    4.8826   -2.6582    0.0000 S   0  0  0  0  0  0  0  0  0
    5.5971   -3.0707    0.0000 O   0  0  0  0  0  0  0  0  0
    4.4701   -3.3727    0.0000 O   0  0  0  0  0  0  0  0  0
    5.2951   -1.9437    0.0000 C   0  0  0  0  0  0  0  0  0
    3.4537   -2.6582    0.0000 C   0  0  0  0  0  0  0  0  0
    2.7392   -2.2457    0.0000 C   0  0  0  0  0  0  0  0  0
  1  2  1  0  0  0  0
  2  3  4  0  0  0  0
  2  7  4  0  0  0  0
  3  4  4  0  0  0  0
  4  5  4  0  0  0  0
  4 15  1  0  0  0  0
  5  6  4  0  0  0  0
  5  8  1  0  0  0  0
  6  7  4  0  0  0  0
  8  9  4  0  0  0  0
  8 13  4  0  0  0  0
  9 10  4  0  0  0  0
 10 11  4  0  0  0  0
 11 12  4  0  0  0  0
 11 14  1  0  0  0  0
 12 13  4  0  0  0  0
 15 16  4  0  0  0  0
 15 24  4  0  0  0  0
 16 17  4  0  0  0  0
 17 18  4  0  0  0  0
 18 19  1  0  0  0  0
 18 23  4  0  0  0  0
 19 20  2  0  0  0  0
 19 21  2  0  0  0  0
 19 22  1  0  0  0  0
 23 24  4  0  0  0  0
M  END
>  <Name_Molregno>
ETORICOXIB

>  <5-HT1A>
5

>  <5-HT1B>
5

>  <5-HT1D>
5

>  <5-HT1E>
5

>  <5-HT2A>
5

>  <5-HT3>
5

>  <5-HT6>
5

>  <5-HT7>
5

>  <Alpha-1A>
5

>  <Alpha-1B>
5

>  <Alpha-2A>
5

>  <Alpha-2B>
5

>  <Alpha-2C>
5

>  <DOPAMINE D1>
5

>  <DOPAMINE D2>
5

>  <DOPAMINE D5>
5

>  <Dopamine transporter>
5

>  <HISTAMINE H2>
5

>  <HISTAMINE H4>
5

>  <Muscarinic acetylcholine receptor M1>
5

>  <Norepinephrine transporter>
5

>  <Serotonin transporter>
5

$$$$
Fluorocarazolol
  Marvin  02231216192D 0   1.00000     0.00000     0

 23 25  0  0  1  0  0  0  0  0999 V2000
   -0.1270    1.0228    0.0000 F   0  0  0  0  0  0  0  0  0
    0.5874    0.6103    0.0000 C   0  0  0  0  0  0  0  0  0
    1.3019    1.0228    0.0000 C   0  0  0  0  0  0  0  0  0
    2.0164    0.6103    0.0000 N   0  0  0  0  0  0  0  0  0
    2.7309    1.0228    0.0000 C   0  0  0  0  0  0  0  0  0
    3.4453    0.6103    0.0000 C   0  0  0  0  0  0  0  0  0
    3.4453   -0.2147    0.0000 O   0  0  0  0  0  0  0  0  0
    4.1598    1.0228    0.0000 C   0  0  0  0  0  0  0  0  0
    4.8743    0.6103    0.0000 O   0  0  0  0  0  0  0  0  0
    5.5887    1.0228    0.0000 C   0  0  0  0  0  0  0  0  0
    6.3032    0.6103    0.0000 C   0  0  0  0  0  0  0  0  0
    6.4747   -0.1966    0.0000 C   0  0  0  0  0  0  0  0  0
    7.2952   -0.2829    0.0000 C   0  0  0  0  0  0  0  0  0
    7.6308    0.4708    0.0000 N   0  0  0  0  0  0  0  0  0
    7.0177    1.0228    0.0000 C   0  0  0  0  0  0  0  0  0
    7.0177    1.8478    0.0000 C   0  0  0  0  0  0  0  0  0
    6.3032    2.2603    0.0000 C   0  0  0  0  0  0  0  0  0
    5.5887    1.8478    0.0000 C   0  0  0  0  0  0  0  0  0
    7.6308   -1.0365    0.0000 C   0  0  0  0  0  0  0  0  0
    7.1459   -1.7040    0.0000 C   0  0  0  0  0  0  0  0  0
    6.3254   -1.6178    0.0000 C   0  0  0  0  0  0  0  0  0
    5.9898   -0.8641    0.0000 C   0  0  0  0  0  0  0  0  0
    1.3019    1.8478    0.0000 C   0  0  0  0  0  0  0  0  0
  1  2  1  0  0  0  0
  2  3  1  0  0  0  0
  3  4  1  0  0  0  0
  3 23  1  0  0  0  0
  4  5  1  0  0  0  0
  5  6  1  0  0  0  0
  6  7  1  0  0  0  0
  6  8  1  0  0  0  0
  8  9  1  0  0  0  0
  9 10  1  0  0  0  0
 10 11  4  0  0  0  0
 10 18  4  0  0  0  0
 11 12  4  0  0  0  0
 11 15  4  0  0  0  0
 12 13  4  0  0  0  0
 12 22  4  0  0  0  0
 13 14  4  0  0  0  0
 13 19  4  0  0  0  0
 14 15  4  0  0  0  0
 15 16  4  0  0  0  0
 16 17  4  0  0  0  0
 17 18  4  0  0  0  0
 19 20  4  0  0  0  0
 20 21  4  0  0  0  0
 21 22  4  0  0  0  0
M  STY  1   1 DAT
M  SAL   1  1  14
M  SDT   1 MRV_IMPLICIT_H                                        
M  SDD   1     0.0000    0.0000    DR    ALL  0       0  
M  SED   1 IMPL_H1
M  END
>  <Name_Molregno>
Fluorocarazolol

>  <5-HT1A>
6.97

>  <5-HT1B>
6.31

>  <5-HT1D>
5.5

>  <5-HT1E>
5

>  <5-HT3>
5

>  <5-HT5>
5

>  <5-HT6>
5

>  <5-HT7>
5.17

>  <Alpha-1A>
5.85

>  <Alpha-1B>
5.76

>  <Alpha-2A>
5.5

>  <Alpha-2B>
5.03

>  <Alpha-2C>
5.54

>  <Beta-1>
9.65

>  <Beta-2>
9.98

>  <DOPAMINE D1>
5

>  <DOPAMINE D5>
5

>  <Muscarinic acetylcholine receptor M1>
5.66

>  <Muscarinic acetylcholine receptor M2>
5

>  <Muscarinic acetylcholine receptor M3>
5.4

>  <Muscarinic acetylcholine receptor M4>
5.14

>  <Muscarinic acetylcholine receptor M5>
5.27

>  <Norepinephrine transporter>
5

>  <Serotonin transporter>
5

$$$$
FLUPHENAZINE
  Marvin  02231216192D 0   1.00000     0.00000     0

 38 41  0  0  0  0  0  0  0  0999 V2000
   -7.1492   -1.5262    0.0000 S   0  0  0  0  0  0  0  0  0
   -7.1492   -2.3512    0.0000 C   0  0  0  0  0  0  0  0  0
   -6.4348   -2.7637    0.0000 C   0  0  0  0  0  0  0  0  0
   -5.7203   -2.3512    0.0000 N   0  0  0  0  0  0  0  0  0
   -5.7203   -1.5262    0.0000 C   0  0  0  0  0  0  0  0  0
   -6.4348   -1.1137    0.0000 C   0  0  0  0  0  0  0  0  0
   -6.4348   -0.2887    0.0000 C   0  0  0  0  0  0  0  0  0
   -5.7203    0.1238    0.0000 C   0  0  0  0  0  0  0  0  0
   -5.0058   -0.2887    0.0000 C   0  0  0  0  0  0  0  0  0
   -5.0058   -1.1137    0.0000 C   0  0  0  0  0  0  0  0  0
   -5.0058   -2.7637    0.0000 C   0  0  0  0  0  0  0  0  0
   -4.2914   -2.3512    0.0000 C   0  0  0  0  0  0  0  0  0
   -3.5769   -2.7637    0.0000 C   0  0  0  0  0  0  0  0  0
   -2.8624   -2.3512    0.0000 N   0  0  0  0  0  0  0  0  0
   -2.8624   -1.5262    0.0000 C   0  0  0  0  0  0  0  0  0
   -2.1479   -1.1137    0.0000 C   0  0  0  0  0  0  0  0  0
   -1.4335   -1.5262    0.0000 N   0  0  0  0  0  0  0  0  0
   -1.4335   -2.3512    0.0000 C   0  0  0  0  0  0  0  0  0
   -2.1479   -2.7637    0.0000 C   0  0  0  0  0  0  0  0  0
   -0.7190   -1.1137    0.0000 C   0  0  0  0  0  0  0  0  0
   -0.0045   -1.5262    0.0000 C   0  0  0  0  0  0  0  0  0
    0.7099   -1.1137    0.0000 O   0  0  0  0  0  0  0  0  0
    1.4244   -1.5262    0.0000 C   0  0  0  0  0  0  0  0  0
    1.4244   -2.3512    0.0000 O   0  0  0  0  0  0  0  0  0
    2.1389   -1.1137    0.0000 C   0  0  0  0  0  0  0  0  0
    2.8534   -1.5262    0.0000 C   0  0  0  0  0  0  0  0  0
    3.5678   -1.1137    0.0000 C   0  0  0  0  0  0  0  0  0
    4.2823   -1.5262    0.0000 C   0  0  0  0  0  0  0  0  0
    4.9968   -1.1137    0.0000 C   0  0  0  0  0  0  0  0  0
    5.7112   -1.5262    0.0000 C   0  0  0  0  0  0  0  0  0
   -6.4348   -3.5887    0.0000 C   0  0  0  0  0  0  0  0  0
   -7.1492   -4.0012    0.0000 C   0  0  0  0  0  0  0  0  0
   -7.8637   -3.5887    0.0000 C   0  0  0  0  0  0  0  0  0
   -7.8637   -2.7637    0.0000 C   0  0  0  0  0  0  0  0  0
   -7.1492   -4.8262    0.0000 C   0  0  0  0  0  0  0  0  0
   -7.1492   -5.6512    0.0000 F   0  0  0  0  0  0  0  0  0
   -7.9742   -4.8262    0.0000 F   0  0  0  0  0  0  0  0  0
   -6.3242   -4.8262    0.0000 F   0  0  0  0  0  0  0  0  0
  1  2  1  0  0  0  0
  1  6  1  0  0  0  0
  2  3  4  0  0  0  0
  2 34  4  0  0  0  0
  3  4  1  0  0  0  0
  3 31  4  0  0  0  0
  4  5  1  0  0  0  0
  4 11  1  0  0  0  0
  5  6  4  0  0  0  0
  5 10  4  0  0  0  0
  6  7  4  0  0  0  0
  7  8  4  0  0  0  0
  8  9  4  0  0  0  0
  9 10  4  0  0  0  0
 11 12  1  0  0  0  0
 12 13  1  0  0  0  0
 13 14  1  0  0  0  0
 14 15  1  0  0  0  0
 14 19  1  0  0  0  0
 15 16  1  0  0  0  0
 16 17  1  0  0  0  0
 17 18  1  0  0  0  0
 17 20  1  0  0  0  0
 18 19  1  0  0  0  0
 20 21  1  0  0  0  0
 21 22  1  0  0  0  0
 22 23  1  0  0  0  0
 23 24  2  0  0  0  0
 23 25  1  0  0  0  0
 25 26  1  0  0  0  0
 26 27  1  0  0  0  0
 27 28  1  0  0  0  0
 28 29  1  0  0  0  0
 29 30  1  0  0  0  0
 31 32  4  0  0  0  0
 32 33  4  0  0  0  0
 32 35  1  0  0  0  0
 33 34  4  0  0  0  0
 35 36  1  0  0  0  0
 35 37  1  0  0  0  0
 35 38  1  0  0  0  0
M  END
>  <Name_Molregno>
FLUPHENAZINE

>  <5-HT1A>
6.41

>  <5-HT1B>
6.48

>  <5-HT1D>
6.48

>  <5-HT1E>
6.27

>  <5-HT2A>
7.87

>  <5-HT2C>
6.05

>  <5-HT3>
5

>  <5-HT5>
6.84

>  <5-HT6>
7.46

>  <5-HT7>
8.1

>  <Alpha-1A>
8.19

>  <Alpha-1B>
7.89

>  <Alpha-2A>
6.5

>  <Alpha-2B>
7.09

>  <Alpha-2C>
7.54

>  <Beta-1>
5

>  <Beta-2>
5

>  <DOPAMINE D1>
7.55

>  <DOPAMINE D2>
9.22

>  <DOPAMINE D3>
9.33

>  <DOPAMINE D4>
7.52

>  <DOPAMINE D5>
7.82

>  <Dopamine transporter>
5

>  <HISTAMINE H1>
7.72

>  <HISTAMINE H2>
6.25

>  <HISTAMINE H3>
6

>  <HISTAMINE H4>
5

>  <Muscarinic acetylcholine receptor M1>
5.96

>  <Muscarinic acetylcholine receptor M2>
5.14

>  <Muscarinic acetylcholine receptor M3>
5.84

>  <Muscarinic acetylcholine receptor M4>
5.27

>  <Muscarinic acetylcholine receptor M5>
6.45

>  <Norepinephrine transporter>
5.51

>  <Serotonin transporter>
5.23

$$$$
HALOPERIDOL
  Marvin  02231216192D 0   1.00000     0.00000     0

 26 28  0  0  0  0  0  0  0  0999 V2000
    1.7138    2.6466    0.0000 Cl  0  0  0  0  0  0  0  0  0
    1.9960    1.8714    0.0000 C   0  0  0  0  0  0  0  0  0
    2.8084    1.7281    0.0000 C   0  0  0  0  0  0  0  0  0
    3.0906    0.9529    0.0000 C   0  0  0  0  0  0  0  0  0
    2.5603    0.3209    0.0000 C   0  0  0  0  0  0  0  0  0
    1.7478    0.4642    0.0000 C   0  0  0  0  0  0  0  0  0
    1.4657    1.2394    0.0000 C   0  0  0  0  0  0  0  0  0
    2.8425   -0.4543    0.0000 C   0  0  0  0  0  0  0  0  0
    2.0300   -0.5976    0.0000 O   0  0  0  0  0  0  0  0  0
    3.5569   -0.0418    0.0000 C   0  0  0  0  0  0  0  0  0
    4.2714   -0.4543    0.0000 C   0  0  0  0  0  0  0  0  0
    4.2714   -1.2793    0.0000 N   0  0  0  0  0  0  0  0  0
    3.5569   -1.6918    0.0000 C   0  0  0  0  0  0  0  0  0
    2.8425   -1.2793    0.0000 C   0  0  0  0  0  0  0  0  0
    4.9859   -1.6918    0.0000 C   0  0  0  0  0  0  0  0  0
    5.7003   -1.2793    0.0000 C   0  0  0  0  0  0  0  0  0
    6.4148   -1.6918    0.0000 C   0  0  0  0  0  0  0  0  0
    7.1293   -1.2793    0.0000 C   0  0  0  0  0  0  0  0  0
    7.1293   -0.4543    0.0000 O   0  0  0  0  0  0  0  0  0
    7.8438   -1.6918    0.0000 C   0  0  0  0  0  0  0  0  0
    8.5582   -1.2793    0.0000 C   0  0  0  0  0  0  0  0  0
    9.2727   -1.6918    0.0000 C   0  0  0  0  0  0  0  0  0
    9.2727   -2.5168    0.0000 C   0  0  0  0  0  0  0  0  0
    9.9872   -2.9293    0.0000 F   0  0  0  0  0  0  0  0  0
    8.5582   -2.9293    0.0000 C   0  0  0  0  0  0  0  0  0
    7.8438   -2.5168    0.0000 C   0  0  0  0  0  0  0  0  0
  1  2  1  0  0  0  0
  2  3  4  0  0  0  0
  2  7  4  0  0  0  0
  3  4  4  0  0  0  0
  4  5  4  0  0  0  0
  5  6  4  0  0  0  0
  5  8  1  0  0  0  0
  6  7  4  0  0  0  0
  8  9  1  0  0  0  0
  8 10  1  0  0  0  0
  8 14  1  0  0  0  0
 10 11  1  0  0  0  0
 11 12  1  0  0  0  0
 12 13  1  0  0  0  0
 12 15  1  0  0  0  0
 13 14  1  0  0  0  0
 15 16  1  0  0  0  0
 16 17  1  0  0  0  0
 17 18  1  0  0  0  0
 18 19  2  0  0  0  0
 18 20  1  0  0  0  0
 20 21  4  0  0  0  0
 20 26  4  0  0  0  0
 21 22  4  0  0  0  0
 22 23  4  0  0  0  0
 23 24  1  0  0  0  0
 23 25  4  0  0  0  0
 25 26  4  0  0  0  0
M  END
>  <Name_Molregno>
HALOPERIDOL

>  <5-HT1A>
5.67

>  <5-HT1B>
6.63

>  <5-HT1D>
5.56

>  <5-HT1E>
5.15

>  <5-HT2A>
7.01

>  <5-HT2C>
5.24

>  <5-HT3>
5

>  <5-HT5>
5.65

>  <5-HT6>
5.28

>  <5-HT7>
6.32

>  <Alpha-1A>
7.92

>  <Alpha-1B>
8.1

>  <Alpha-2A>
6.04

>  <Alpha-2B>
6.32

>  <Alpha-2C>
6.34

>  <Beta-1>
5

>  <Beta-2>
5.15

>  <DOPAMINE D1>
7.22

>  <DOPAMINE D2>
8.75

>  <DOPAMINE D3>
8.33

>  <DOPAMINE D4>
8.29

>  <DOPAMINE D5>
7.03

>  <Dopamine transporter>
5

>  <HISTAMINE H1>
6.04

>  <HISTAMINE H2>
6

>  <HISTAMINE H4>
5

>  <Muscarinic acetylcholine receptor M1>
5.4

>  <Muscarinic acetylcholine receptor M2>
5

>  <Muscarinic acetylcholine receptor M3>
5

>  <Muscarinic acetylcholine receptor M4>
5

>  <Muscarinic acetylcholine receptor M5>
5.59

>  <Norepinephrine transporter>
5.68

>  <Serotonin transporter>
5.74

$$$$
HISTAMINE
  Marvin  02231216192D 0   1.00000     0.00000     0

  8  8  0  0  0  0  0  0  0  0999 V2000
    1.0236   -1.0521    0.0000 N   0  0  0  0  0  0  0  0  0
    0.7687   -1.8367    0.0000 C   0  0  0  0  0  0  0  0  0
   -0.0563   -1.8367    0.0000 N   0  0  0  0  0  0  0  0  0
   -0.3113   -1.0521    0.0000 C   0  0  0  0  0  0  0  0  0
    0.3562   -0.5672    0.0000 C   0  0  0  0  0  0  0  0  0
    0.3562    0.2578    0.0000 C   0  0  0  0  0  0  0  0  0
    1.0706    0.6703    0.0000 C   0  0  0  0  0  0  0  0  0
    1.0706    1.4953    0.0000 N   0  0  0  0  0  0  0  0  0
  1  2  4  0  0  0  0
  1  5  4  0  0  0  0
  2  3  4  0  0  0  0
  3  4  4  0  0  0  0
  4  5  4  0  0  0  0
  5  6  1  0  0  0  0
  6  7  1  0  0  0  0
  7  8  1  0  0  0  0
M  STY  1   1 DAT
M  SAL   1  1   1
M  SDT   1 MRV_IMPLICIT_H                                        
M  SDD   1     0.0000    0.0000    DR    ALL  0       0  
M  SED   1 IMPL_H1
M  END
>  <Name_Molregno>
HISTAMINE

>  <5-HT2A>
5

>  <5-HT3>
5

>  <5-HT7>
5

>  <HISTAMINE H1>
5.5

>  <HISTAMINE H2>
5

>  <HISTAMINE H3>
7.87

>  <HISTAMINE H4>
7.46

$$$$
Hyperforin
  Marvin  02231216192D 0   1.00000     0.00000     0

 39 40  0  0  1  0  0  0  0  0999 V2000
   -0.0475    3.0141    0.0000 O   0  0  0  0  0  0  0  0  0
    0.7326    2.5988    0.0000 C   0  0  0  0  0  0  0  0  0
    1.6516    2.5995    0.0000 C   0  0  0  0  0  0  0  0  0
    1.7130    1.6464    0.0000 C   0  0  0  0  0  0  0  0  0
    1.3009    1.0655    0.0000 C   0  0  0  0  0  0  0  0  0
    0.9271    0.2926    0.0000 C   0  0  0  0  0  0  0  0  0
    0.6406   -0.4973    0.0000 C   0  0  0  0  0  0  0  0  0
   -0.1718   -0.6414    0.0000 C   0  0  0  0  0  0  0  0  0
   -0.7027   -0.0100    0.0000 C   0  0  0  0  0  0  0  0  0
   -0.4531   -1.4170    0.0000 C   0  0  0  0  0  0  0  0  0
    2.1172    1.2450    0.0000 C   0  0  0  0  0  0  0  0  0
    2.4176    0.4250    0.0000 C   0  0  0  0  0  0  0  0  0
    3.1181   -0.0803    0.0000 C   0  0  0  0  0  0  0  0  0
    3.0346   -0.9010    0.0000 C   0  0  0  0  0  0  0  0  0
    2.2821   -1.2391    0.0000 C   0  0  0  0  0  0  0  0  0
    1.6130   -0.7565    0.0000 C   0  0  0  0  0  0  0  0  0
    2.1987   -2.0599    0.0000 C   0  0  0  0  0  0  0  0  0
    2.9989    1.2958    0.0000 C   0  0  0  0  0  0  0  0  0
    2.0702    2.2319    0.0000 C   0  0  0  0  0  0  0  0  0
    2.8036    2.7016    0.0000 C   0  0  0  0  0  0  0  0  0
    2.8813    3.6702    0.0000 O   0  0  0  0  0  0  0  0  0
    3.6516    2.8271    0.0000 C   0  0  0  0  0  0  0  0  0
    3.9551    3.5942    0.0000 C   0  0  0  0  0  0  0  0  0
    4.1642    2.1806    0.0000 C   0  0  0  0  0  0  0  0  0
    2.0364    2.8705    0.0000 C   0  0  0  0  0  0  0  0  0
    2.9600    3.1637    0.0000 O   0  0  0  0  0  0  0  0  0
    1.1102    2.2212    0.0000 C   0  0  0  0  0  0  0  0  0
    0.8447    3.1353    0.0000 O   0  0  0  0  0  0  0  0  0
    0.6057    1.7969    0.0000 C   0  0  0  0  0  0  0  0  0
   -0.1558    1.3974    0.0000 C   0  0  0  0  0  0  0  0  0
   -0.9549    1.0682    0.0000 C   0  0  0  0  0  0  0  0  0
   -1.6085    1.5717    0.0000 C   0  0  0  0  0  0  0  0  0
   -2.3713    1.2575    0.0000 C   0  0  0  0  0  0  0  0  0
   -1.4992    2.3895    0.0000 C   0  0  0  0  0  0  0  0  0
    1.5780    3.5970    0.0000 C   0  0  0  0  0  0  0  0  0
    1.5386    4.4833    0.0000 C   0  0  0  0  0  0  0  0  0
    0.8065    4.8636    0.0000 C   0  0  0  0  0  0  0  0  0
    0.7698    5.6878    0.0000 C   0  0  0  0  0  0  0  0  0
    0.1111    4.4198    0.0000 C   0  0  0  0  0  0  0  0  0
  1  2  1  0  0  0  0
  2  3  1  0  0  0  0
  2 29  2  0  0  0  0
  3  4  1  0  0  0  0
  3 25  1  0  0  0  0
  3 35  1  0  0  0  0
  4  5  1  0  0  0  0
  5  6  1  0  0  0  0
  5 11  1  0  0  0  0
  6  7  1  0  0  0  0
  7  8  2  0  0  0  0
  8  9  1  0  0  0  0
  8 10  1  0  0  0  0
 11 12  1  0  0  0  0
 11 18  1  0  0  0  0
 11 19  1  0  0  0  0
 12 13  1  0  0  0  0
 13 14  1  0  0  0  0
 14 15  2  0  0  0  0
 15 16  1  0  0  0  0
 15 17  1  0  0  0  0
 19 20  1  0  0  0  0
 19 25  1  0  0  0  0
 19 27  1  0  0  0  0
 20 21  2  0  0  0  0
 20 22  1  0  0  0  0
 22 23  1  0  0  0  0
 22 24  1  0  0  0  0
 25 26  2  0  0  0  0
 27 28  2  0  0  0  0
 27 29  1  0  0  0  0
 29 30  1  0  0  0  0
 30 31  1  0  0  0  0
 31 32  2  0  0  0  0
 32 33  1  0  0  0  0
 32 34  1  0  0  0  0
 35 36  1  0  0  0  0
 36 37  2  0  0  0  0
 37 38  1  0  0  0  0
 37 39  1  0  0  0  0
M  END
>  <Name_Molregno>
Hyperforin

>  <5-HT1A>
5

>  <5-HT1D>
5

>  <5-HT3>
5

>  <5-HT5>
5

>  <5-HT6>
5

>  <5-HT7>
5

>  <Alpha-1A>
5

>  <Alpha-1B>
5

>  <Alpha-2A>
5

>  <Alpha-2B>
5

>  <Alpha-2C>
5

>  <DOPAMINE D1>
6.22

>  <DOPAMINE D5>
5

>  <Muscarinic acetylcholine receptor M1>
5

>  <Muscarinic acetylcholine receptor M2>
5

>  <Muscarinic acetylcholine receptor M3>
5

>  <Muscarinic acetylcholine receptor M4>
5

>  <Muscarinic acetylcholine receptor M5>
5

>  <Norepinephrine transporter>
5

>  <Serotonin transporter>
5

$$$$
Hypericin
  Marvin  02231216192D 0   1.00000     0.00000     0

 39 46  0  0  0  0  0  0  0  0999 V2000
   -0.3746   -3.0738    0.0000 O   0  0  0  0  0  0  0  0  0
    0.1655   -2.4502    0.0000 C   0  0  0  0  0  0  0  0  0
    0.9756   -2.6061    0.0000 C   0  0  0  0  0  0  0  0  0
    1.5157   -1.9824    0.0000 C   0  0  0  0  0  0  0  0  0
    1.2457   -1.2029    0.0000 C   0  0  0  0  0  0  0  0  0
    1.7858   -0.5792    0.0000 C   0  0  0  0  0  0  0  0  0
    2.5959   -0.7352    0.0000 C   0  0  0  0  0  0  0  0  0
    3.1360   -0.1115    0.0000 C   0  0  0  0  0  0  0  0  0
    3.9461   -0.2674    0.0000 C   0  0  0  0  0  0  0  0  0
    4.4862    0.3562    0.0000 O   0  0  0  0  0  0  0  0  0
    4.2162   -1.0470    0.0000 C   0  0  0  0  0  0  0  0  0
    3.6761   -1.6706    0.0000 C   0  0  0  0  0  0  0  0  0
    3.9461   -2.4502    0.0000 C   0  0  0  0  0  0  0  0  0
    3.4060   -3.0738    0.0000 C   0  0  0  0  0  0  0  0  0
    2.5959   -2.9179    0.0000 C   0  0  0  0  0  0  0  0  0
    2.0558   -3.5415    0.0000 C   0  0  0  0  0  0  0  0  0
    1.2457   -3.3856    0.0000 C   0  0  0  0  0  0  0  0  0
    0.7056   -4.0093    0.0000 O   0  0  0  0  0  0  0  0  0
    2.3258   -4.3211    0.0000 C   0  0  0  0  0  0  0  0  0
    1.7858   -4.9447    0.0000 O   0  0  0  0  0  0  0  0  0
    3.1360   -4.4770    0.0000 C   0  0  0  0  0  0  0  0  0
    3.6761   -3.8534    0.0000 C   0  0  0  0  0  0  0  0  0
    4.4862   -4.0093    0.0000 O   0  0  0  0  0  0  0  0  0
    2.3258   -2.1384    0.0000 C   0  0  0  0  0  0  0  0  0
    2.8659   -1.5147    0.0000 C   0  0  0  0  0  0  0  0  0
    4.7562   -2.6061    0.0000 C   0  0  0  0  0  0  0  0  0
    5.0263   -3.3856    0.0000 O   0  0  0  0  0  0  0  0  0
    5.2963   -1.9824    0.0000 C   0  0  0  0  0  0  0  0  0
    5.0263   -1.2029    0.0000 C   0  0  0  0  0  0  0  0  0
    5.5664   -0.5792    0.0000 O   0  0  0  0  0  0  0  0  0
    2.8659    0.6680    0.0000 C   0  0  0  0  0  0  0  0  0
    3.4060    1.2917    0.0000 O   0  0  0  0  0  0  0  0  0
    2.0558    0.8239    0.0000 C   0  0  0  0  0  0  0  0  0
    1.5157    0.2003    0.0000 C   0  0  0  0  0  0  0  0  0
    0.7056    0.3562    0.0000 C   0  0  0  0  0  0  0  0  0
    0.4355   -1.0470    0.0000 C   0  0  0  0  0  0  0  0  0
   -0.1046   -1.6706    0.0000 C   0  0  0  0  0  0  0  0  0
    0.1655   -0.2674    0.0000 C   0  0  0  0  0  0  0  0  0
   -0.6446   -0.1115    0.0000 O   0  0  0  0  0  0  0  0  0
  1  2  1  0  0  0  0
  2  3  4  0  0  0  0
  2 37  4  0  0  0  0
  3  4  4  0  0  0  0
  3 17  1  0  0  0  0
  4  5  4  0  0  0  0
  4 24  4  0  0  0  0
  5  6  4  0  0  0  0
  5 36  4  0  0  0  0
  6  7  4  0  0  0  0
  6 34  4  0  0  0  0
  7  8  4  0  0  0  0
  7 25  4  0  0  0  0
  8  9  1  0  0  0  0
  8 31  4  0  0  0  0
  9 10  2  0  0  0  0
  9 11  1  0  0  0  0
 11 12  4  0  0  0  0
 11 29  4  0  0  0  0
 12 13  4  0  0  0  0
 12 25  4  0  0  0  0
 13 14  4  0  0  0  0
 13 26  4  0  0  0  0
 14 15  4  0  0  0  0
 14 22  4  0  0  0  0
 15 16  4  0  0  0  0
 15 24  4  0  0  0  0
 16 17  1  0  0  0  0
 16 19  4  0  0  0  0
 17 18  2  0  0  0  0
 19 20  1  0  0  0  0
 19 21  4  0  0  0  0
 21 22  4  0  0  0  0
 22 23  1  0  0  0  0
 24 25  4  0  0  0  0
 26 27  1  0  0  0  0
 26 28  4  0  0  0  0
 28 29  4  0  0  0  0
 29 30  1  0  0  0  0
 31 32  1  0  0  0  0
 31 33  4  0  0  0  0
 33 34  4  0  0  0  0
 34 35  1  0  0  0  0
 36 37  4  0  0  0  0
 36 38  1  0  0  0  0
 38 39  1  0  0  0  0
M  END
>  <Name_Molregno>
Hypericin

>  <5-HT1A>
5

>  <5-HT1D>
5

>  <5-HT3>
5

>  <5-HT5>
5

>  <5-HT6>
5

>  <5-HT7>
5

>  <Alpha-1A>
5

>  <Alpha-1B>
5

>  <Alpha-2A>
5

>  <Alpha-2B>
5

>  <Alpha-2C>
5

>  <DOPAMINE D1>
5

>  <DOPAMINE D5>
5

>  <Muscarinic acetylcholine receptor M1>
5

>  <Muscarinic acetylcholine receptor M2>
5

>  <Muscarinic acetylcholine receptor M3>
5

>  <Muscarinic acetylcholine receptor M4>
5

>  <Muscarinic acetylcholine receptor M5>
5

>  <Norepinephrine transporter>
5

>  <Serotonin transporter>
5

$$$$
Hyperoside
  Marvin  02231216192D 0   1.00000     0.00000     0

 33 36  0  0  1  0  0  0  0  0999 V2000
    1.3731    1.4076    0.0000 O   0  0  0  0  0  0  0  0  0
    1.3731    2.2326    0.0000 C   0  0  0  0  0  0  0  0  0
    2.0876    2.6451    0.0000 C   0  0  0  0  0  0  0  0  0
    2.0876    3.4701    0.0000 O   0  0  0  0  0  0  0  0  0
    0.6587    2.6451    0.0000 C   0  0  0  0  0  0  0  0  0
    0.6587    3.4701    0.0000 O   0  0  0  0  0  0  0  0  0
   -0.0558    2.2326    0.0000 C   0  0  0  0  0  0  0  0  0
   -0.7703    2.6451    0.0000 O   0  0  0  0  0  0  0  0  0
   -0.0558    1.4076    0.0000 C   0  0  0  0  0  0  0  0  0
   -0.7703    0.9951    0.0000 O   0  0  0  0  0  0  0  0  0
    0.6587    0.9951    0.0000 C   0  0  0  0  0  0  0  0  0
    0.6587    0.1701    0.0000 O   0  0  0  0  0  0  0  0  0
    1.3731   -0.2424    0.0000 C   0  0  0  0  0  0  0  0  0
    1.3731   -1.0674    0.0000 C   0  0  0  0  0  0  0  0  0
    2.0876   -1.4799    0.0000 O   0  0  0  0  0  0  0  0  0
    2.8021   -1.0674    0.0000 C   0  0  0  0  0  0  0  0  0
    2.8021   -0.2424    0.0000 C   0  0  0  0  0  0  0  0  0
    2.0876    0.1701    0.0000 C   0  0  0  0  0  0  0  0  0
    2.0876    0.9951    0.0000 O   0  0  0  0  0  0  0  0  0
    3.5166    0.1701    0.0000 C   0  0  0  0  0  0  0  0  0
    3.5166    0.9951    0.0000 O   0  0  0  0  0  0  0  0  0
    4.2310   -0.2424    0.0000 C   0  0  0  0  0  0  0  0  0
    4.2310   -1.0674    0.0000 C   0  0  0  0  0  0  0  0  0
    4.9455   -1.4799    0.0000 O   0  0  0  0  0  0  0  0  0
    3.5166   -1.4799    0.0000 C   0  0  0  0  0  0  0  0  0
    0.6587   -1.4799    0.0000 C   0  0  0  0  0  0  0  0  0
    0.6587   -2.3049    0.0000 C   0  0  0  0  0  0  0  0  0
   -0.0558   -2.7174    0.0000 C   0  0  0  0  0  0  0  0  0
   -0.0558   -3.5424    0.0000 O   0  0  0  0  0  0  0  0  0
   -0.7703   -2.3049    0.0000 C   0  0  0  0  0  0  0  0  0
   -1.4847   -2.7174    0.0000 O   0  0  0  0  0  0  0  0  0
   -0.7703   -1.4799    0.0000 C   0  0  0  0  0  0  0  0  0
   -0.0558   -1.0674    0.0000 C   0  0  0  0  0  0  0  0  0
  1  2  1  0  0  0  0
  1 11  1  0  0  0  0
  2  3  1  0  0  0  0
  2  5  1  0  0  0  0
  3  4  1  0  0  0  0
  5  6  1  0  0  0  0
  5  7  1  0  0  0  0
  7  8  1  0  0  0  0
  7  9  1  0  0  0  0
  9 10  1  0  0  0  0
  9 11  1  0  0  0  0
 11 12  1  0  0  0  0
 12 13  1  0  0  0  0
 13 14  2  0  0  0  0
 13 18  1  0  0  0  0
 14 15  1  0  0  0  0
 14 26  1  0  0  0  0
 15 16  1  0  0  0  0
 16 17  1  0  0  0  0
 16 25  2  0  0  0  0
 17 18  2  0  0  0  0
 17 20  1  0  0  0  0
 18 19  1  0  0  0  0
 20 21  1  0  0  0  0
 20 22  2  0  0  0  0
 22 23  1  0  0  0  0
 23 24  2  0  0  0  0
 23 25  1  0  0  0  0
 26 27  4  0  0  0  0
 26 33  4  0  0  0  0
 27 28  4  0  0  0  0
 28 29  1  0  0  0  0
 28 30  4  0  0  0  0
 30 31  1  0  0  0  0
 30 32  4  0  0  0  0
 32 33  4  0  0  0  0
M  END
>  <Name_Molregno>
Hyperoside

>  <5-HT1A>
5

>  <5-HT1D>
5

>  <5-HT3>
5

>  <5-HT5>
5

>  <5-HT6>
5

>  <5-HT7>
5

>  <Alpha-1A>
5

>  <Alpha-1B>
5

>  <Alpha-2A>
5.38

>  <Alpha-2B>
5

>  <Alpha-2C>
5.13

>  <DOPAMINE D1>
5

>  <DOPAMINE D5>
5

>  <Muscarinic acetylcholine receptor M1>
5

>  <Muscarinic acetylcholine receptor M2>
5

>  <Muscarinic acetylcholine receptor M3>
5

>  <Muscarinic acetylcholine receptor M4>
5

>  <Muscarinic acetylcholine receptor M5>
5

>  <Norepinephrine transporter>
5

>  <Serotonin transporter>
5

$$$$
ibuprofen
  Marvin  02231216192D 0   1.00000     0.00000     0

 15 15  0  0  1  0  0  0  0  0999 V2000
    3.0591   -3.4943    0.0000 O   0  0  0  0  0  0  0  0  0
    3.0591   -2.6693    0.0000 C   0  0  0  0  0  0  0  0  0
    3.7735   -2.2568    0.0000 O   0  0  0  0  0  0  0  0  0
    2.3446   -2.2568    0.0000 C   0  0  0  0  0  0  0  0  0
    1.6301   -2.6693    0.0000 C   0  0  0  0  0  0  0  0  0
    2.3446   -1.4318    0.0000 C   0  0  0  0  0  0  0  0  0
    1.6301   -1.0193    0.0000 C   0  0  0  0  0  0  0  0  0
    1.6301   -0.1943    0.0000 C   0  0  0  0  0  0  0  0  0
    2.3446    0.2182    0.0000 C   0  0  0  0  0  0  0  0  0
    3.0591   -0.1943    0.0000 C   0  0  0  0  0  0  0  0  0
    3.0591   -1.0193    0.0000 C   0  0  0  0  0  0  0  0  0
    2.3446    1.0432    0.0000 C   0  0  0  0  0  0  0  0  0
    3.0591    1.4557    0.0000 C   0  0  0  0  0  0  0  0  0
    3.0591    2.2807    0.0000 C   0  0  0  0  0  0  0  0  0
    3.7735    1.0432    0.0000 C   0  0  0  0  0  0  0  0  0
  1  2  1  0  0  0  0
  2  3  2  0  0  0  0
  2  4  1  0  0  0  0
  4  5  1  0  0  0  0
  4  6  1  0  0  0  0
  6  7  4  0  0  0  0
  6 11  4  0  0  0  0
  7  8  4  0  0  0  0
  8  9  4  0  0  0  0
  9 10  4  0  0  0  0
  9 12  1  0  0  0  0
 10 11  4  0  0  0  0
 12 13  1  0  0  0  0
 13 14  1  0  0  0  0
 13 15  1  0  0  0  0
M  END
>  <Name_Molregno>
ibuprofen

>  <5-HT1A>
5

>  <5-HT1B>
5

>  <5-HT1D>
5

>  <5-HT1E>
5

>  <5-HT2A>
5

>  <5-HT3>
5

>  <5-HT6>
5

>  <5-HT7>
5

>  <Alpha-1A>
5

>  <Alpha-1B>
5

>  <Alpha-2A>
5

>  <Alpha-2B>
5

>  <Alpha-2C>
5

>  <DOPAMINE D1>
5

>  <DOPAMINE D2>
5

>  <DOPAMINE D4>
5

>  <DOPAMINE D5>
5

>  <Dopamine transporter>
5

>  <HISTAMINE H1>
5

>  <HISTAMINE H2>
5

>  <Muscarinic acetylcholine receptor M2>
5

>  <Muscarinic acetylcholine receptor M5>
5

>  <Norepinephrine transporter>
5

>  <Serotonin transporter>
5

$$$$
ICS205-930
  Marvin  02231216192D 0   1.00000     0.00000     0

 21 24  0  0  1  0  0  0  0  0999 V2000
   -0.3691   -0.4673    0.0000 O   0  0  0  0  0  0  0  0  0
   -0.1141    0.3173    0.0000 C   0  0  0  0  0  0  0  0  0
    0.6928    0.4889    0.0000 O   0  0  0  0  0  0  0  0  0
   -0.6662    0.9304    0.0000 C   0  0  0  0  0  0  0  0  0
   -0.4946    1.7374    0.0000 C   0  0  0  0  0  0  0  0  0
   -1.2091    2.1499    0.0000 C   0  0  0  0  0  0  0  0  0
   -1.8222    1.5979    0.0000 N   0  0  0  0  0  0  0  0  0
   -1.4866    0.8442    0.0000 C   0  0  0  0  0  0  0  0  0
   -1.2091    2.9749    0.0000 C   0  0  0  0  0  0  0  0  0
   -0.4946    3.3874    0.0000 C   0  0  0  0  0  0  0  0  0
    0.2198    2.9749    0.0000 C   0  0  0  0  0  0  0  0  0
    0.2198    2.1499    0.0000 C   0  0  0  0  0  0  0  0  0
    0.1830   -1.0804    0.0000 C   0  0  0  0  0  0  0  0  0
    0.4889   -1.8509    0.0000 C   0  0  0  0  0  0  0  0  0
    1.3939   -1.6417    0.0000 C   0  0  0  0  0  0  0  0  0
    2.0341   -1.9548    0.0000 N   0  0  0  0  0  0  0  0  0
    1.7276   -1.1888    0.0000 C   0  0  0  0  0  0  0  0  0
    0.7773   -1.3918    0.0000 C   0  0  0  0  0  0  0  0  0
    2.0872   -0.3836    0.0000 C   0  0  0  0  0  0  0  0  0
    1.5594   -0.8818    0.0000 C   0  0  0  0  0  0  0  0  0
    2.5953   -2.5594    0.0000 C   0  0  0  0  0  0  0  0  0
  1  2  1  0  0  0  0
  1 13  1  0  0  0  0
  2  3  2  0  0  0  0
  2  4  1  0  0  0  0
  4  5  4  0  0  0  0
  4  8  4  0  0  0  0
  5  6  4  0  0  0  0
  5 12  4  0  0  0  0
  6  7  4  0  0  0  0
  6  9  4  0  0  0  0
  7  8  4  0  0  0  0
  9 10  4  0  0  0  0
 10 11  4  0  0  0  0
 11 12  4  0  0  0  0
 13 14  1  0  0  0  0
 13 18  1  0  0  0  0
 14 15  1  0  0  0  0
 15 16  1  0  0  0  0
 15 20  1  0  0  0  0
 16 17  1  0  0  0  0
 16 21  1  0  0  0  0
 17 18  1  0  0  0  0
 17 19  1  0  0  0  0
 19 20  1  0  0  0  0
M  STY  1   1 DAT
M  SAL   1  1   7
M  SDT   1 MRV_IMPLICIT_H                                        
M  SDD   1     0.0000    0.0000    DR    ALL  0       0  
M  SED   1 IMPL_H1
M  END
>  <Name_Molregno>
ICS205-930

>  <5-HT1A>
6.64

>  <5-HT1B>
5

>  <5-HT1D>
5

>  <5-HT1E>
5

>  <5-HT3>
8.2

>  <DOPAMINE D1>
5

>  <DOPAMINE D2>
5

$$$$
IDAZOXAN
  Marvin  02231216192D 0   1.00000     0.00000     0

 15 17  0  0  1  0  0  0  0  0999 V2000
    0.2447    0.0307    0.0000 O   0  0  0  0  0  0  0  0  0
    0.9592    0.4432    0.0000 C   0  0  0  0  0  0  0  0  0
    0.9592    1.2682    0.0000 C   0  0  0  0  0  0  0  0  0
    0.2447    1.6807    0.0000 O   0  0  0  0  0  0  0  0  0
   -0.4697    1.2682    0.0000 C   0  0  0  0  0  0  0  0  0
   -0.4697    0.4432    0.0000 C   0  0  0  0  0  0  0  0  0
   -1.1842    0.0307    0.0000 C   0  0  0  0  0  0  0  0  0
   -1.2704   -0.7898    0.0000 N   0  0  0  0  0  0  0  0  0
   -2.0774   -0.9613    0.0000 C   0  0  0  0  0  0  0  0  0
   -2.4899   -0.2468    0.0000 C   0  0  0  0  0  0  0  0  0
   -1.9379    0.3663    0.0000 N   0  0  0  0  0  0  0  0  0
    1.6737    1.6807    0.0000 C   0  0  0  0  0  0  0  0  0
    2.3881    1.2682    0.0000 C   0  0  0  0  0  0  0  0  0
    2.3881    0.4432    0.0000 C   0  0  0  0  0  0  0  0  0
    1.6737    0.0307    0.0000 C   0  0  0  0  0  0  0  0  0
  1  2  1  0  0  0  0
  1  6  1  0  0  0  0
  2  3  4  0  0  0  0
  2 15  4  0  0  0  0
  3  4  1  0  0  0  0
  3 12  4  0  0  0  0
  4  5  1  0  0  0  0
  5  6  1  0  0  0  0
  6  7  1  0  0  0  0
  7  8  1  0  0  0  0
  7 11  2  0  0  0  0
  8  9  1  0  0  0  0
  9 10  1  0  0  0  0
 10 11  1  0  0  0  0
 12 13  4  0  0  0  0
 13 14  4  0  0  0  0
 14 15  4  0  0  0  0
M  END
>  <Name_Molregno>
IDAZOXAN

>  <5-HT1A>
6.18

>  <5-HT3>
5

>  <Alpha-2A>
8.09

>  <Alpha-2B>
7.36

>  <Alpha-2C>
7.72

>  <DOPAMINE D1>
5

>  <DOPAMINE D2>
5

$$$$
ILOPERIDONE
  Marvin  02231216192D 0   1.00000     0.00000     0

 31 34  0  0  0  0  0  0  0  0999 V2000
    9.8408   -5.0338    0.0000 F   0  0  0  0  0  0  0  0  0
    9.1263   -4.6213    0.0000 C   0  0  0  0  0  0  0  0  0
    8.4119   -5.0338    0.0000 C   0  0  0  0  0  0  0  0  0
    7.6974   -4.6213    0.0000 C   0  0  0  0  0  0  0  0  0
    6.9128   -4.8762    0.0000 O   0  0  0  0  0  0  0  0  0
    6.4279   -4.2088    0.0000 N   0  0  0  0  0  0  0  0  0
    6.9128   -3.5413    0.0000 C   0  0  0  0  0  0  0  0  0
    7.6974   -3.7963    0.0000 C   0  0  0  0  0  0  0  0  0
    8.4119   -3.3838    0.0000 C   0  0  0  0  0  0  0  0  0
    9.1263   -3.7963    0.0000 C   0  0  0  0  0  0  0  0  0
    6.6578   -2.7567    0.0000 C   0  0  0  0  0  0  0  0  0
    5.8509   -2.5852    0.0000 C   0  0  0  0  0  0  0  0  0
    5.5959   -1.8006    0.0000 C   0  0  0  0  0  0  0  0  0
    6.1480   -1.1875    0.0000 N   0  0  0  0  0  0  0  0  0
    6.9549   -1.3590    0.0000 C   0  0  0  0  0  0  0  0  0
    7.2099   -2.1436    0.0000 C   0  0  0  0  0  0  0  0  0
    5.8930   -0.4028    0.0000 C   0  0  0  0  0  0  0  0  0
    5.0861   -0.2313    0.0000 C   0  0  0  0  0  0  0  0  0
    4.8311    0.5533    0.0000 C   0  0  0  0  0  0  0  0  0
    4.0241    0.7248    0.0000 O   0  0  0  0  0  0  0  0  0
    3.7692    1.5095    0.0000 C   0  0  0  0  0  0  0  0  0
    2.9622    1.6810    0.0000 C   0  0  0  0  0  0  0  0  0
    2.7073    2.4656    0.0000 C   0  0  0  0  0  0  0  0  0
    3.2593    3.0787    0.0000 C   0  0  0  0  0  0  0  0  0
    4.0663    2.9072    0.0000 C   0  0  0  0  0  0  0  0  0
    4.3212    2.1225    0.0000 C   0  0  0  0  0  0  0  0  0
    5.1282    1.9510    0.0000 O   0  0  0  0  0  0  0  0  0
    5.6802    2.5641    0.0000 C   0  0  0  0  0  0  0  0  0
    3.0044    3.8633    0.0000 C   0  0  0  0  0  0  0  0  0
    2.1974    4.0348    0.0000 O   0  0  0  0  0  0  0  0  0
    3.5564    4.4764    0.0000 C   0  0  0  0  0  0  0  0  0
  1  2  1  0  0  0  0
  2  3  4  0  0  0  0
  2 10  4  0  0  0  0
  3  4  4  0  0  0  0
  4  5  4  0  0  0  0
  4  8  4  0  0  0  0
  5  6  4  0  0  0  0
  6  7  4  0  0  0  0
  7  8  4  0  0  0  0
  7 11  1  0  0  0  0
  8  9  4  0  0  0  0
  9 10  4  0  0  0  0
 11 12  1  0  0  0  0
 11 16  1  0  0  0  0
 12 13  1  0  0  0  0
 13 14  1  0  0  0  0
 14 15  1  0  0  0  0
 14 17  1  0  0  0  0
 15 16  1  0  0  0  0
 17 18  1  0  0  0  0
 18 19  1  0  0  0  0
 19 20  1  0  0  0  0
 20 21  1  0  0  0  0
 21 22  4  0  0  0  0
 21 26  4  0  0  0  0
 22 23  4  0  0  0  0
 23 24  4  0  0  0  0
 24 25  4  0  0  0  0
 24 29  1  0  0  0  0
 25 26  4  0  0  0  0
 26 27  1  0  0  0  0
 27 28  1  0  0  0  0
 29 30  2  0  0  0  0
 29 31  1  0  0  0  0
M  END
>  <Name_Molregno>
ILOPERIDONE

>  <5-HT1A>
7.18

>  <5-HT1B>
7.05

>  <5-HT1D>
7.82

>  <5-HT2A>
9.46

>  <5-HT2C>
7.27

>  <5-HT3>
5

>  <5-HT6>
7.2

>  <5-HT7>
6.95

>  <Alpha-2A>
6.79

>  <Alpha-2B>
6.79

>  <Alpha-2C>
7.79

>  <Beta-1>
5

>  <Beta-2>
5

>  <DOPAMINE D1>
7.02

>  <DOPAMINE D2>
8.23

>  <DOPAMINE D3>
8

>  <DOPAMINE D4>
7.96

>  <DOPAMINE D5>
6.5

>  <Dopamine transporter>
5.53

>  <HISTAMINE H1>
7.91

>  <Muscarinic acetylcholine receptor M1>
5.31

>  <Muscarinic acetylcholine receptor M2>
5.48

>  <Muscarinic acetylcholine receptor M3>
5

>  <Muscarinic acetylcholine receptor M4>
5.08

>  <Muscarinic acetylcholine receptor M5>
5

>  <Norepinephrine transporter>
5.83

$$$$
Ketorolac
  Marvin  02231216192D 0   1.00000     0.00000     0

 19 21  0  0  1  0  0  0  0  0999 V2000
    1.4450    2.2138    0.0000 O   0  0  0  0  0  0  0  0  0
    2.2520    2.0422    0.0000 C   0  0  0  0  0  0  0  0  0
    2.8040    2.6553    0.0000 O   0  0  0  0  0  0  0  0  0
    2.5069    1.2576    0.0000 C   0  0  0  0  0  0  0  0  0
    2.0220    0.5902    0.0000 C   0  0  0  0  0  0  0  0  0
    2.5069   -0.0773    0.0000 C   0  0  0  0  0  0  0  0  0
    3.2915    0.1777    0.0000 N   0  0  0  0  0  0  0  0  0
    3.2915    1.0027    0.0000 C   0  0  0  0  0  0  0  0  0
    4.0761    1.2576    0.0000 C   0  0  0  0  0  0  0  0  0
    4.5611    0.5902    0.0000 C   0  0  0  0  0  0  0  0  0
    4.0761   -0.0773    0.0000 C   0  0  0  0  0  0  0  0  0
    4.3311   -0.8619    0.0000 C   0  0  0  0  0  0  0  0  0
    5.1381   -1.0334    0.0000 O   0  0  0  0  0  0  0  0  0
    3.7791   -1.4750    0.0000 C   0  0  0  0  0  0  0  0  0
    4.0340   -2.2596    0.0000 C   0  0  0  0  0  0  0  0  0
    3.4820   -2.8727    0.0000 C   0  0  0  0  0  0  0  0  0
    2.6750   -2.7012    0.0000 C   0  0  0  0  0  0  0  0  0
    2.4201   -1.9166    0.0000 C   0  0  0  0  0  0  0  0  0
    2.9721   -1.3035    0.0000 C   0  0  0  0  0  0  0  0  0
  1  2  1  0  0  0  0
  2  3  2  0  0  0  0
  2  4  1  0  0  0  0
  4  5  1  0  0  0  0
  4  8  1  0  0  0  0
  5  6  1  0  0  0  0
  6  7  1  0  0  0  0
  7  8  4  0  0  0  0
  7 11  4  0  0  0  0
  8  9  4  0  0  0  0
  9 10  4  0  0  0  0
 10 11  4  0  0  0  0
 11 12  1  0  0  0  0
 12 13  2  0  0  0  0
 12 14  1  0  0  0  0
 14 15  4  0  0  0  0
 14 19  4  0  0  0  0
 15 16  4  0  0  0  0
 16 17  4  0  0  0  0
 17 18  4  0  0  0  0
 18 19  4  0  0  0  0
M  END
>  <Name_Molregno>
Ketorolac

>  <5-HT1A>
5

>  <5-HT1B>
5

>  <5-HT1D>
5

>  <5-HT1E>
5

>  <5-HT2A>
5

>  <5-HT3>
5

>  <5-HT5>
5

>  <5-HT6>
5

>  <5-HT7>
5

>  <Alpha-1A>
5

>  <Alpha-1B>
5

>  <Alpha-2A>
5

>  <Alpha-2B>
5

>  <Alpha-2C>
5

>  <DOPAMINE D1>
5

>  <DOPAMINE D2>
5

>  <DOPAMINE D4>
5

>  <DOPAMINE D5>
5

>  <Dopamine transporter>
5

>  <HISTAMINE H1>
5

>  <HISTAMINE H2>
5

>  <Muscarinic acetylcholine receptor M2>
5

>  <Muscarinic acetylcholine receptor M5>
5

>  <Norepinephrine transporter>
5

>  <Serotonin transporter>
5

$$$$
L-cysteic-acid
  Marvin  02231216192D 0   1.00000     0.00000     0

 10  9  0  0  1  0  0  0  0  0999 V2000
   -1.9749    0.1579    0.0000 S   0  0  0  0  0  0  0  0  0
   -2.6894    0.5704    0.0000 O   0  0  0  0  0  0  0  0  0
   -2.3874   -0.5565    0.0000 O   0  0  0  0  0  0  0  0  0
   -1.5624    0.8724    0.0000 O   0  0  0  0  0  0  0  0  0
   -1.2605   -0.2546    0.0000 C   0  0  0  0  0  0  0  0  0
   -0.5460    0.1579    0.0000 C   0  0  0  0  0  0  0  0  0
   -0.5460    0.9829    0.0000 N   0  0  0  0  0  0  0  0  0
    0.1685   -0.2546    0.0000 C   0  0  0  0  0  0  0  0  0
    0.8829    0.1579    0.0000 O   0  0  0  0  0  0  0  0  0
    0.1685   -1.0796    0.0000 O   0  0  0  0  0  0  0  0  0
  1  2  2  0  0  0  0
  1  3  2  0  0  0  0
  1  4  1  0  0  0  0
  1  5  1  0  0  0  0
  5  6  1  0  0  0  0
  6  7  1  0  0  0  0
  6  8  1  0  0  0  0
  8  9  1  0  0  0  0
  8 10  2  0  0  0  0
M  END
>  <Name_Molregno>
L-cysteic-acid

>  <5-HT1A>
5

>  <5-HT1B>
5

>  <5-HT1D>
5

>  <5-HT3>
5

>  <5-HT5>
5

>  <5-HT6>
5

>  <5-HT7>
5

>  <Alpha-1A>
5

>  <Alpha-1B>
5

>  <Alpha-2A>
5

>  <Alpha-2C>
5

>  <DOPAMINE D1>
5

>  <DOPAMINE D2>
5

>  <DOPAMINE D3>
5

>  <DOPAMINE D5>
5

>  <Dopamine transporter>
5

>  <HISTAMINE H1>
5

>  <HISTAMINE H2>
5

>  <HISTAMINE H4>
5

>  <Muscarinic acetylcholine receptor M1>
5

>  <Muscarinic acetylcholine receptor M2>
5

>  <Muscarinic acetylcholine receptor M3>
5

>  <Muscarinic acetylcholine receptor M4>
5

>  <Muscarinic acetylcholine receptor M5>
5

>  <Norepinephrine transporter>
5

>  <Serotonin transporter>
5

$$$$
L-cysteine
  Marvin  02231216192D 0   1.00000     0.00000     0

  7  6  0  0  1  0  0  0  0  0999 V2000
    1.5580    2.1190    0.0000 S   0  0  0  0  0  0  0  0  0
    1.1455    1.4045    0.0000 C   0  0  0  0  0  0  0  0  0
    1.5580    0.6901    0.0000 C   0  0  0  0  0  0  0  0  0
    2.3830    0.6901    0.0000 N   0  0  0  0  0  0  0  0  0
    1.1455   -0.0244    0.0000 C   0  0  0  0  0  0  0  0  0
    1.5580   -0.7389    0.0000 O   0  0  0  0  0  0  0  0  0
    0.3205   -0.0244    0.0000 O   0  0  0  0  0  0  0  0  0
  1  2  1  0  0  0  0
  2  3  1  0  0  0  0
  3  4  1  0  0  0  0
  3  5  1  0  0  0  0
  5  6  1  0  0  0  0
  5  7  2  0  0  0  0
M  END
>  <Name_Molregno>
L-cysteine

>  <5-HT1A>
5

>  <5-HT1B>
5

>  <5-HT1D>
5

>  <5-HT3>
5

>  <5-HT5>
5

>  <5-HT6>
5

>  <5-HT7>
5

>  <Alpha-1A>
5

>  <Alpha-1B>
5

>  <Alpha-2A>
5

>  <Alpha-2B>
5

>  <Alpha-2C>
5

>  <DOPAMINE D1>
5

>  <DOPAMINE D2>
5

>  <DOPAMINE D3>
5

>  <DOPAMINE D5>
5

>  <Dopamine transporter>
5

>  <HISTAMINE H1>
5

>  <HISTAMINE H2>
5

>  <HISTAMINE H4>
5

>  <Muscarinic acetylcholine receptor M1>
5

>  <Muscarinic acetylcholine receptor M2>
5

>  <Muscarinic acetylcholine receptor M3>
5

>  <Muscarinic acetylcholine receptor M4>
5

>  <Muscarinic acetylcholine receptor M5>
5

>  <Norepinephrine transporter>
5

>  <Serotonin transporter>
5

$$$$
L-cysteine-sulfinic-acid
  Marvin  02231216192D 0   1.00000     0.00000     0

  9  8  0  0  1  0  0  0  0  0999 V2000
   -2.0945    0.5537    0.0000 S   0  0  0  0  0  0  0  0  0
   -2.8090    0.1412    0.0000 O   0  0  0  0  0  0  0  0  0
   -2.0945    1.3787    0.0000 O   0  0  0  0  0  0  0  0  0
   -1.3800    0.1412    0.0000 C   0  0  0  0  0  0  0  0  0
   -0.6656    0.5537    0.0000 C   0  0  0  0  0  0  0  0  0
   -0.6656    1.3787    0.0000 N   0  0  0  0  0  0  0  0  0
    0.0489    0.1412    0.0000 C   0  0  0  0  0  0  0  0  0
    0.7634    0.5537    0.0000 O   0  0  0  0  0  0  0  0  0
    0.0489   -0.6838    0.0000 O   0  0  0  0  0  0  0  0  0
  1  2  2  0  0  0  0
  1  3  1  0  0  0  0
  1  4  1  0  0  0  0
  4  5  1  0  0  0  0
  5  6  1  0  0  0  0
  5  7  1  0  0  0  0
  7  8  1  0  0  0  0
  7  9  2  0  0  0  0
M  END
>  <Name_Molregno>
L-cysteine-sulfinic-acid

>  <5-HT1A>
5

>  <5-HT1B>
5

>  <5-HT1D>
5

>  <5-HT3>
5

>  <5-HT5>
5

>  <5-HT6>
5

>  <5-HT7>
5

>  <Alpha-1A>
5

>  <Alpha-1B>
5

>  <Alpha-2A>
5

>  <Alpha-2B>
5

>  <Alpha-2C>
5

>  <DOPAMINE D1>
5

>  <DOPAMINE D2>
5

>  <DOPAMINE D3>
5

>  <DOPAMINE D5>
5

>  <Dopamine transporter>
5

>  <HISTAMINE H1>
5

>  <HISTAMINE H2>
5

>  <HISTAMINE H4>
5

>  <Muscarinic acetylcholine receptor M1>
5

>  <Muscarinic acetylcholine receptor M2>
5

>  <Muscarinic acetylcholine receptor M3>
5

>  <Muscarinic acetylcholine receptor M4>
5

>  <Muscarinic acetylcholine receptor M5>
5

>  <Norepinephrine transporter>
5

>  <Serotonin transporter>
5

$$$$
L-homocysteine-thiolactone
  Marvin  02231216192D 0   1.00000     0.00000     0

  7  7  0  0  1  0  0  0  0  0999 V2000
    1.4299   -0.7189    0.0000 S   0  0  0  0  0  0  0  0  0
    1.1749   -1.5035    0.0000 C   0  0  0  0  0  0  0  0  0
    0.3499   -1.5035    0.0000 C   0  0  0  0  0  0  0  0  0
    0.0950   -0.7189    0.0000 C   0  0  0  0  0  0  0  0  0
   -0.6896   -0.4639    0.0000 N   0  0  0  0  0  0  0  0  0
    0.7624   -0.2339    0.0000 C   0  0  0  0  0  0  0  0  0
    0.7624    0.5911    0.0000 O   0  0  0  0  0  0  0  0  0
  1  2  1  0  0  0  0
  1  6  1  0  0  0  0
  2  3  1  0  0  0  0
  3  4  1  0  0  0  0
  4  5  1  0  0  0  0
  4  6  1  0  0  0  0
  6  7  2  0  0  0  0
M  END
>  <Name_Molregno>
L-homocysteine-thiolactone

>  <5-HT1A>
5

>  <5-HT3>
5

>  <5-HT5>
5

>  <5-HT6>
5

>  <5-HT7>
5

>  <Alpha-1A>
5

>  <Alpha-1B>
5

>  <Alpha-2A>
5

>  <Alpha-2B>
5

>  <Alpha-2C>
5

>  <DOPAMINE D1>
5

>  <DOPAMINE D2>
5

>  <DOPAMINE D5>
5

>  <Dopamine transporter>
5

>  <HISTAMINE H1>
5

>  <HISTAMINE H2>
5

>  <HISTAMINE H4>
5

>  <Muscarinic acetylcholine receptor M1>
5

>  <Muscarinic acetylcholine receptor M2>
5

>  <Muscarinic acetylcholine receptor M3>
5

>  <Muscarinic acetylcholine receptor M4>
5

>  <Muscarinic acetylcholine receptor M5>
5

>  <Norepinephrine transporter>
5

>  <Serotonin transporter>
5

$$$$
LOXAPINE
  Marvin  02231216192D 0   1.00000     0.00000     0

 23 26  0  0  0  0  0  0  0  0999 V2000
    3.9671    1.6854    0.0000 Cl  0  0  0  0  0  0  0  0  0
    3.1788    1.4422    0.0000 C   0  0  0  0  0  0  0  0  0
    2.5740    2.0033    0.0000 C   0  0  0  0  0  0  0  0  0
    1.7856    1.7602    0.0000 C   0  0  0  0  0  0  0  0  0
    1.6021    0.9558    0.0000 C   0  0  0  0  0  0  0  0  0
    0.8588    0.5979    0.0000 O   0  0  0  0  0  0  0  0  0
    0.1155    0.9558    0.0000 C   0  0  0  0  0  0  0  0  0
   -0.0681    1.7602    0.0000 C   0  0  0  0  0  0  0  0  0
    0.4463    2.4052    0.0000 N   0  0  0  0  0  0  0  0  0
    1.2713    2.4052    0.0000 C   0  0  0  0  0  0  0  0  0
    1.6292    3.1485    0.0000 N   0  0  0  0  0  0  0  0  0
    1.1645    3.8301    0.0000 C   0  0  0  0  0  0  0  0  0
    1.5224    4.5734    0.0000 C   0  0  0  0  0  0  0  0  0
    2.3451    4.6351    0.0000 N   0  0  0  0  0  0  0  0  0
    2.8099    3.9534    0.0000 C   0  0  0  0  0  0  0  0  0
    2.4519    3.2101    0.0000 C   0  0  0  0  0  0  0  0  0
    2.7031    5.3784    0.0000 C   0  0  0  0  0  0  0  0  0
   -0.8565    2.0033    0.0000 C   0  0  0  0  0  0  0  0  0
   -1.4612    1.4422    0.0000 C   0  0  0  0  0  0  0  0  0
   -1.2776    0.6379    0.0000 C   0  0  0  0  0  0  0  0  0
   -0.4893    0.3947    0.0000 C   0  0  0  0  0  0  0  0  0
    2.2068    0.3947    0.0000 C   0  0  0  0  0  0  0  0  0
    2.9952    0.6379    0.0000 C   0  0  0  0  0  0  0  0  0
  1  2  1  0  0  0  0
  2  3  4  0  0  0  0
  2 23  4  0  0  0  0
  3  4  4  0  0  0  0
  4  5  4  0  0  0  0
  4 10  1  0  0  0  0
  5  6  1  0  0  0  0
  5 22  4  0  0  0  0
  6  7  1  0  0  0  0
  7  8  4  0  0  0  0
  7 21  4  0  0  0  0
  8  9  1  0  0  0  0
  8 18  4  0  0  0  0
  9 10  2  0  0  0  0
 10 11  1  0  0  0  0
 11 12  1  0  0  0  0
 11 16  1  0  0  0  0
 12 13  1  0  0  0  0
 13 14  1  0  0  0  0
 14 15  1  0  0  0  0
 14 17  1  0  0  0  0
 15 16  1  0  0  0  0
 18 19  4  0  0  0  0
 19 20  4  0  0  0  0
 20 21  4  0  0  0  0
 22 23  4  0  0  0  0
M  END
>  <Name_Molregno>
LOXAPINE

>  <5-HT1A>
5.59

>  <5-HT1B>
6.41

>  <5-HT1D>
5.46

>  <5-HT1E>
5.85

>  <5-HT2A>
8.43

>  <5-HT2C>
7.9

>  <5-HT3>
6.72

>  <5-HT5>
6.11

>  <5-HT6>
7.46

>  <5-HT7>
7.06

>  <Alpha-1A>
7.51

>  <Alpha-1B>
7.28

>  <Alpha-2A>
6.82

>  <Alpha-2B>
6.97

>  <Alpha-2C>
7.1

>  <Beta-1>
5

>  <Beta-2>
5

>  <DOPAMINE D1>
7.27

>  <DOPAMINE D2>
7.74

>  <DOPAMINE D3>
7.64

>  <DOPAMINE D4>
8.04

>  <DOPAMINE D5>
7.12

>  <Dopamine transporter>
5

>  <HISTAMINE H1>
8.33

>  <HISTAMINE H2>
6.68

>  <HISTAMINE H4>
5.32

>  <Muscarinic acetylcholine receptor M1>
6.98

>  <Muscarinic acetylcholine receptor M2>
6.38

>  <Muscarinic acetylcholine receptor M3>
6.74

>  <Muscarinic acetylcholine receptor M4>
6.09

>  <Muscarinic acetylcholine receptor M5>
6.83

>  <Norepinephrine transporter>
5.24

>  <Serotonin transporter>
5

$$$$
Meloxicam
  Marvin  02231216192D 0   1.00000     0.00000     0

 23 25  0  0  0  0  0  0  0  0999 V2000
    1.0530    2.3261    0.0000 S   0  0  0  0  0  0  0  0  0
    0.2461    2.4976    0.0000 C   0  0  0  0  0  0  0  0  0
   -0.1664    1.7831    0.0000 C   0  0  0  0  0  0  0  0  0
    0.3856    1.1700    0.0000 N   0  0  0  0  0  0  0  0  0
    1.1393    1.5056    0.0000 C   0  0  0  0  0  0  0  0  0
    1.8537    1.0931    0.0000 N   0  0  0  0  0  0  0  0  0
    1.8537    0.2681    0.0000 C   0  0  0  0  0  0  0  0  0
    1.1393   -0.1444    0.0000 O   0  0  0  0  0  0  0  0  0
    2.5682   -0.1444    0.0000 C   0  0  0  0  0  0  0  0  0
    2.5682   -0.9694    0.0000 N   0  0  0  0  0  0  0  0  0
    3.2827   -1.3819    0.0000 S   0  0  0  0  0  0  0  0  0
    2.7524   -2.0139    0.0000 O   0  0  0  0  0  0  0  0  0
    3.8130   -2.0139    0.0000 O   0  0  0  0  0  0  0  0  0
    3.9972   -0.9694    0.0000 C   0  0  0  0  0  0  0  0  0
    3.9972   -0.1444    0.0000 C   0  0  0  0  0  0  0  0  0
    4.7116    0.2681    0.0000 C   0  0  0  0  0  0  0  0  0
    5.4261   -0.1444    0.0000 C   0  0  0  0  0  0  0  0  0
    5.4261   -0.9694    0.0000 C   0  0  0  0  0  0  0  0  0
    4.7116   -1.3819    0.0000 C   0  0  0  0  0  0  0  0  0
    3.2827    0.2681    0.0000 C   0  0  0  0  0  0  0  0  0
    3.2827    1.0931    0.0000 O   0  0  0  0  0  0  0  0  0
    1.8537   -1.3819    0.0000 C   0  0  0  0  0  0  0  0  0
   -0.0895    3.2513    0.0000 C   0  0  0  0  0  0  0  0  0
  1  2  4  0  0  0  0
  1  5  4  0  0  0  0
  2  3  4  0  0  0  0
  2 23  1  0  0  0  0
  3  4  4  0  0  0  0
  4  5  4  0  0  0  0
  5  6  1  0  0  0  0
  6  7  1  0  0  0  0
  7  8  1  0  0  0  0
  7  9  2  0  0  0  0
  9 10  1  0  0  0  0
  9 20  1  0  0  0  0
 10 11  1  0  0  0  0
 10 22  1  0  0  0  0
 11 12  2  0  0  0  0
 11 13  2  0  0  0  0
 11 14  1  0  0  0  0
 14 15  4  0  0  0  0
 14 19  4  0  0  0  0
 15 16  4  0  0  0  0
 15 20  1  0  0  0  0
 16 17  4  0  0  0  0
 17 18  4  0  0  0  0
 18 19  4  0  0  0  0
 20 21  2  0  0  0  0
M  END
>  <Name_Molregno>
Meloxicam

>  <5-HT1A>
5

>  <5-HT1B>
5

>  <5-HT1D>
5

>  <5-HT1E>
5

>  <5-HT2A>
5

>  <5-HT3>
5

>  <5-HT5>
5

>  <5-HT6>
5

>  <5-HT7>
5

>  <Alpha-1A>
5

>  <Alpha-1B>
5

>  <Alpha-2A>
5

>  <Alpha-2B>
5

>  <Alpha-2C>
5

>  <DOPAMINE D1>
5

>  <DOPAMINE D2>
5

>  <DOPAMINE D4>
5

>  <DOPAMINE D5>
5

>  <Dopamine transporter>
5

>  <HISTAMINE H1>
5

>  <HISTAMINE H2>
5

>  <HISTAMINE H4>
5

>  <Muscarinic acetylcholine receptor M2>
5

>  <Muscarinic acetylcholine receptor M5>
5

>  <Norepinephrine transporter>
5

>  <Serotonin transporter>
5

$$$$
MEPYRAMINE
  Marvin  02231216192D 0   1.00000     0.00000     0

 21 22  0  0  0  0  0  0  0  0999 V2000
   -6.0198    1.4523    0.0000 O   0  0  0  0  0  0  0  0  0
   -6.7343    1.0398    0.0000 C   0  0  0  0  0  0  0  0  0
   -5.3053    1.0398    0.0000 C   0  0  0  0  0  0  0  0  0
   -4.5908    1.4523    0.0000 C   0  0  0  0  0  0  0  0  0
   -3.8764    1.0398    0.0000 C   0  0  0  0  0  0  0  0  0
   -3.8764    0.2148    0.0000 C   0  0  0  0  0  0  0  0  0
   -4.5908   -0.1977    0.0000 C   0  0  0  0  0  0  0  0  0
   -5.3053    0.2148    0.0000 C   0  0  0  0  0  0  0  0  0
   -3.1619   -0.1977    0.0000 C   0  0  0  0  0  0  0  0  0
   -2.4474    0.2148    0.0000 N   0  0  0  0  0  0  0  0  0
   -1.7330   -0.1977    0.0000 C   0  0  0  0  0  0  0  0  0
   -1.0185    0.2148    0.0000 C   0  0  0  0  0  0  0  0  0
   -0.3040   -0.1977    0.0000 N   0  0  0  0  0  0  0  0  0
    0.4104    0.2148    0.0000 C   0  0  0  0  0  0  0  0  0
   -0.3040   -1.0227    0.0000 C   0  0  0  0  0  0  0  0  0
   -2.4474    1.0398    0.0000 C   0  0  0  0  0  0  0  0  0
   -3.1619    1.4523    0.0000 N   0  0  0  0  0  0  0  0  0
   -3.1619    2.2773    0.0000 C   0  0  0  0  0  0  0  0  0
   -2.4474    2.6898    0.0000 C   0  0  0  0  0  0  0  0  0
   -1.7330    2.2773    0.0000 C   0  0  0  0  0  0  0  0  0
   -1.7330    1.4523    0.0000 C   0  0  0  0  0  0  0  0  0
  1  2  1  0  0  0  0
  1  3  1  0  0  0  0
  3  4  4  0  0  0  0
  3  8  4  0  0  0  0
  4  5  4  0  0  0  0
  5  6  4  0  0  0  0
  6  7  4  0  0  0  0
  6  9  1  0  0  0  0
  7  8  4  0  0  0  0
  9 10  1  0  0  0  0
 10 11  1  0  0  0  0
 10 16  1  0  0  0  0
 11 12  1  0  0  0  0
 12 13  1  0  0  0  0
 13 14  1  0  0  0  0
 13 15  1  0  0  0  0
 16 17  4  0  0  0  0
 16 21  4  0  0  0  0
 17 18  4  0  0  0  0
 18 19  4  0  0  0  0
 19 20  4  0  0  0  0
 20 21  4  0  0  0  0
M  END
>  <Name_Molregno>
MEPYRAMINE

>  <5-HT1A>
5

>  <5-HT2A>
5.7

>  <5-HT3>
5

>  <HISTAMINE H1>
8.65

>  <HISTAMINE H3>
5

$$$$
Methcathinone
  Marvin  02231216192D 0   1.00000     0.00000     0

 12 12  0  0  1  0  0  0  0  0999 V2000
    1.9192   -0.0549    0.0000 O   0  0  0  0  0  0  0  0  0
    1.2047   -0.4674    0.0000 C   0  0  0  0  0  0  0  0  0
    0.4903   -0.0549    0.0000 C   0  0  0  0  0  0  0  0  0
    0.4903    0.7701    0.0000 N   0  0  0  0  0  0  0  0  0
   -0.2242    1.1826    0.0000 C   0  0  0  0  0  0  0  0  0
   -0.2242   -0.4674    0.0000 C   0  0  0  0  0  0  0  0  0
    1.2047   -1.2924    0.0000 C   0  0  0  0  0  0  0  0  0
    1.9192   -1.7049    0.0000 C   0  0  0  0  0  0  0  0  0
    1.9192   -2.5299    0.0000 C   0  0  0  0  0  0  0  0  0
    1.2047   -2.9424    0.0000 C   0  0  0  0  0  0  0  0  0
    0.4903   -2.5299    0.0000 C   0  0  0  0  0  0  0  0  0
    0.4903   -1.7049    0.0000 C   0  0  0  0  0  0  0  0  0
  1  2  2  0  0  0  0
  2  3  1  0  0  0  0
  2  7  1  0  0  0  0
  3  4  1  0  0  0  0
  3  6  1  0  0  0  0
  4  5  1  0  0  0  0
  7  8  4  0  0  0  0
  7 12  4  0  0  0  0
  8  9  4  0  0  0  0
  9 10  4  0  0  0  0
 10 11  4  0  0  0  0
 11 12  4  0  0  0  0
M  END
>  <Name_Molregno>
Methcathinone

>  <5-HT1A>
5

>  <5-HT1B>
5

>  <5-HT1D>
5

>  <5-HT1E>
5

>  <5-HT3>
5

>  <5-HT5>
5

>  <5-HT6>
5

>  <5-HT7>
6

>  <Alpha-1A>
5

>  <Alpha-1B>
5

>  <Alpha-2A>
5.04

>  <Alpha-2B>
5.81

>  <Alpha-2C>
6.22

>  <Beta-1>
5

>  <Beta-2>
5

>  <DOPAMINE D1>
5

>  <DOPAMINE D2>
5

>  <DOPAMINE D4>
5

>  <DOPAMINE D5>
5

>  <Dopamine transporter>
6.41

>  <HISTAMINE H1>
5

>  <HISTAMINE H2>
5

>  <HISTAMINE H4>
5

>  <Muscarinic acetylcholine receptor M1>
5

>  <Muscarinic acetylcholine receptor M2>
5

>  <Muscarinic acetylcholine receptor M3>
5

>  <Muscarinic acetylcholine receptor M4>
5

>  <Muscarinic acetylcholine receptor M5>
5

>  <Norepinephrine transporter>
6.87

>  <Serotonin transporter>
5.38

$$$$
METHYLPHENIDATE
  Marvin  02231216192D 0   1.00000     0.00000     0

 17 18  0  0  1  0  0  0  0  0999 V2000
   -0.3749   -0.6902    0.0000 O   0  0  0  0  0  0  0  0  0
    0.3395   -0.2777    0.0000 C   0  0  0  0  0  0  0  0  0
    0.3395    0.5473    0.0000 O   0  0  0  0  0  0  0  0  0
    1.0540   -0.6902    0.0000 C   0  0  0  0  0  0  0  0  0
    1.0540   -1.5152    0.0000 C   0  0  0  0  0  0  0  0  0
    1.7685   -1.9277    0.0000 N   0  0  0  0  0  0  0  0  0
    1.7685   -2.7527    0.0000 C   0  0  0  0  0  0  0  0  0
    1.0540   -3.1652    0.0000 C   0  0  0  0  0  0  0  0  0
    0.3395   -2.7527    0.0000 C   0  0  0  0  0  0  0  0  0
    0.3395   -1.9277    0.0000 C   0  0  0  0  0  0  0  0  0
    1.7685   -0.2777    0.0000 C   0  0  0  0  0  0  0  0  0
    1.7685    0.5473    0.0000 C   0  0  0  0  0  0  0  0  0
    2.4829    0.9598    0.0000 C   0  0  0  0  0  0  0  0  0
    3.1974    0.5473    0.0000 C   0  0  0  0  0  0  0  0  0
    3.1974   -0.2777    0.0000 C   0  0  0  0  0  0  0  0  0
    2.4829   -0.6902    0.0000 C   0  0  0  0  0  0  0  0  0
   -0.3749   -1.5152    0.0000 C   0  0  0  0  0  0  0  0  0
  1  2  1  0  0  0  0
  1 17  1  0  0  0  0
  2  3  2  0  0  0  0
  2  4  1  0  0  0  0
  4  5  1  0  0  0  0
  4 11  1  0  0  0  0
  5  6  1  0  0  0  0
  5 10  1  0  0  0  0
  6  7  1  0  0  0  0
  7  8  1  0  0  0  0
  8  9  1  0  0  0  0
  9 10  1  0  0  0  0
 11 12  4  0  0  0  0
 11 16  4  0  0  0  0
 12 13  4  0  0  0  0
 13 14  4  0  0  0  0
 14 15  4  0  0  0  0
 15 16  4  0  0  0  0
M  END
>  <Name_Molregno>
METHYLPHENIDATE

>  <5-HT1A>
5

>  <5-HT1B>
5

>  <5-HT1E>
5

>  <5-HT3>
5

>  <5-HT5>
5

>  <5-HT6>
5

>  <5-HT7>
5

>  <Alpha-1A>
5

>  <Alpha-1B>
5

>  <Alpha-2A>
5.25

>  <Alpha-2B>
5.61

>  <Alpha-2C>
6.07

>  <DOPAMINE D1>
5

>  <DOPAMINE D2>
5

>  <Dopamine transporter>
7.28

>  <Muscarinic acetylcholine receptor M1>
5

>  <Muscarinic acetylcholine receptor M2>
5

>  <Muscarinic acetylcholine receptor M3>
5

>  <Muscarinic acetylcholine receptor M4>
5

>  <Muscarinic acetylcholine receptor M5>
5

>  <Norepinephrine transporter>
6.46

>  <Serotonin transporter>
5

$$$$
METHYSERGIDE
  Marvin  02231216192D 0   1.00000     0.00000     0

 26 29  0  0  1  0  0  0  0  0999 V2000
   -5.6466   -4.8655    0.0000 O   0  0  0  0  0  0  0  0  0
   -5.6457   -4.0405    0.0000 C   0  0  0  0  0  0  0  0  0
   -4.9307   -3.6289    0.0000 C   0  0  0  0  0  0  0  0  0
   -4.9297   -2.8039    0.0000 N   0  0  0  0  0  0  0  0  0
   -4.2147   -2.3922    0.0000 C   0  0  0  0  0  0  0  0  0
   -3.5008   -2.8056    0.0000 O   0  0  0  0  0  0  0  0  0
   -4.2138   -1.5672    0.0000 C   0  0  0  0  0  0  0  0  0
   -3.4988   -1.1556    0.0000 C   0  0  0  0  0  0  0  0  0
   -3.4978   -0.3306    0.0000 C   0  0  0  0  0  0  0  0  0
   -4.2118    0.0828    0.0000 C   0  0  0  0  0  0  0  0  0
   -4.9267   -0.3289    0.0000 N   0  0  0  0  0  0  0  0  0
   -4.9277   -1.1539    0.0000 C   0  0  0  0  0  0  0  0  0
   -5.6407    0.0845    0.0000 C   0  0  0  0  0  0  0  0  0
   -4.2103    0.9069    0.0000 C   0  0  0  0  0  0  0  0  0
   -3.4978    1.3194    0.0000 C   0  0  0  0  0  0  0  0  0
   -2.7853    0.9069    0.0000 C   0  0  0  0  0  0  0  0  0
   -2.7853    0.0819    0.0000 C   0  0  0  0  0  0  0  0  0
   -2.0674   -0.3306    0.0000 C   0  0  0  0  0  0  0  0  0
   -1.3549    0.0819    0.0000 C   0  0  0  0  0  0  0  0  0
   -1.3549    0.9069    0.0000 C   0  0  0  0  0  0  0  0  0
   -2.0674    1.3194    0.0000 C   0  0  0  0  0  0  0  0  0
   -2.3728    2.1766    0.0000 N   0  0  0  0  0  0  0  0  0
   -3.1978    2.1766    0.0000 C   0  0  0  0  0  0  0  0  0
   -1.8973    2.8507    0.0000 C   0  0  0  0  0  0  0  0  0
   -4.2167   -4.0422    0.0000 C   0  0  0  0  0  0  0  0  0
   -4.2177   -4.8672    0.0000 C   0  0  0  0  0  0  0  0  0
  1  2  1  0  0  0  0
  2  3  1  0  0  0  0
  3  4  1  0  0  0  0
  3 25  1  0  0  0  0
  4  5  1  0  0  0  0
  5  6  2  0  0  0  0
  5  7  1  0  0  0  0
  7  8  1  0  0  0  0
  7 12  1  0  0  0  0
  8  9  2  0  0  0  0
  9 10  1  0  0  0  0
  9 17  1  0  0  0  0
 10 11  1  0  0  0  0
 10 14  1  0  0  0  0
 11 12  1  0  0  0  0
 11 13  1  0  0  0  0
 14 15  1  0  0  0  0
 15 16  4  0  0  0  0
 15 23  4  0  0  0  0
 16 17  4  0  0  0  0
 16 21  4  0  0  0  0
 17 18  4  0  0  0  0
 18 19  4  0  0  0  0
 19 20  4  0  0  0  0
 20 21  4  0  0  0  0
 21 22  4  0  0  0  0
 22 23  4  0  0  0  0
 22 24  1  0  0  0  0
 25 26  1  0  0  0  0
M  END
>  <Name_Molregno>
METHYSERGIDE

>  <5-HT1A>
7.81

>  <5-HT1B>
7.91

>  <5-HT1D>
7.56

>  <5-HT1E>
6.71

>  <5-HT2A>
8.05

>  <5-HT2C>
8.69

>  <5-HT3>
5

>  <5-HT5>
5

>  <5-HT6>
6.82

>  <5-HT7>
7.32

>  <Alpha-1A>
5

>  <Alpha-1B>
5

>  <Alpha-2A>
6.77

>  <Alpha-2B>
6.97

>  <Alpha-2C>
7.05

>  <Beta-1>
5

>  <Beta-2>
5

>  <DOPAMINE D1>
5

>  <DOPAMINE D2>
5

>  <DOPAMINE D4>
5

>  <DOPAMINE D5>
5

>  <Dopamine transporter>
5

>  <HISTAMINE H1>
5.26

>  <HISTAMINE H2>
5

>  <Muscarinic acetylcholine receptor M1>
5.26

>  <Muscarinic acetylcholine receptor M2>
5.21

>  <Muscarinic acetylcholine receptor M3>
5.33

>  <Muscarinic acetylcholine receptor M4>
5

>  <Muscarinic acetylcholine receptor M5>
5

>  <Norepinephrine transporter>
5

>  <Serotonin transporter>
5

$$$$
METOCLOPRAMIDE
  Marvin  02231216192D 0   1.00000     0.00000     0

 20 20  0  0  0  0  0  0  0  0999 V2000
   -0.1329    0.9766    0.0000 Cl  0  0  0  0  0  0  0  0  0
    0.2796    0.2621    0.0000 C   0  0  0  0  0  0  0  0  0
    1.1046    0.2621    0.0000 C   0  0  0  0  0  0  0  0  0
    1.5171   -0.4524    0.0000 C   0  0  0  0  0  0  0  0  0
    2.3421   -0.4524    0.0000 C   0  0  0  0  0  0  0  0  0
    2.7546    0.2621    0.0000 O   0  0  0  0  0  0  0  0  0
    2.7546   -1.1669    0.0000 N   0  0  0  0  0  0  0  0  0
    3.5796   -1.1669    0.0000 C   0  0  0  0  0  0  0  0  0
    3.9921   -1.8813    0.0000 C   0  0  0  0  0  0  0  0  0
    4.8171   -1.8813    0.0000 N   0  0  0  0  0  0  0  0  0
    5.2296   -2.5958    0.0000 C   0  0  0  0  0  0  0  0  0
    6.0546   -2.5958    0.0000 C   0  0  0  0  0  0  0  0  0
    5.2296   -1.1669    0.0000 C   0  0  0  0  0  0  0  0  0
    6.0546   -1.1669    0.0000 C   0  0  0  0  0  0  0  0  0
    1.1046   -1.1669    0.0000 C   0  0  0  0  0  0  0  0  0
    1.5171   -1.8813    0.0000 O   0  0  0  0  0  0  0  0  0
    1.1046   -2.5958    0.0000 C   0  0  0  0  0  0  0  0  0
    0.2796   -1.1669    0.0000 C   0  0  0  0  0  0  0  0  0
   -0.1329   -0.4524    0.0000 C   0  0  0  0  0  0  0  0  0
   -0.9579   -0.4524    0.0000 N   0  0  0  0  0  0  0  0  0
  1  2  1  0  0  0  0
  2  3  4  0  0  0  0
  2 19  4  0  0  0  0
  3  4  4  0  0  0  0
  4  5  1  0  0  0  0
  4 15  4  0  0  0  0
  5  6  2  0  0  0  0
  5  7  1  0  0  0  0
  7  8  1  0  0  0  0
  8  9  1  0  0  0  0
  9 10  1  0  0  0  0
 10 11  1  0  0  0  0
 10 13  1  0  0  0  0
 11 12  1  0  0  0  0
 13 14  1  0  0  0  0
 15 16  1  0  0  0  0
 15 18  4  0  0  0  0
 16 17  1  0  0  0  0
 18 19  4  0  0  0  0
 19 20  1  0  0  0  0
M  END
>  <Name_Molregno>
METOCLOPRAMIDE

>  <5-HT1A>
5

>  <5-HT1D>
5

>  <5-HT3>
6.16

>  <DOPAMINE D1>
5

>  <DOPAMINE D2>
7.19

>  <DOPAMINE D3>
7.69

$$$$
N-(4-Acetamidophenyl)indomethacinamide
  Marvin  02231216192D 0   1.00000     0.00000     0

 37 40  0  0  0  0  0  0  0  0999 V2000
    0.5106    2.7433    0.0000 Cl  0  0  0  0  0  0  0  0  0
    1.3311    2.6571    0.0000 C   0  0  0  0  0  0  0  0  0
    1.8160    3.3245    0.0000 C   0  0  0  0  0  0  0  0  0
    2.6365    3.2383    0.0000 C   0  0  0  0  0  0  0  0  0
    2.9720    2.4846    0.0000 C   0  0  0  0  0  0  0  0  0
    2.4871    1.8172    0.0000 C   0  0  0  0  0  0  0  0  0
    1.6666    1.9034    0.0000 C   0  0  0  0  0  0  0  0  0
    3.7925    2.3984    0.0000 C   0  0  0  0  0  0  0  0  0
    4.2774    3.0658    0.0000 O   0  0  0  0  0  0  0  0  0
    4.1281    1.6447    0.0000 N   0  0  0  0  0  0  0  0  0
    3.7156    0.9302    0.0000 C   0  0  0  0  0  0  0  0  0
    4.2676    0.3171    0.0000 C   0  0  0  0  0  0  0  0  0
    4.0127   -0.4675    0.0000 C   0  0  0  0  0  0  0  0  0
    3.2057   -0.6390    0.0000 C   0  0  0  0  0  0  0  0  0
    2.9508   -1.4236    0.0000 O   0  0  0  0  0  0  0  0  0
    2.1438   -1.5952    0.0000 C   0  0  0  0  0  0  0  0  0
    2.6537   -0.0259    0.0000 C   0  0  0  0  0  0  0  0  0
    2.9086    0.7587    0.0000 C   0  0  0  0  0  0  0  0  0
    5.0213    0.6527    0.0000 C   0  0  0  0  0  0  0  0  0
    5.7358    0.2402    0.0000 C   0  0  0  0  0  0  0  0  0
    5.7358   -0.5848    0.0000 C   0  0  0  0  0  0  0  0  0
    5.0213   -0.9973    0.0000 O   0  0  0  0  0  0  0  0  0
    6.4502   -0.9973    0.0000 N   0  0  0  0  0  0  0  0  0
    7.1647   -0.5848    0.0000 C   0  0  0  0  0  0  0  0  0
    7.1647    0.2402    0.0000 C   0  0  0  0  0  0  0  0  0
    7.8792    0.6527    0.0000 C   0  0  0  0  0  0  0  0  0
    7.8792    1.4777    0.0000 C   0  0  0  0  0  0  0  0  0
    8.5936    1.8902    0.0000 C   0  0  0  0  0  0  0  0  0
    9.3081    1.4777    0.0000 C   0  0  0  0  0  0  0  0  0
   10.0226    1.8902    0.0000 N   0  0  0  0  0  0  0  0  0
   10.7371    1.4777    0.0000 C   0  0  0  0  0  0  0  0  0
   11.4515    1.8902    0.0000 O   0  0  0  0  0  0  0  0  0
   10.7371    0.6527    0.0000 C   0  0  0  0  0  0  0  0  0
    9.3081    0.6527    0.0000 C   0  0  0  0  0  0  0  0  0
    8.5936    0.2402    0.0000 C   0  0  0  0  0  0  0  0  0
    4.9351    1.4732    0.0000 C   0  0  0  0  0  0  0  0  0
    5.5481    2.0252    0.0000 C   0  0  0  0  0  0  0  0  0
  1  2  1  0  0  0  0
  2  3  4  0  0  0  0
  2  7  4  0  0  0  0
  3  4  4  0  0  0  0
  4  5  4  0  0  0  0
  5  6  4  0  0  0  0
  5  8  1  0  0  0  0
  6  7  4  0  0  0  0
  8  9  2  0  0  0  0
  8 10  1  0  0  0  0
 10 11  4  0  0  0  0
 10 36  4  0  0  0  0
 11 12  4  0  0  0  0
 11 18  4  0  0  0  0
 12 13  4  0  0  0  0
 12 19  4  0  0  0  0
 13 14  4  0  0  0  0
 14 15  1  0  0  0  0
 14 17  4  0  0  0  0
 15 16  1  0  0  0  0
 17 18  4  0  0  0  0
 19 20  1  0  0  0  0
 19 36  4  0  0  0  0
 20 21  1  0  0  0  0
 21 22  2  0  0  0  0
 21 23  1  0  0  0  0
 23 24  1  0  0  0  0
 24 25  1  0  0  0  0
 25 26  1  0  0  0  0
 26 27  4  0  0  0  0
 26 35  4  0  0  0  0
 27 28  4  0  0  0  0
 28 29  4  0  0  0  0
 29 30  1  0  0  0  0
 29 34  4  0  0  0  0
 30 31  1  0  0  0  0
 31 32  2  0  0  0  0
 31 33  1  0  0  0  0
 34 35  4  0  0  0  0
 36 37  1  0  0  0  0
M  END
>  <Name_Molregno>
N-(4-Acetamidophenyl)indomethacinamide

>  <5-HT1A>
5

>  <5-HT1B>
5

>  <5-HT1E>
5

>  <5-HT2A>
5

>  <5-HT3>
5

>  <5-HT6>
5

>  <5-HT7>
5

>  <Alpha-1A>
5

>  <Alpha-1B>
5

>  <Alpha-2A>
5

>  <Alpha-2B>
5

>  <Alpha-2C>
5

>  <DOPAMINE D1>
5

>  <DOPAMINE D2>
5

>  <DOPAMINE D5>
5

>  <Dopamine transporter>
5

>  <HISTAMINE H1>
5

>  <HISTAMINE H2>
5

>  <HISTAMINE H4>
5

>  <Muscarinic acetylcholine receptor M2>
5

>  <Muscarinic acetylcholine receptor M5>
5

>  <Serotonin transporter>
5

$$$$
Naproxen
  Marvin  02231216192D 0   1.00000     0.00000     0

 17 18  0  0  1  0  0  0  0  0999 V2000
   -5.3383   -1.4581    0.0000 O   0  0  0  0  0  0  0  0  0
   -6.0528   -1.0456    0.0000 C   0  0  0  0  0  0  0  0  0
   -4.6238   -1.0456    0.0000 C   0  0  0  0  0  0  0  0  0
   -3.9093   -1.4581    0.0000 C   0  0  0  0  0  0  0  0  0
   -3.1949   -1.0456    0.0000 C   0  0  0  0  0  0  0  0  0
   -3.1949   -0.2206    0.0000 C   0  0  0  0  0  0  0  0  0
   -2.4804    0.1919    0.0000 C   0  0  0  0  0  0  0  0  0
   -1.7659   -0.2206    0.0000 C   0  0  0  0  0  0  0  0  0
   -1.7659   -1.0456    0.0000 C   0  0  0  0  0  0  0  0  0
   -2.4804   -1.4581    0.0000 C   0  0  0  0  0  0  0  0  0
   -1.0515    0.1919    0.0000 C   0  0  0  0  0  0  0  0  0
   -0.3370   -0.2206    0.0000 C   0  0  0  0  0  0  0  0  0
    0.3775    0.1919    0.0000 O   0  0  0  0  0  0  0  0  0
   -0.3370   -1.0456    0.0000 O   0  0  0  0  0  0  0  0  0
   -1.0515    1.0169    0.0000 C   0  0  0  0  0  0  0  0  0
   -3.9093    0.1919    0.0000 C   0  0  0  0  0  0  0  0  0
   -4.6238   -0.2206    0.0000 C   0  0  0  0  0  0  0  0  0
  1  2  1  0  0  0  0
  1  3  1  0  0  0  0
  3  4  4  0  0  0  0
  3 17  4  0  0  0  0
  4  5  4  0  0  0  0
  5  6  4  0  0  0  0
  5 10  4  0  0  0  0
  6  7  4  0  0  0  0
  6 16  4  0  0  0  0
  7  8  4  0  0  0  0
  8  9  4  0  0  0  0
  8 11  1  0  0  0  0
  9 10  4  0  0  0  0
 11 12  1  0  0  0  0
 11 15  1  0  0  0  0
 12 13  1  0  0  0  0
 12 14  2  0  0  0  0
 16 17  4  0  0  0  0
M  END
>  <Name_Molregno>
Naproxen

>  <5-HT1A>
5

>  <5-HT1B>
5

>  <5-HT1D>
5

>  <5-HT1E>
5

>  <5-HT2A>
5

>  <5-HT3>
5

>  <5-HT5>
5

>  <5-HT6>
5

>  <5-HT7>
5

>  <Alpha-1A>
5

>  <Alpha-1B>
5

>  <Alpha-2A>
5

>  <Alpha-2B>
5

>  <Alpha-2C>
5

>  <DOPAMINE D1>
5

>  <DOPAMINE D2>
5

>  <DOPAMINE D4>
5

>  <DOPAMINE D5>
5

>  <Dopamine transporter>
5

>  <HISTAMINE H1>
5

>  <HISTAMINE H2>
5

>  <HISTAMINE H4>
5

>  <Muscarinic acetylcholine receptor M2>
5

>  <Muscarinic acetylcholine receptor M5>
5

>  <Norepinephrine transporter>
5

>  <Serotonin transporter>
5

$$$$
N-DESMETHYLCLOZAPINE
  Marvin  02231216192D 0   1.00000     0.00000     0

 22 25  0  0  0  0  0  0  0  0999 V2000
   -0.3818   -1.7384    0.0000 Cl  0  0  0  0  0  0  0  0  0
    0.4065   -1.9816    0.0000 C   0  0  0  0  0  0  0  0  0
    1.0113   -1.4204    0.0000 C   0  0  0  0  0  0  0  0  0
    1.7996   -1.6636    0.0000 C   0  0  0  0  0  0  0  0  0
    2.3140   -1.0186    0.0000 N   0  0  0  0  0  0  0  0  0
    3.1390   -1.0186    0.0000 C   0  0  0  0  0  0  0  0  0
    3.4969   -0.2753    0.0000 N   0  0  0  0  0  0  0  0  0
    3.0322    0.4063    0.0000 C   0  0  0  0  0  0  0  0  0
    3.3902    1.1496    0.0000 C   0  0  0  0  0  0  0  0  0
    4.2129    1.2113    0.0000 N   0  0  0  0  0  0  0  0  0
    4.6776    0.5296    0.0000 C   0  0  0  0  0  0  0  0  0
    4.3196   -0.2137    0.0000 C   0  0  0  0  0  0  0  0  0
    3.6534   -1.6636    0.0000 C   0  0  0  0  0  0  0  0  0
    3.4698   -2.4679    0.0000 C   0  0  0  0  0  0  0  0  0
    2.7265   -2.8259    0.0000 N   0  0  0  0  0  0  0  0  0
    1.9832   -2.4679    0.0000 C   0  0  0  0  0  0  0  0  0
    1.3784   -3.0291    0.0000 C   0  0  0  0  0  0  0  0  0
    0.5901   -2.7859    0.0000 C   0  0  0  0  0  0  0  0  0
    4.0746   -3.0291    0.0000 C   0  0  0  0  0  0  0  0  0
    4.8629   -2.7859    0.0000 C   0  0  0  0  0  0  0  0  0
    5.0465   -1.9816    0.0000 C   0  0  0  0  0  0  0  0  0
    4.4417   -1.4204    0.0000 C   0  0  0  0  0  0  0  0  0
  1  2  1  0  0  0  0
  2  3  4  0  0  0  0
  2 18  4  0  0  0  0
  3  4  4  0  0  0  0
  4  5  1  0  0  0  0
  4 16  4  0  0  0  0
  5  6  1  0  0  0  0
  6  7  1  0  0  0  0
  6 13  2  0  0  0  0
  7  8  1  0  0  0  0
  7 12  1  0  0  0  0
  8  9  1  0  0  0  0
  9 10  1  0  0  0  0
 10 11  1  0  0  0  0
 11 12  1  0  0  0  0
 13 14  1  0  0  0  0
 13 22  1  0  0  0  0
 14 15  2  0  0  0  0
 14 19  1  0  0  0  0
 15 16  1  0  0  0  0
 16 17  4  0  0  0  0
 17 18  4  0  0  0  0
 19 20  2  0  0  0  0
 20 21  1  0  0  0  0
 21 22  2  0  0  0  0
M  END
>  <Name_Molregno>
N-DESMETHYLCLOZAPINE

>  <5-HT1A>
7.86

>  <5-HT1B>
6.39

>  <5-HT1D>
6.32

>  <5-HT1E>
6.41

>  <5-HT2A>
7.96

>  <5-HT3>
6.57

>  <5-HT5>
6.46

>  <5-HT6>
7.94

>  <5-HT7>
7.22

>  <Alpha-1A>
6.98

>  <Alpha-1B>
7.07

>  <Alpha-2A>
6.86

>  <Alpha-2B>
7.02

>  <Alpha-2C>
6.93

>  <Beta-1>
5.2

>  <Beta-2>
5.33

>  <DOPAMINE D1>
7.84

>  <DOPAMINE D2>
7

>  <DOPAMINE D3>
6.82

>  <DOPAMINE D4>
7.28

>  <DOPAMINE D5>
6.55

>  <Dopamine transporter>
5

>  <HISTAMINE H1>
8.47

>  <HISTAMINE H2>
6.46

>  <HISTAMINE H4>
5.99

>  <Muscarinic acetylcholine receptor M1>
7.17

>  <Muscarinic acetylcholine receptor M2>
6.38

>  <Muscarinic acetylcholine receptor M3>
7.02

>  <Muscarinic acetylcholine receptor M4>
6.77

>  <Muscarinic acetylcholine receptor M5>
7.45

>  <Norepinephrine transporter>
6.31

>  <Serotonin transporter>
6.5

$$$$
nimesulide
  Marvin  02231216192D 0   1.00000     0.00000     0

 21 22  0  0  0  0  0  0  0  0999 V2000
    3.1126    1.9121    0.0000 S   0  0  0  0  0  0  0  0  0
    3.8271    2.3246    0.0000 O   0  0  0  0  0  0  0  0  0
    2.7001    2.6266    0.0000 O   0  0  0  0  0  0  0  0  0
    2.3982    1.4996    0.0000 N   0  0  0  0  0  0  0  0  0
    2.3982    0.6746    0.0000 C   0  0  0  0  0  0  0  0  0
    3.1126    0.2621    0.0000 C   0  0  0  0  0  0  0  0  0
    3.1126   -0.5629    0.0000 C   0  0  0  0  0  0  0  0  0
    2.3982   -0.9754    0.0000 C   0  0  0  0  0  0  0  0  0
    2.3982   -1.8004    0.0000 N   0  3  0  0  0  0  0  0  0
    1.6837   -2.2129    0.0000 O   0  5  0  0  0  0  0  0  0
    3.1126   -2.2129    0.0000 O   0  5  0  0  0  0  0  0  0
    1.6837   -0.5629    0.0000 C   0  0  0  0  0  0  0  0  0
    1.6837    0.2621    0.0000 C   0  0  0  0  0  0  0  0  0
    0.9692    0.6746    0.0000 O   0  0  0  0  0  0  0  0  0
    0.9692    1.4996    0.0000 C   0  0  0  0  0  0  0  0  0
    0.2548    1.9121    0.0000 C   0  0  0  0  0  0  0  0  0
    0.2548    2.7371    0.0000 C   0  0  0  0  0  0  0  0  0
    0.9692    3.1496    0.0000 C   0  0  0  0  0  0  0  0  0
    1.6837    2.7371    0.0000 C   0  0  0  0  0  0  0  0  0
    1.6837    1.9121    0.0000 C   0  0  0  0  0  0  0  0  0
    3.5251    1.1976    0.0000 C   0  0  0  0  0  0  0  0  0
  1  2  2  0  0  0  0
  1  3  2  0  0  0  0
  1  4  1  0  0  0  0
  1 21  1  0  0  0  0
  4  5  1  0  0  0  0
  5  6  4  0  0  0  0
  5 13  4  0  0  0  0
  6  7  4  0  0  0  0
  7  8  4  0  0  0  0
  8  9  1  0  0  0  0
  8 12  4  0  0  0  0
  9 10  1  0  0  0  0
  9 11  1  0  0  0  0
 12 13  4  0  0  0  0
 13 14  1  0  0  0  0
 14 15  1  0  0  0  0
 15 16  4  0  0  0  0
 15 20  4  0  0  0  0
 16 17  4  0  0  0  0
 17 18  4  0  0  0  0
 18 19  4  0  0  0  0
 19 20  4  0  0  0  0
M  CHG  3   9   1  10  -1  11  -1
M  END
>  <Name_Molregno>
nimesulide

>  <5-HT1A>
5

>  <5-HT1B>
5

>  <5-HT1D>
5

>  <5-HT1E>
5

>  <5-HT2A>
5

>  <5-HT3>
5

>  <5-HT5>
5

>  <5-HT6>
5

>  <5-HT7>
5

>  <Alpha-1A>
5

>  <Alpha-1B>
5

>  <Alpha-2A>
5

>  <Alpha-2B>
5

>  <Alpha-2C>
5

>  <DOPAMINE D1>
5

>  <DOPAMINE D2>
5

>  <DOPAMINE D4>
5

>  <DOPAMINE D5>
5

>  <Dopamine transporter>
5

>  <HISTAMINE H1>
5

>  <HISTAMINE H2>
5

>  <HISTAMINE H4>
5

>  <Muscarinic acetylcholine receptor M2>
5

>  <Muscarinic acetylcholine receptor M5>
5

>  <Norepinephrine transporter>
5

>  <Serotonin transporter>
5

$$$$
Norephedrine
  Marvin  02231216192D 0   1.00000     0.00000     0

 11 11  0  0  1  0  0  0  0  0999 V2000
    1.9974    0.2298    0.0000 O   0  0  0  0  0  0  0  0  0
    1.2829   -0.1827    0.0000 C   0  0  0  0  0  0  0  0  0
    0.5684    0.2298    0.0000 C   0  0  0  0  0  0  0  0  0
    0.5684    1.0548    0.0000 N   0  0  0  0  0  0  0  0  0
   -0.1461   -0.1827    0.0000 C   0  0  0  0  0  0  0  0  0
    1.2829   -1.0077    0.0000 C   0  0  0  0  0  0  0  0  0
    1.9974   -1.4202    0.0000 C   0  0  0  0  0  0  0  0  0
    1.9974   -2.2452    0.0000 C   0  0  0  0  0  0  0  0  0
    1.2829   -2.6577    0.0000 C   0  0  0  0  0  0  0  0  0
    0.5684   -2.2452    0.0000 C   0  0  0  0  0  0  0  0  0
    0.5684   -1.4202    0.0000 C   0  0  0  0  0  0  0  0  0
  1  2  1  0  0  0  0
  2  3  1  0  0  0  0
  2  6  1  0  0  0  0
  3  4  1  0  0  0  0
  3  5  1  0  0  0  0
  6  7  4  0  0  0  0
  6 11  4  0  0  0  0
  7  8  4  0  0  0  0
  8  9  4  0  0  0  0
  9 10  4  0  0  0  0
 10 11  4  0  0  0  0
M  END
>  <Name_Molregno>
Norephedrine

>  <5-HT1A>
5

>  <5-HT1B>
5

>  <5-HT1D>
5

>  <5-HT1E>
5

>  <5-HT3>
5

>  <5-HT5>
5

>  <5-HT6>
5

>  <5-HT7>
5.04

>  <Alpha-1A>
5

>  <Alpha-1B>
5

>  <Alpha-2A>
5.64

>  <Alpha-2B>
5.73

>  <Alpha-2C>
6.04

>  <Beta-1>
5

>  <Beta-2>
5

>  <DOPAMINE D1>
5

>  <DOPAMINE D2>
5

>  <DOPAMINE D4>
5

>  <DOPAMINE D5>
5

>  <Dopamine transporter>
5.76

>  <HISTAMINE H1>
5

>  <HISTAMINE H2>
5

>  <HISTAMINE H4>
5

>  <Muscarinic acetylcholine receptor M1>
5.04

>  <Muscarinic acetylcholine receptor M2>
5

>  <Muscarinic acetylcholine receptor M3>
5

>  <Muscarinic acetylcholine receptor M4>
5

>  <Muscarinic acetylcholine receptor M5>
5

>  <Norepinephrine transporter>
6.34

>  <Serotonin transporter>
5

$$$$
NOREPINEPHRINE
  Marvin  02231216192D 0   1.00000     0.00000     0

 12 12  0  0  1  0  0  0  0  0999 V2000
    3.1670    0.8378    0.0000 O   0  0  0  0  0  0  0  0  0
    2.4525    0.4253    0.0000 C   0  0  0  0  0  0  0  0  0
    2.4525   -0.3997    0.0000 C   0  0  0  0  0  0  0  0  0
    1.7381   -0.8122    0.0000 C   0  0  0  0  0  0  0  0  0
    1.0236   -0.3997    0.0000 C   0  0  0  0  0  0  0  0  0
    1.0236    0.4253    0.0000 C   0  0  0  0  0  0  0  0  0
    1.7381    0.8378    0.0000 C   0  0  0  0  0  0  0  0  0
    1.7381    1.6628    0.0000 O   0  0  0  0  0  0  0  0  0
    1.7381   -1.6372    0.0000 C   0  0  0  0  0  0  0  0  0
    2.4525   -2.0497    0.0000 O   0  0  0  0  0  0  0  0  0
    1.0236   -2.0497    0.0000 C   0  0  0  0  0  0  0  0  0
    1.0236   -2.8747    0.0000 N   0  0  0  0  0  0  0  0  0
  1  2  1  0  0  0  0
  2  3  4  0  0  0  0
  2  7  4  0  0  0  0
  3  4  4  0  0  0  0
  4  5  4  0  0  0  0
  4  9  1  0  0  0  0
  5  6  4  0  0  0  0
  6  7  4  0  0  0  0
  7  8  1  0  0  0  0
  9 10  1  0  0  0  0
  9 11  1  0  0  0  0
 11 12  1  0  0  0  0
M  END
>  <Name_Molregno>
NOREPINEPHRINE

>  <5-HT1A>
5

>  <5-HT2A>
5

>  <5-HT3>
5

>  <5-HT7>
5

>  <Alpha-1A>
5.33

>  <Alpha-1B>
5.1

>  <Alpha-2A>
6.32

>  <Alpha-2B>
6.02

>  <Alpha-2C>
6.43

>  <Beta-1>
5.45

>  <Beta-2>
4.9

>  <DOPAMINE D1>
5

>  <DOPAMINE D2>
5

>  <DOPAMINE D5>
5

>  <Dopamine transporter>
5.02

$$$$
Norfenfluramine
  Marvin  02231216192D 0   1.00000     0.00000     0

 14 14  0  0  1  0  0  0  0  0999 V2000
    0.4631   -1.9707    0.0000 F   0  0  0  0  0  0  0  0  0
    1.1776   -1.5582    0.0000 C   0  0  0  0  0  0  0  0  0
    1.5901   -2.2727    0.0000 F   0  0  0  0  0  0  0  0  0
    0.7651   -0.8437    0.0000 F   0  0  0  0  0  0  0  0  0
    1.8921   -1.1457    0.0000 C   0  0  0  0  0  0  0  0  0
    1.8921   -0.3207    0.0000 C   0  0  0  0  0  0  0  0  0
    2.6065    0.0918    0.0000 C   0  0  0  0  0  0  0  0  0
    3.3210   -0.3207    0.0000 C   0  0  0  0  0  0  0  0  0
    3.3210   -1.1457    0.0000 C   0  0  0  0  0  0  0  0  0
    2.6065   -1.5582    0.0000 C   0  0  0  0  0  0  0  0  0
    2.6065    0.9168    0.0000 C   0  0  0  0  0  0  0  0  0
    3.3210    1.3293    0.0000 C   0  0  0  0  0  0  0  0  0
    3.3210    2.1543    0.0000 N   0  0  0  0  0  0  0  0  0
    4.0355    0.9168    0.0000 C   0  0  0  0  0  0  0  0  0
  1  2  1  0  0  0  0
  2  3  1  0  0  0  0
  2  4  1  0  0  0  0
  2  5  1  0  0  0  0
  5  6  4  0  0  0  0
  5 10  4  0  0  0  0
  6  7  4  0  0  0  0
  7  8  4  0  0  0  0
  7 11  1  0  0  0  0
  8  9  4  0  0  0  0
  9 10  4  0  0  0  0
 11 12  1  0  0  0  0
 12 13  1  0  0  0  0
 12 14  1  0  0  0  0
M  END
>  <Name_Molregno>
Norfenfluramine

>  <5-HT1A>
5.77

>  <5-HT1B>
5.57

>  <5-HT1D>
5.88

>  <5-HT1E>
5

>  <5-HT3>
5

>  <5-HT5>
5

>  <5-HT6>
5

>  <5-HT7>
6.44

>  <Alpha-1A>
5.11

>  <Alpha-1B>
5

>  <Alpha-2A>
5.42

>  <Alpha-2B>
5.75

>  <Alpha-2C>
6.08

>  <Beta-1>
5

>  <Beta-2>
5

>  <DOPAMINE D1>
5

>  <DOPAMINE D2>
5

>  <DOPAMINE D4>
5

>  <DOPAMINE D5>
5

>  <Dopamine transporter>
5

>  <HISTAMINE H1>
5

>  <HISTAMINE H2>
5

>  <Muscarinic acetylcholine receptor M1>
5.42

>  <Muscarinic acetylcholine receptor M2>
5.24

>  <Muscarinic acetylcholine receptor M3>
6.04

>  <Muscarinic acetylcholine receptor M4>
5.31

>  <Muscarinic acetylcholine receptor M5>
5.78

>  <Norepinephrine transporter>
5

>  <Serotonin transporter>
5

$$$$
OLANZAPINE
  Marvin  02231216192D 0   1.00000     0.00000     0

 22 25  0  0  0  0  0  0  0  0999 V2000
   -1.5954    3.4952    0.0000 S   0  0  0  0  0  0  0  0  0
   -0.8919    3.0642    0.0000 C   0  0  0  0  0  0  0  0  0
   -0.1447    3.4138    0.0000 N   0  0  0  0  0  0  0  0  0
    0.5946    3.0476    0.0000 C   0  0  0  0  0  0  0  0  0
    0.7691    2.2413    0.0000 C   0  0  0  0  0  0  0  0  0
    0.2476    1.6020    0.0000 N   0  0  0  0  0  0  0  0  0
   -0.5774    1.6113    0.0000 C   0  0  0  0  0  0  0  0  0
   -0.9436    0.8720    0.0000 N   0  0  0  0  0  0  0  0  0
   -0.4865    0.1852    0.0000 C   0  0  0  0  0  0  0  0  0
   -0.8527   -0.5540    0.0000 C   0  0  0  0  0  0  0  0  0
   -1.6761   -0.6065    0.0000 N   0  0  0  0  0  0  0  0  0
   -2.1332    0.0803    0.0000 C   0  0  0  0  0  0  0  0  0
   -1.7669    0.8196    0.0000 C   0  0  0  0  0  0  0  0  0
   -2.0423   -1.3458    0.0000 C   0  0  0  0  0  0  0  0  0
   -1.0845    2.2620    0.0000 C   0  0  0  0  0  0  0  0  0
   -1.9069    2.1972    0.0000 C   0  0  0  0  0  0  0  0  0
   -2.2227    2.9594    0.0000 C   0  0  0  0  0  0  0  0  0
   -3.0249    3.1520    0.0000 C   0  0  0  0  0  0  0  0  0
    1.5547    1.9893    0.0000 C   0  0  0  0  0  0  0  0  0
    2.1657    2.5436    0.0000 C   0  0  0  0  0  0  0  0  0
    1.9912    3.3499    0.0000 C   0  0  0  0  0  0  0  0  0
    1.2056    3.6019    0.0000 C   0  0  0  0  0  0  0  0  0
  1  2  1  0  0  0  0
  1 17  1  0  0  0  0
  2  3  2  0  0  0  0
  2 15  1  0  0  0  0
  3  4  1  0  0  0  0
  4  5  4  0  0  0  0
  4 22  4  0  0  0  0
  5  6  1  0  0  0  0
  5 19  4  0  0  0  0
  6  7  1  0  0  0  0
  7  8  1  0  0  0  0
  7 15  2  0  0  0  0
  8  9  1  0  0  0  0
  8 13  1  0  0  0  0
  9 10  1  0  0  0  0
 10 11  1  0  0  0  0
 11 12  1  0  0  0  0
 11 14  1  0  0  0  0
 12 13  1  0  0  0  0
 15 16  1  0  0  0  0
 16 17  2  0  0  0  0
 17 18  1  0  0  0  0
 19 20  4  0  0  0  0
 20 21  4  0  0  0  0
 21 22  4  0  0  0  0
M  END
>  <Name_Molregno>
OLANZAPINE

>  <5-HT1A>
5.77

>  <5-HT1B>
6.23

>  <5-HT1D>
6.3

>  <5-HT1E>
5.66

>  <5-HT2A>
8.46

>  <5-HT2C>
7.86

>  <5-HT3>
6.69

>  <5-HT5>
5.92

>  <5-HT6>
7.97

>  <5-HT7>
6.73

>  <Alpha-1A>
6.95

>  <Alpha-1B>
6.58

>  <Alpha-2A>
6.51

>  <Alpha-2B>
6.97

>  <Alpha-2C>
7.21

>  <Beta-1>
5.15

>  <Beta-2>
5.15

>  <DOPAMINE D1>
7.3

>  <DOPAMINE D2>
7.67

>  <DOPAMINE D3>
7.53

>  <DOPAMINE D4>
7.73

>  <DOPAMINE D5>
7.09

>  <Dopamine transporter>
5

>  <HISTAMINE H1>
8.96

>  <HISTAMINE H2>
7.36

>  <HISTAMINE H4>
5

>  <Muscarinic acetylcholine receptor M1>
7.99

>  <Muscarinic acetylcholine receptor M2>
6.93

>  <Muscarinic acetylcholine receptor M3>
7.33

>  <Muscarinic acetylcholine receptor M4>
7.35

>  <Muscarinic acetylcholine receptor M5>
7.78

>  <Norepinephrine transporter>
5

>  <Serotonin transporter>
5.48

$$$$
OLANZAPINE-2
  Marvin  02231216192D 0   1.00000     0.00000     0

 22 25  0  0  0  0  0  0  0  0999 V2000
   -1.5954    3.4952    0.0000 S   0  0  0  0  0  0  0  0  0
   -0.8919    3.0642    0.0000 C   0  0  0  0  0  0  0  0  0
   -0.1447    3.4138    0.0000 N   0  0  0  0  0  0  0  0  0
    0.5946    3.0476    0.0000 C   0  0  0  0  0  0  0  0  0
    0.7691    2.2413    0.0000 C   0  0  0  0  0  0  0  0  0
    0.2476    1.6020    0.0000 N   0  0  0  0  0  0  0  0  0
   -0.5774    1.6113    0.0000 C   0  0  0  0  0  0  0  0  0
   -0.9436    0.8720    0.0000 N   0  0  0  0  0  0  0  0  0
   -0.4865    0.1852    0.0000 C   0  0  0  0  0  0  0  0  0
   -0.8527   -0.5540    0.0000 C   0  0  0  0  0  0  0  0  0
   -1.6761   -0.6065    0.0000 N   0  0  0  0  0  0  0  0  0
   -2.1332    0.0803    0.0000 C   0  0  0  0  0  0  0  0  0
   -1.7669    0.8196    0.0000 C   0  0  0  0  0  0  0  0  0
   -2.0423   -1.3458    0.0000 C   0  0  0  0  0  0  0  0  0
   -1.0845    2.2620    0.0000 C   0  0  0  0  0  0  0  0  0
   -1.9069    2.1972    0.0000 C   0  0  0  0  0  0  0  0  0
   -2.2227    2.9594    0.0000 C   0  0  0  0  0  0  0  0  0
   -3.0249    3.1520    0.0000 C   0  0  0  0  0  0  0  0  0
    1.5547    1.9893    0.0000 C   0  0  0  0  0  0  0  0  0
    2.1657    2.5436    0.0000 C   0  0  0  0  0  0  0  0  0
    1.9912    3.3499    0.0000 C   0  0  0  0  0  0  0  0  0
    1.2056    3.6019    0.0000 C   0  0  0  0  0  0  0  0  0
  1  2  4  0  0  0  0
  1 17  4  0  0  0  0
  2  3  1  0  0  0  0
  2 15  4  0  0  0  0
  3  4  1  0  0  0  0
  4  5  4  0  0  0  0
  4 22  4  0  0  0  0
  5  6  1  0  0  0  0
  5 19  4  0  0  0  0
  6  7  2  0  0  0  0
  7  8  1  0  0  0  0
  7 15  1  0  0  0  0
  8  9  1  0  0  0  0
  8 13  1  0  0  0  0
  9 10  1  0  0  0  0
 10 11  1  0  0  0  0
 11 12  1  0  0  0  0
 11 14  1  0  0  0  0
 12 13  1  0  0  0  0
 15 16  4  0  0  0  0
 16 17  4  0  0  0  0
 17 18  1  0  0  0  0
 19 20  4  0  0  0  0
 20 21  4  0  0  0  0
 21 22  4  0  0  0  0
M  END
>  <Name_Molregno>
OLANZAPINE-2

>  <5-HT1A>
5.68

>  <5-HT2A>
8.66

>  <5-HT2C>
8.05

>  <5-HT3>
6.7

>  <5-HT6>
7.8

>  <5-HT7>
6.77

>  <Alpha-2A>
6.72

>  <Alpha-2C>
7.09

>  <DOPAMINE D1>
7.28

>  <DOPAMINE D2>
7.63

>  <DOPAMINE D3>
7.47

>  <DOPAMINE D4>
7.3

>  <HISTAMINE H1>
8.74

>  <Muscarinic acetylcholine receptor M1>
8.16

>  <Muscarinic acetylcholine receptor M4>
7.9

>  <Serotonin transporter>
4.82

$$$$
ONDANSETRON
  Marvin  02231216192D 0   1.00000     0.00000     0

 22 25  0  0  1  0  0  0  0  0999 V2000
   -0.0587   -2.1575    0.0000 O   0  0  0  0  0  0  0  0  0
    0.1963   -1.3729    0.0000 C   0  0  0  0  0  0  0  0  0
   -0.3558   -0.7598    0.0000 C   0  0  0  0  0  0  0  0  0
   -0.1008    0.0249    0.0000 C   0  0  0  0  0  0  0  0  0
   -0.7683    0.5098    0.0000 N   0  0  0  0  0  0  0  0  0
   -1.4357    0.0249    0.0000 C   0  0  0  0  0  0  0  0  0
   -1.1808   -0.7598    0.0000 C   0  0  0  0  0  0  0  0  0
   -1.7328   -1.3729    0.0000 C   0  0  0  0  0  0  0  0  0
   -2.5398   -1.2013    0.0000 C   0  0  0  0  0  0  0  0  0
   -2.7947   -0.4167    0.0000 C   0  0  0  0  0  0  0  0  0
   -2.2427    0.1964    0.0000 C   0  0  0  0  0  0  0  0  0
   -0.7683    1.3348    0.0000 C   0  0  0  0  0  0  0  0  0
    0.7061    0.1964    0.0000 C   0  0  0  0  0  0  0  0  0
    1.2582   -0.4167    0.0000 C   0  0  0  0  0  0  0  0  0
    1.0032   -1.2013    0.0000 C   0  0  0  0  0  0  0  0  0
    1.5553   -1.8144    0.0000 C   0  0  0  0  0  0  0  0  0
    1.3003   -2.5990    0.0000 N   0  0  0  0  0  0  0  0  0
    0.5157   -2.8540    0.0000 C   0  0  0  0  0  0  0  0  0
    0.5157   -3.6790    0.0000 C   0  0  0  0  0  0  0  0  0
    1.3003   -3.9339    0.0000 N   0  0  0  0  0  0  0  0  0
    1.7853   -3.2665    0.0000 C   0  0  0  0  0  0  0  0  0
    2.6103   -3.2665    0.0000 C   0  0  0  0  0  0  0  0  0
  1  2  2  0  0  0  0
  2  3  1  0  0  0  0
  2 15  1  0  0  0  0
  3  4  4  0  0  0  0
  3  7  4  0  0  0  0
  4  5  4  0  0  0  0
  4 13  1  0  0  0  0
  5  6  4  0  0  0  0
  5 12  1  0  0  0  0
  6  7  4  0  0  0  0
  6 11  4  0  0  0  0
  7  8  4  0  0  0  0
  8  9  4  0  0  0  0
  9 10  4  0  0  0  0
 10 11  4  0  0  0  0
 13 14  1  0  0  0  0
 14 15  1  0  0  0  0
 15 16  1  0  0  0  0
 16 17  1  0  0  0  0
 17 18  4  0  0  0  0
 17 21  4  0  0  0  0
 18 19  4  0  0  0  0
 19 20  4  0  0  0  0
 20 21  4  0  0  0  0
 21 22  1  0  0  0  0
M  END
>  <Name_Molregno>
ONDANSETRON

>  <5-HT1A>
5

>  <5-HT3>
8.15

>  <DOPAMINE D1>
5

>  <DOPAMINE D2>
5

$$$$
ORG-5222
  Marvin  02231216192D 0   1.00000     0.00000     0

 20 23  0  0  1  0  0  0  0  0999 V2000
   -0.0754   -0.1702    0.0000 Cl  0  0  0  0  0  0  0  0  0
    0.7129   -0.4133    0.0000 C   0  0  0  0  0  0  0  0  0
    1.3177    0.1478    0.0000 C   0  0  0  0  0  0  0  0  0
    2.1060   -0.0954    0.0000 C   0  0  0  0  0  0  0  0  0
    2.6204    0.5496    0.0000 C   0  0  0  0  0  0  0  0  0
    3.4454    0.5496    0.0000 C   0  0  0  0  0  0  0  0  0
    3.9598   -0.0954    0.0000 C   0  0  0  0  0  0  0  0  0
    3.7762   -0.8997    0.0000 C   0  0  0  0  0  0  0  0  0
    3.0329   -1.2576    0.0000 O   0  0  0  0  0  0  0  0  0
    2.2896   -0.8997    0.0000 C   0  0  0  0  0  0  0  0  0
    1.6849   -1.4608    0.0000 C   0  0  0  0  0  0  0  0  0
    0.8965   -1.2176    0.0000 C   0  0  0  0  0  0  0  0  0
    4.3810   -1.4608    0.0000 C   0  0  0  0  0  0  0  0  0
    5.1693   -1.2176    0.0000 C   0  0  0  0  0  0  0  0  0
    5.3529   -0.4133    0.0000 C   0  0  0  0  0  0  0  0  0
    4.7482    0.1478    0.0000 C   0  0  0  0  0  0  0  0  0
    3.7004    1.3343    0.0000 C   0  0  0  0  0  0  0  0  0
    3.0329    1.8192    0.0000 N   0  0  0  0  0  0  0  0  0
    2.3655    1.3343    0.0000 C   0  0  0  0  0  0  0  0  0
    3.0329    2.6442    0.0000 C   0  0  0  0  0  0  0  0  0
  1  2  1  0  0  0  0
  2  3  4  0  0  0  0
  2 12  4  0  0  0  0
  3  4  4  0  0  0  0
  4  5  1  0  0  0  0
  4 10  4  0  0  0  0
  5  6  1  0  0  0  0
  5 19  1  0  0  0  0
  6  7  1  0  0  0  0
  6 17  1  0  0  0  0
  7  8  4  0  0  0  0
  7 16  4  0  0  0  0
  8  9  1  0  0  0  0
  8 13  4  0  0  0  0
  9 10  1  0  0  0  0
 10 11  4  0  0  0  0
 11 12  4  0  0  0  0
 13 14  4  0  0  0  0
 14 15  4  0  0  0  0
 15 16  4  0  0  0  0
 17 18  1  0  0  0  0
 18 19  1  0  0  0  0
 18 20  1  0  0  0  0
M  END
>  <Name_Molregno>
ORG-5222

>  <5-HT1A>
7.7

>  <5-HT1B>
8.34

>  <5-HT1D>
8.07

>  <5-HT1E>
7.69

>  <5-HT2A>
9.41

>  <5-HT2C>
9.63

>  <5-HT3>
6.35

>  <5-HT5>
8.4

>  <5-HT6>
8.85

>  <5-HT7>
9.05

>  <Alpha-1A>
8.36

>  <Alpha-1B>
8.41

>  <Alpha-2A>
8.08

>  <Alpha-2B>
8.64

>  <Alpha-2C>
7.82

>  <Beta-1>
5.3

>  <Beta-2>
5.3

>  <DOPAMINE D1>
8.54

>  <DOPAMINE D2>
8.72

>  <DOPAMINE D3>
8.74

>  <DOPAMINE D4>
8.58

>  <DOPAMINE D5>
7.64

>  <Dopamine transporter>
5.5

>  <HISTAMINE H1>
8.91

>  <HISTAMINE H2>
8.64

>  <HISTAMINE H4>
5

>  <Muscarinic acetylcholine receptor M1>
7.61

>  <Muscarinic acetylcholine receptor M2>
7.1

>  <Muscarinic acetylcholine receptor M3>
7.41

>  <Muscarinic acetylcholine receptor M4>
5

>  <Muscarinic acetylcholine receptor M5>
8.02

>  <Norepinephrine transporter>
5

>  <Serotonin transporter>
5.5

$$$$
PARECOXIB
  Marvin  02231216192D 0   1.00000     0.00000     0

 26 28  0  0  0  0  0  0  0  0999 V2000
    3.2898   -1.2399    0.0000 S   0  0  0  0  0  0  0  0  0
    3.7023   -0.5254    0.0000 O   0  0  0  0  0  0  0  0  0
    2.8773   -1.9544    0.0000 O   0  0  0  0  0  0  0  0  0
    4.0042   -1.6524    0.0000 N   0  0  0  0  0  0  0  0  0
    4.7187   -1.2399    0.0000 C   0  0  0  0  0  0  0  0  0
    4.7187   -0.4149    0.0000 O   0  0  0  0  0  0  0  0  0
    5.4332   -1.6524    0.0000 C   0  0  0  0  0  0  0  0  0
    6.1476   -1.2399    0.0000 C   0  0  0  0  0  0  0  0  0
    2.5753   -0.8274    0.0000 C   0  0  0  0  0  0  0  0  0
    1.8608   -1.2399    0.0000 C   0  0  0  0  0  0  0  0  0
    1.1463   -0.8274    0.0000 C   0  0  0  0  0  0  0  0  0
    1.1463   -0.0024    0.0000 C   0  0  0  0  0  0  0  0  0
    1.8608    0.4101    0.0000 C   0  0  0  0  0  0  0  0  0
    2.5753   -0.0024    0.0000 C   0  0  0  0  0  0  0  0  0
    0.4319    0.4101    0.0000 C   0  0  0  0  0  0  0  0  0
   -0.3218    0.0745    0.0000 C   0  0  0  0  0  0  0  0  0
   -0.8738    0.6876    0.0000 N   0  0  0  0  0  0  0  0  0
   -0.4613    1.4021    0.0000 O   0  0  0  0  0  0  0  0  0
    0.3456    1.2306    0.0000 C   0  0  0  0  0  0  0  0  0
    0.9587    1.7826    0.0000 C   0  0  0  0  0  0  0  0  0
   -0.4933   -0.7324    0.0000 C   0  0  0  0  0  0  0  0  0
    0.1198   -1.2845    0.0000 C   0  0  0  0  0  0  0  0  0
   -0.0518   -2.0914    0.0000 C   0  0  0  0  0  0  0  0  0
   -0.8364   -2.3464    0.0000 C   0  0  0  0  0  0  0  0  0
   -1.4495   -1.7943    0.0000 C   0  0  0  0  0  0  0  0  0
   -1.2779   -0.9874    0.0000 C   0  0  0  0  0  0  0  0  0
  1  2  2  0  0  0  0
  1  3  2  0  0  0  0
  1  4  1  0  0  0  0
  1  9  1  0  0  0  0
  4  5  1  0  0  0  0
  5  6  2  0  0  0  0
  5  7  1  0  0  0  0
  7  8  1  0  0  0  0
  9 10  4  0  0  0  0
  9 14  4  0  0  0  0
 10 11  4  0  0  0  0
 11 12  4  0  0  0  0
 12 13  4  0  0  0  0
 12 15  1  0  0  0  0
 13 14  4  0  0  0  0
 15 16  4  0  0  0  0
 15 19  4  0  0  0  0
 16 17  4  0  0  0  0
 16 21  1  0  0  0  0
 17 18  4  0  0  0  0
 18 19  4  0  0  0  0
 19 20  1  0  0  0  0
 21 22  4  0  0  0  0
 21 26  4  0  0  0  0
 22 23  4  0  0  0  0
 23 24  4  0  0  0  0
 24 25  4  0  0  0  0
 25 26  4  0  0  0  0
M  END
>  <Name_Molregno>
PARECOXIB

>  <5-HT1A>
5

>  <5-HT1B>
5

>  <5-HT1D>
5

>  <5-HT1E>
5

>  <5-HT2A>
5

>  <5-HT3>
5

>  <5-HT6>
5

>  <5-HT7>
5

>  <Alpha-1A>
5

>  <Alpha-1B>
5

>  <Alpha-2A>
5

>  <Alpha-2B>
5

>  <Alpha-2C>
5

>  <DOPAMINE D1>
5

>  <DOPAMINE D2>
5

>  <DOPAMINE D4>
5

>  <DOPAMINE D5>
5

>  <Dopamine transporter>
5

>  <HISTAMINE H1>
5

>  <HISTAMINE H2>
5

>  <HISTAMINE H4>
5

>  <Muscarinic acetylcholine receptor M2>
5

>  <Muscarinic acetylcholine receptor M5>
5

>  <Norepinephrine transporter>
5

>  <Serotonin transporter>
5

$$$$
PBR28
  Marvin  02231216192D 0   1.00000     0.00000     0

 26 28  0  0  0  0  0  0  0  0999 V2000
    0.4191    0.0796    0.0000 O   0  0  0  0  0  0  0  0  0
    0.4191   -0.7454    0.0000 C   0  0  0  0  0  0  0  0  0
    1.1336   -1.1579    0.0000 C   0  0  0  0  0  0  0  0  0
    1.1336   -1.9829    0.0000 C   0  0  0  0  0  0  0  0  0
    0.4191   -2.3954    0.0000 C   0  0  0  0  0  0  0  0  0
   -0.2953   -1.9829    0.0000 C   0  0  0  0  0  0  0  0  0
   -0.2953   -1.1579    0.0000 C   0  0  0  0  0  0  0  0  0
   -1.0098   -0.7454    0.0000 N   0  0  0  0  0  0  0  0  0
   -1.7243   -1.1579    0.0000 C   0  0  0  0  0  0  0  0  0
   -2.4387   -0.7454    0.0000 C   0  0  0  0  0  0  0  0  0
   -2.4387    0.0796    0.0000 C   0  0  0  0  0  0  0  0  0
   -3.1532    0.4921    0.0000 C   0  0  0  0  0  0  0  0  0
   -3.8677    0.0796    0.0000 C   0  0  0  0  0  0  0  0  0
   -3.8677   -0.7454    0.0000 C   0  0  0  0  0  0  0  0  0
   -3.1532   -1.1579    0.0000 C   0  0  0  0  0  0  0  0  0
   -3.1532   -1.9829    0.0000 O   0  0  0  0  0  0  0  0  0
   -3.8677   -2.3954    0.0000 C   0  0  0  0  0  0  0  0  0
   -1.0098    0.0796    0.0000 C   0  0  0  0  0  0  0  0  0
   -1.7243    0.4921    0.0000 O   0  0  0  0  0  0  0  0  0
   -0.2953    0.4921    0.0000 C   0  0  0  0  0  0  0  0  0
    1.1336    0.4921    0.0000 C   0  0  0  0  0  0  0  0  0
    1.1336    1.3171    0.0000 C   0  0  0  0  0  0  0  0  0
    1.8481    1.7296    0.0000 C   0  0  0  0  0  0  0  0  0
    2.5626    1.3171    0.0000 C   0  0  0  0  0  0  0  0  0
    2.5626    0.4921    0.0000 C   0  0  0  0  0  0  0  0  0
    1.8481    0.0796    0.0000 C   0  0  0  0  0  0  0  0  0
  1  2  1  0  0  0  0
  1 21  1  0  0  0  0
  2  3  4  0  0  0  0
  2  7  4  0  0  0  0
  3  4  4  0  0  0  0
  4  5  4  0  0  0  0
  5  6  4  0  0  0  0
  6  7  4  0  0  0  0
  7  8  1  0  0  0  0
  8  9  1  0  0  0  0
  8 18  1  0  0  0  0
  9 10  1  0  0  0  0
 10 11  4  0  0  0  0
 10 15  4  0  0  0  0
 11 12  4  0  0  0  0
 12 13  4  0  0  0  0
 13 14  4  0  0  0  0
 14 15  4  0  0  0  0
 15 16  1  0  0  0  0
 16 17  1  0  0  0  0
 18 19  2  0  0  0  0
 18 20  1  0  0  0  0
 21 22  4  0  0  0  0
 21 26  4  0  0  0  0
 22 23  4  0  0  0  0
 23 24  4  0  0  0  0
 24 25  4  0  0  0  0
 25 26  4  0  0  0  0
M  END
>  <Name_Molregno>
PBR28

>  <5-HT1A>
5

>  <5-HT1B>
5

>  <5-HT1D>
5

>  <5-HT1E>
5

>  <5-HT2A>
5

>  <5-HT3>
5

>  <5-HT5>
5

>  <5-HT6>
5

>  <5-HT7>
5

>  <Alpha-1A>
5

>  <Alpha-1B>
5

>  <Alpha-2A>
5

>  <Alpha-2B>
5

>  <Alpha-2C>
5

>  <Beta-1>
5

>  <Beta-2>
5

>  <DOPAMINE D1>
5

>  <DOPAMINE D2>
5

>  <DOPAMINE D4>
5

>  <Dopamine transporter>
5

>  <HISTAMINE H1>
5

>  <HISTAMINE H2>
5

>  <HISTAMINE H4>
5

>  <Muscarinic acetylcholine receptor M2>
5

>  <Muscarinic acetylcholine receptor M5>
5

>  <Norepinephrine transporter>
5

>  <Serotonin transporter>
5

$$$$
Piroxicam
  Marvin  02231216192D 0   1.00000     0.00000     0

 23 25  0  0  0  0  0  0  0  0999 V2000
    2.3267    1.3854    0.0000 S   0  0  0  0  0  0  0  0  0
    1.7964    2.0174    0.0000 O   0  0  0  0  0  0  0  0  0
    2.8570    2.0174    0.0000 O   0  0  0  0  0  0  0  0  0
    1.6123    0.9729    0.0000 N   0  0  0  0  0  0  0  0  0
    0.8978    1.3854    0.0000 C   0  0  0  0  0  0  0  0  0
    1.6123    0.1479    0.0000 C   0  0  0  0  0  0  0  0  0
    0.8978   -0.2646    0.0000 C   0  0  0  0  0  0  0  0  0
    0.1833    0.1479    0.0000 O   0  0  0  0  0  0  0  0  0
    0.8978   -1.0896    0.0000 N   0  0  0  0  0  0  0  0  0
    0.1833   -1.5021    0.0000 C   0  0  0  0  0  0  0  0  0
    0.1833   -2.3271    0.0000 N   0  0  0  0  0  0  0  0  0
   -0.5311   -2.7396    0.0000 C   0  0  0  0  0  0  0  0  0
   -1.2456   -2.3271    0.0000 C   0  0  0  0  0  0  0  0  0
   -1.2456   -1.5021    0.0000 C   0  0  0  0  0  0  0  0  0
   -0.5311   -1.0896    0.0000 C   0  0  0  0  0  0  0  0  0
    2.3267   -0.2646    0.0000 C   0  0  0  0  0  0  0  0  0
    2.3267   -1.0896    0.0000 O   0  0  0  0  0  0  0  0  0
    3.0412    0.1479    0.0000 C   0  0  0  0  0  0  0  0  0
    3.0412    0.9729    0.0000 C   0  0  0  0  0  0  0  0  0
    3.7557    1.3854    0.0000 C   0  0  0  0  0  0  0  0  0
    4.4702    0.9729    0.0000 C   0  0  0  0  0  0  0  0  0
    4.4702    0.1479    0.0000 C   0  0  0  0  0  0  0  0  0
    3.7557   -0.2646    0.0000 C   0  0  0  0  0  0  0  0  0
  1  2  2  0  0  0  0
  1  3  2  0  0  0  0
  1  4  1  0  0  0  0
  1 19  1  0  0  0  0
  4  5  1  0  0  0  0
  4  6  1  0  0  0  0
  6  7  2  0  0  0  0
  6 16  1  0  0  0  0
  7  8  1  0  0  0  0
  7  9  1  0  0  0  0
  9 10  1  0  0  0  0
 10 11  4  0  0  0  0
 10 15  4  0  0  0  0
 11 12  4  0  0  0  0
 12 13  4  0  0  0  0
 13 14  4  0  0  0  0
 14 15  4  0  0  0  0
 16 17  2  0  0  0  0
 16 18  1  0  0  0  0
 18 19  4  0  0  0  0
 18 23  4  0  0  0  0
 19 20  4  0  0  0  0
 20 21  4  0  0  0  0
 21 22  4  0  0  0  0
 22 23  4  0  0  0  0
M  END
>  <Name_Molregno>
Piroxicam

>  <5-HT1A>
5

>  <5-HT1B>
5

>  <5-HT1D>
5

>  <5-HT1E>
5

>  <5-HT2A>
5

>  <5-HT3>
5

>  <5-HT5>
5

>  <5-HT6>
5

>  <Alpha-1A>
5

>  <Alpha-1B>
5

>  <Alpha-2A>
5

>  <Alpha-2B>
5

>  <Alpha-2C>
5

>  <DOPAMINE D1>
5

>  <DOPAMINE D2>
5

>  <DOPAMINE D4>
5

>  <DOPAMINE D5>
5

>  <Dopamine transporter>
5

>  <HISTAMINE H1>
5

>  <HISTAMINE H2>
5

>  <Muscarinic acetylcholine receptor M2>
5

>  <Muscarinic acetylcholine receptor M5>
5

>  <Norepinephrine transporter>
5

>  <Serotonin transporter>
5

$$$$
PNU-282987
  Marvin  02231216192D 0   1.00000     0.00000     0

 18 20  0  0  1  0  0  0  0  0999 V2000
    0.2308    0.8082    0.0000 Cl  0  0  0  0  0  0  0  0  0
    0.9514    0.4064    0.0000 C   0  0  0  0  0  0  0  0  0
    1.6596    0.8296    0.0000 C   0  0  0  0  0  0  0  0  0
    2.3802    0.4279    0.0000 C   0  0  0  0  0  0  0  0  0
    2.3926   -0.3970    0.0000 C   0  0  0  0  0  0  0  0  0
    1.6844   -0.8202    0.0000 C   0  0  0  0  0  0  0  0  0
    0.9638   -0.4185    0.0000 C   0  0  0  0  0  0  0  0  0
    3.1132   -0.7987    0.0000 C   0  0  0  0  0  0  0  0  0
    3.1255   -1.6236    0.0000 O   0  0  0  0  0  0  0  0  0
    3.8214   -0.3756    0.0000 N   0  0  0  0  0  0  0  0  0
    4.5419   -0.7773    0.0000 C   0  0  0  0  0  0  0  0  0
    5.3457   -0.4254    0.0000 C   0  0  0  0  0  0  0  0  0
    6.0843   -0.7577    0.0000 C   0  0  0  0  0  0  0  0  0
    6.2369   -1.5207    0.0000 C   0  0  0  0  0  0  0  0  0
    5.4884   -1.1738    0.0000 N   0  0  0  0  0  0  0  0  0
    4.6491   -1.5327    0.0000 C   0  0  0  0  0  0  0  0  0
    5.6281   -0.1352    0.0000 C   0  0  0  0  0  0  0  0  0
    5.3834    0.4707    0.0000 C   0  0  0  0  0  0  0  0  0
  1  2  1  0  0  0  0
  2  3  4  0  0  0  0
  2  7  4  0  0  0  0
  3  4  4  0  0  0  0
  4  5  4  0  0  0  0
  5  6  4  0  0  0  0
  5  8  1  0  0  0  0
  6  7  4  0  0  0  0
  8  9  2  0  0  0  0
  8 10  1  0  0  0  0
 10 11  1  0  0  0  0
 11 12  1  0  0  0  0
 11 16  1  0  0  0  0
 12 13  1  0  0  0  0
 12 18  1  0  0  0  0
 13 14  1  0  0  0  0
 14 15  1  0  0  0  0
 15 16  1  0  0  0  0
 15 17  1  0  0  0  0
 17 18  1  0  0  0  0
M  END
>  <Name_Molregno>
PNU-282987

>  <5-HT3>
5.56

$$$$
PRAZOSIN
  Marvin  02231216192D 0   1.00000     0.00000     0

 28 31  0  0  0  0  0  0  0  0999 V2000
    1.9686   -3.1357    0.0000 O   0  0  0  0  0  0  0  0  0
    1.7137   -3.9204    0.0000 C   0  0  0  0  0  0  0  0  0
    0.8887   -3.9204    0.0000 C   0  0  0  0  0  0  0  0  0
    0.6338   -3.1357    0.0000 C   0  0  0  0  0  0  0  0  0
    1.3012   -2.6508    0.0000 C   0  0  0  0  0  0  0  0  0
    1.3012   -1.8258    0.0000 C   0  0  0  0  0  0  0  0  0
    0.5867   -1.4133    0.0000 O   0  0  0  0  0  0  0  0  0
    2.0157   -1.4133    0.0000 N   0  0  0  0  0  0  0  0  0
    2.0157   -0.5883    0.0000 C   0  0  0  0  0  0  0  0  0
    2.7302   -0.1758    0.0000 C   0  0  0  0  0  0  0  0  0
    3.4446   -0.5883    0.0000 N   0  0  0  0  0  0  0  0  0
    3.4446   -1.4133    0.0000 C   0  0  0  0  0  0  0  0  0
    2.7302   -1.8258    0.0000 C   0  0  0  0  0  0  0  0  0
    4.1591   -0.1758    0.0000 C   0  0  0  0  0  0  0  0  0
    4.1591    0.6492    0.0000 N   0  0  0  0  0  0  0  0  0
    4.8736    1.0617    0.0000 C   0  0  0  0  0  0  0  0  0
    4.8736    1.8867    0.0000 N   0  0  0  0  0  0  0  0  0
    5.5880    0.6492    0.0000 C   0  0  0  0  0  0  0  0  0
    6.3025    1.0617    0.0000 C   0  0  0  0  0  0  0  0  0
    7.0170    0.6492    0.0000 C   0  0  0  0  0  0  0  0  0
    7.7314    1.0617    0.0000 O   0  0  0  0  0  0  0  0  0
    7.7314    1.8867    0.0000 C   0  0  0  0  0  0  0  0  0
    7.0170   -0.1758    0.0000 C   0  0  0  0  0  0  0  0  0
    7.7314   -0.5883    0.0000 O   0  0  0  0  0  0  0  0  0
    7.7314   -1.4133    0.0000 C   0  0  0  0  0  0  0  0  0
    6.3025   -0.5883    0.0000 C   0  0  0  0  0  0  0  0  0
    5.5880   -0.1758    0.0000 C   0  0  0  0  0  0  0  0  0
    4.8736   -0.5883    0.0000 N   0  0  0  0  0  0  0  0  0
  1  2  4  0  0  0  0
  1  5  4  0  0  0  0
  2  3  4  0  0  0  0
  3  4  4  0  0  0  0
  4  5  4  0  0  0  0
  5  6  1  0  0  0  0
  6  7  2  0  0  0  0
  6  8  1  0  0  0  0
  8  9  1  0  0  0  0
  8 13  1  0  0  0  0
  9 10  1  0  0  0  0
 10 11  1  0  0  0  0
 11 12  1  0  0  0  0
 11 14  1  0  0  0  0
 12 13  1  0  0  0  0
 14 15  4  0  0  0  0
 14 28  4  0  0  0  0
 15 16  4  0  0  0  0
 16 17  1  0  0  0  0
 16 18  4  0  0  0  0
 18 19  4  0  0  0  0
 18 27  4  0  0  0  0
 19 20  4  0  0  0  0
 20 21  1  0  0  0  0
 20 23  4  0  0  0  0
 21 22  1  0  0  0  0
 23 24  1  0  0  0  0
 23 26  4  0  0  0  0
 24 25  1  0  0  0  0
 26 27  4  0  0  0  0
 27 28  4  0  0  0  0
M  END
>  <Name_Molregno>
PRAZOSIN

>  <5-HT1A>
5

>  <5-HT2A>
6.92

>  <5-HT3>
5

>  <5-HT7>
5

>  <Alpha-1A>
9.14

>  <Alpha-1B>
9.33

>  <Alpha-2A>
5.84

>  <Alpha-2B>
7.11

>  <Alpha-2C>
7.52

$$$$
Propanolol
  Marvin  02231216192D 0   1.00000     0.00000     0

 19 20  0  0  1  0  0  0  0  0999 V2000
   -0.0029    0.3857    0.0000 O   0  0  0  0  0  0  0  0  0
    0.7115   -0.0268    0.0000 C   0  0  0  0  0  0  0  0  0
    1.4260    0.3857    0.0000 C   0  0  0  0  0  0  0  0  0
    1.4260    1.2107    0.0000 O   0  0  0  0  0  0  0  0  0
    2.1405   -0.0268    0.0000 C   0  0  0  0  0  0  0  0  0
    2.8550    0.3857    0.0000 N   0  0  0  0  0  0  0  0  0
    3.5694   -0.0268    0.0000 C   0  0  0  0  0  0  0  0  0
    4.2839    0.3857    0.0000 C   0  0  0  0  0  0  0  0  0
    3.5694   -0.8518    0.0000 C   0  0  0  0  0  0  0  0  0
   -0.7174   -0.0268    0.0000 C   0  0  0  0  0  0  0  0  0
   -1.4319    0.3857    0.0000 C   0  0  0  0  0  0  0  0  0
   -2.1463   -0.0268    0.0000 C   0  0  0  0  0  0  0  0  0
   -2.1463   -0.8518    0.0000 C   0  0  0  0  0  0  0  0  0
   -1.4319   -1.2643    0.0000 C   0  0  0  0  0  0  0  0  0
   -0.7174   -0.8518    0.0000 C   0  0  0  0  0  0  0  0  0
   -2.8608    0.3857    0.0000 C   0  0  0  0  0  0  0  0  0
   -2.8608    1.2107    0.0000 C   0  0  0  0  0  0  0  0  0
   -2.1463    1.6232    0.0000 C   0  0  0  0  0  0  0  0  0
   -1.4319    1.2107    0.0000 C   0  0  0  0  0  0  0  0  0
  1  2  1  0  0  0  0
  1 10  1  0  0  0  0
  2  3  1  0  0  0  0
  3  4  1  0  0  0  0
  3  5  1  0  0  0  0
  5  6  1  0  0  0  0
  6  7  1  0  0  0  0
  7  8  1  0  0  0  0
  7  9  1  0  0  0  0
 10 11  4  0  0  0  0
 10 15  4  0  0  0  0
 11 12  4  0  0  0  0
 11 19  4  0  0  0  0
 12 13  4  0  0  0  0
 12 16  4  0  0  0  0
 13 14  4  0  0  0  0
 14 15  4  0  0  0  0
 16 17  4  0  0  0  0
 17 18  4  0  0  0  0
 18 19  4  0  0  0  0
M  END
>  <Name_Molregno>
Propanolol

>  <5-HT1A>
6.57

>  <5-HT1B>
5.87

>  <5-HT1D>
5.35

>  <5-HT2A>
5.3

>  <5-HT3>
5

>  <Beta-1>
9.34

>  <Beta-2>
9.68

>  <DOPAMINE D1>
5

>  <DOPAMINE D2>
5

>  <HISTAMINE H1>
5

$$$$
PSILOCIN
  Marvin  02231216192D 0   1.00000     0.00000     0

 15 16  0  0  0  0  0  0  0  0999 V2000
    1.2794   -2.2041    0.0000 O   0  0  0  0  0  0  0  0  0
    1.2794   -1.3791    0.0000 C   0  0  0  0  0  0  0  0  0
    0.5650   -0.9666    0.0000 C   0  0  0  0  0  0  0  0  0
    0.5650   -0.1416    0.0000 C   0  0  0  0  0  0  0  0  0
   -0.2197    0.1134    0.0000 N   0  0  0  0  0  0  0  0  0
   -0.7046   -0.5541    0.0000 C   0  0  0  0  0  0  0  0  0
   -0.2197   -1.2215    0.0000 C   0  0  0  0  0  0  0  0  0
   -0.4746   -2.0061    0.0000 C   0  0  0  0  0  0  0  0  0
   -1.2816   -2.1777    0.0000 C   0  0  0  0  0  0  0  0  0
   -1.5365   -2.9623    0.0000 N   0  0  0  0  0  0  0  0  0
   -2.3435   -3.1338    0.0000 C   0  0  0  0  0  0  0  0  0
   -0.9845   -3.5754    0.0000 C   0  0  0  0  0  0  0  0  0
    1.2794    0.2709    0.0000 C   0  0  0  0  0  0  0  0  0
    1.9939   -0.1416    0.0000 C   0  0  0  0  0  0  0  0  0
    1.9939   -0.9666    0.0000 C   0  0  0  0  0  0  0  0  0
  1  2  1  0  0  0  0
  2  3  4  0  0  0  0
  2 15  4  0  0  0  0
  3  4  4  0  0  0  0
  3  7  4  0  0  0  0
  4  5  4  0  0  0  0
  4 13  4  0  0  0  0
  5  6  4  0  0  0  0
  6  7  4  0  0  0  0
  7  8  1  0  0  0  0
  8  9  1  0  0  0  0
  9 10  1  0  0  0  0
 10 11  1  0  0  0  0
 10 12  1  0  0  0  0
 13 14  4  0  0  0  0
 14 15  4  0  0  0  0
M  STY  1   1 DAT
M  SAL   1  1   5
M  SDT   1 MRV_IMPLICIT_H                                        
M  SDD   1     0.0000    0.0000    DR    ALL  0       0  
M  SED   1 IMPL_H1
M  END
>  <Name_Molregno>
PSILOCIN

>  <5-HT1A>
6.78

>  <5-HT1B>
6.66

>  <5-HT1D>
7.44

>  <5-HT1E>
7.28

>  <5-HT2A>
6.97

>  <5-HT3>
5

>  <5-HT5>
7.08

>  <5-HT6>
7.24

>  <5-HT7>
8.46

>  <Alpha-1A>
5

>  <Alpha-1B>
5

>  <Alpha-2A>
5.86

>  <Alpha-2B>
5.72

>  <Alpha-2C>
5

>  <Beta-1>
5

>  <DOPAMINE D1>
5

>  <DOPAMINE D2>
5

>  <DOPAMINE D4>
5

>  <DOPAMINE D5>
5

>  <Dopamine transporter>
5

>  <HISTAMINE H1>
6.52

>  <HISTAMINE H2>
5

>  <HISTAMINE H4>
5

>  <Muscarinic acetylcholine receptor M2>
5

>  <Muscarinic acetylcholine receptor M5>
5

>  <Norepinephrine transporter>
5

>  <Serotonin transporter>
5.42

$$$$
PSILOCYBIN
  Marvin  02231216192D 0   1.00000     0.00000     0

 19 20  0  0  0  0  0  0  0  0999 V2000
    0.6946   -2.4480    0.0000 P   0  0  0  0  0  0  0  0  0
   -0.0199   -2.0355    0.0000 O   0  0  0  0  0  0  0  0  0
   -0.0199   -1.2105    0.0000 C   0  0  0  0  0  0  0  0  0
   -0.7343   -0.7980    0.0000 C   0  0  0  0  0  0  0  0  0
   -0.7343    0.0270    0.0000 C   0  0  0  0  0  0  0  0  0
   -1.5190    0.2819    0.0000 N   0  0  0  0  0  0  0  0  0
   -2.0039   -0.3855    0.0000 C   0  0  0  0  0  0  0  0  0
   -1.5190   -1.0530    0.0000 C   0  0  0  0  0  0  0  0  0
   -1.7739   -1.8376    0.0000 C   0  0  0  0  0  0  0  0  0
   -2.5809   -2.0091    0.0000 C   0  0  0  0  0  0  0  0  0
   -2.8358   -2.7937    0.0000 N   0  0  0  0  0  0  0  0  0
   -3.6428   -2.9653    0.0000 C   0  0  0  0  0  0  0  0  0
   -2.2838   -3.4068    0.0000 C   0  0  0  0  0  0  0  0  0
   -0.0199    0.4395    0.0000 C   0  0  0  0  0  0  0  0  0
    0.6946    0.0270    0.0000 C   0  0  0  0  0  0  0  0  0
    0.6946   -0.7980    0.0000 C   0  0  0  0  0  0  0  0  0
    1.4091   -2.8605    0.0000 O   0  0  0  0  0  0  0  0  0
    0.2821   -3.1625    0.0000 O   0  0  0  0  0  0  0  0  0
    1.1071   -1.7336    0.0000 O   0  0  0  0  0  0  0  0  0
  1  2  1  0  0  0  0
  1 17  2  0  0  0  0
  1 18  1  0  0  0  0
  1 19  1  0  0  0  0
  2  3  1  0  0  0  0
  3  4  4  0  0  0  0
  3 16  4  0  0  0  0
  4  5  4  0  0  0  0
  4  8  4  0  0  0  0
  5  6  4  0  0  0  0
  5 14  4  0  0  0  0
  6  7  4  0  0  0  0
  7  8  4  0  0  0  0
  8  9  1  0  0  0  0
  9 10  1  0  0  0  0
 10 11  1  0  0  0  0
 11 12  1  0  0  0  0
 11 13  1  0  0  0  0
 14 15  4  0  0  0  0
 15 16  4  0  0  0  0
M  STY  1   1 DAT
M  SAL   1  1   6
M  SDT   1 MRV_IMPLICIT_H                                        
M  SDD   1     0.0000    0.0000    DR    ALL  0       0  
M  SED   1 IMPL_H1
M  END
>  <Name_Molregno>
PSILOCYBIN

>  <5-HT1A>
5

>  <5-HT1B>
5

>  <5-HT1D>
5.67

>  <5-HT1E>
6.71

>  <5-HT2A>
5

>  <5-HT3>
5

>  <5-HT5>
5.21

>  <5-HT6>
6.38

>  <5-HT7>
6.22

>  <Alpha-1A>
5

>  <Alpha-1B>
5

>  <Alpha-2A>
5

>  <Alpha-2B>
5

>  <Alpha-2C>
5

>  <DOPAMINE D1>
5

>  <DOPAMINE D2>
5

>  <DOPAMINE D4>
5

>  <DOPAMINE D5>
5

>  <Dopamine transporter>
5

>  <HISTAMINE H1>
5

>  <HISTAMINE H2>
5

>  <HISTAMINE H4>
5

>  <Muscarinic acetylcholine receptor M2>
5

>  <Muscarinic acetylcholine receptor M5>
5

>  <Norepinephrine transporter>
5

>  <Serotonin transporter>
5

$$$$
Quercetin
  Marvin  02231216192D 0   1.00000     0.00000     0

 22 24  0  0  0  0  0  0  0  0999 V2000
    0.2617    0.1403    0.0000 O   0  0  0  0  0  0  0  0  0
    0.9762    0.5528    0.0000 C   0  0  0  0  0  0  0  0  0
    0.9762    1.3778    0.0000 C   0  0  0  0  0  0  0  0  0
    0.2617    1.7903    0.0000 C   0  0  0  0  0  0  0  0  0
    0.2617    2.6153    0.0000 O   0  0  0  0  0  0  0  0  0
   -0.4528    1.3778    0.0000 C   0  0  0  0  0  0  0  0  0
   -1.1672    1.7903    0.0000 O   0  0  0  0  0  0  0  0  0
   -0.4528    0.5528    0.0000 C   0  0  0  0  0  0  0  0  0
   -1.1672    0.1403    0.0000 C   0  0  0  0  0  0  0  0  0
   -1.1672   -0.6847    0.0000 C   0  0  0  0  0  0  0  0  0
   -1.8817   -1.0972    0.0000 C   0  0  0  0  0  0  0  0  0
   -1.8817   -1.9222    0.0000 O   0  0  0  0  0  0  0  0  0
   -2.5962   -0.6847    0.0000 C   0  0  0  0  0  0  0  0  0
   -3.3106   -1.0972    0.0000 O   0  0  0  0  0  0  0  0  0
   -2.5962    0.1403    0.0000 C   0  0  0  0  0  0  0  0  0
   -1.8817    0.5528    0.0000 C   0  0  0  0  0  0  0  0  0
    1.6907    1.7903    0.0000 C   0  0  0  0  0  0  0  0  0
    1.6907    2.6153    0.0000 O   0  0  0  0  0  0  0  0  0
    2.4051    1.3778    0.0000 C   0  0  0  0  0  0  0  0  0
    2.4051    0.5528    0.0000 C   0  0  0  0  0  0  0  0  0
    3.1196    0.1403    0.0000 O   0  0  0  0  0  0  0  0  0
    1.6907    0.1403    0.0000 C   0  0  0  0  0  0  0  0  0
  1  2  1  0  0  0  0
  1  8  1  0  0  0  0
  2  3  4  0  0  0  0
  2 22  4  0  0  0  0
  3  4  1  0  0  0  0
  3 17  4  0  0  0  0
  4  5  2  0  0  0  0
  4  6  1  0  0  0  0
  6  7  1  0  0  0  0
  6  8  2  0  0  0  0
  8  9  1  0  0  0  0
  9 10  4  0  0  0  0
  9 16  4  0  0  0  0
 10 11  4  0  0  0  0
 11 12  1  0  0  0  0
 11 13  4  0  0  0  0
 13 14  1  0  0  0  0
 13 15  4  0  0  0  0
 15 16  4  0  0  0  0
 17 18  1  0  0  0  0
 17 19  4  0  0  0  0
 19 20  4  0  0  0  0
 20 21  1  0  0  0  0
 20 22  4  0  0  0  0
M  END
>  <Name_Molregno>
Quercetin

>  <5-HT1A>
5

>  <5-HT1D>
5

>  <5-HT3>
5

>  <5-HT5>
5

>  <5-HT6>
5

>  <5-HT7>
5

>  <Alpha-1A>
5

>  <Alpha-1B>
5

>  <Alpha-2A>
5

>  <Alpha-2B>
5

>  <Alpha-2C>
5

>  <DOPAMINE D1>
5

>  <DOPAMINE D5>
5

>  <Muscarinic acetylcholine receptor M1>
5

>  <Muscarinic acetylcholine receptor M2>
5

>  <Muscarinic acetylcholine receptor M3>
5

>  <Muscarinic acetylcholine receptor M4>
5

>  <Muscarinic acetylcholine receptor M5>
5

>  <Norepinephrine transporter>
5

>  <Serotonin transporter>
5

$$$$
Quercitrin
  Marvin  02231216192D 0   1.00000     0.00000     0

 32 35  0  0  1  0  0  0  0  0999 V2000
    1.5011    1.5398    0.0000 O   0  0  0  0  0  0  0  0  0
    1.5011    2.3648    0.0000 C   0  0  0  0  0  0  0  0  0
    2.2156    2.7773    0.0000 C   0  0  0  0  0  0  0  0  0
    0.7866    2.7773    0.0000 C   0  0  0  0  0  0  0  0  0
    0.7866    3.6023    0.0000 O   0  0  0  0  0  0  0  0  0
    0.0722    2.3648    0.0000 C   0  0  0  0  0  0  0  0  0
   -0.6423    2.7773    0.0000 O   0  0  0  0  0  0  0  0  0
    0.0722    1.5398    0.0000 C   0  0  0  0  0  0  0  0  0
   -0.6423    1.1273    0.0000 O   0  0  0  0  0  0  0  0  0
    0.7866    1.1273    0.0000 C   0  0  0  0  0  0  0  0  0
    0.7866    0.3023    0.0000 O   0  0  0  0  0  0  0  0  0
    1.5011   -0.1102    0.0000 C   0  0  0  0  0  0  0  0  0
    1.5011   -0.9352    0.0000 C   0  0  0  0  0  0  0  0  0
    2.2156   -1.3477    0.0000 O   0  0  0  0  0  0  0  0  0
    2.9300   -0.9352    0.0000 C   0  0  0  0  0  0  0  0  0
    2.9300   -0.1102    0.0000 C   0  0  0  0  0  0  0  0  0
    2.2156    0.3023    0.0000 C   0  0  0  0  0  0  0  0  0
    2.2156    1.1273    0.0000 O   0  0  0  0  0  0  0  0  0
    3.6445    0.3023    0.0000 C   0  0  0  0  0  0  0  0  0
    3.6445    1.1273    0.0000 O   0  0  0  0  0  0  0  0  0
    4.3590   -0.1102    0.0000 C   0  0  0  0  0  0  0  0  0
    4.3590   -0.9352    0.0000 C   0  0  0  0  0  0  0  0  0
    5.0734   -1.3477    0.0000 O   0  0  0  0  0  0  0  0  0
    3.6445   -1.3477    0.0000 C   0  0  0  0  0  0  0  0  0
    0.7866   -1.3477    0.0000 C   0  0  0  0  0  0  0  0  0
    0.7866   -2.1727    0.0000 C   0  0  0  0  0  0  0  0  0
    0.0722   -2.5852    0.0000 C   0  0  0  0  0  0  0  0  0
    0.0722   -3.4102    0.0000 O   0  0  0  0  0  0  0  0  0
   -0.6423   -2.1727    0.0000 C   0  0  0  0  0  0  0  0  0
   -1.3568   -2.5852    0.0000 O   0  0  0  0  0  0  0  0  0
   -0.6423   -1.3477    0.0000 C   0  0  0  0  0  0  0  0  0
    0.0722   -0.9352    0.0000 C   0  0  0  0  0  0  0  0  0
  1  2  1  0  0  0  0
  1 10  1  0  0  0  0
  2  3  1  0  0  0  0
  2  4  1  0  0  0  0
  4  5  1  0  0  0  0
  4  6  1  0  0  0  0
  6  7  1  0  0  0  0
  6  8  1  0  0  0  0
  8  9  1  0  0  0  0
  8 10  1  0  0  0  0
 10 11  1  0  0  0  0
 11 12  1  0  0  0  0
 12 13  2  0  0  0  0
 12 17  1  0  0  0  0
 13 14  1  0  0  0  0
 13 25  1  0  0  0  0
 14 15  1  0  0  0  0
 15 16  1  0  0  0  0
 15 24  2  0  0  0  0
 16 17  2  0  0  0  0
 16 19  1  0  0  0  0
 17 18  1  0  0  0  0
 19 20  1  0  0  0  0
 19 21  2  0  0  0  0
 21 22  1  0  0  0  0
 22 23  2  0  0  0  0
 22 24  1  0  0  0  0
 25 26  4  0  0  0  0
 25 32  4  0  0  0  0
 26 27  4  0  0  0  0
 27 28  1  0  0  0  0
 27 29  4  0  0  0  0
 29 30  1  0  0  0  0
 29 31  4  0  0  0  0
 31 32  4  0  0  0  0
M  END
>  <Name_Molregno>
Quercitrin

>  <5-HT1A>
5

>  <5-HT1D>
5

>  <5-HT3>
5

>  <5-HT5>
5

>  <5-HT6>
5

>  <5-HT7>
5

>  <Alpha-1A>
5

>  <Alpha-1B>
5

>  <Alpha-2A>
5

>  <Alpha-2B>
5

>  <Alpha-2C>
5

>  <DOPAMINE D1>
5

>  <DOPAMINE D5>
5

>  <Muscarinic acetylcholine receptor M1>
5

>  <Muscarinic acetylcholine receptor M2>
5

>  <Muscarinic acetylcholine receptor M3>
5

>  <Muscarinic acetylcholine receptor M4>
5

>  <Muscarinic acetylcholine receptor M5>
5

>  <Norepinephrine transporter>
5

>  <Serotonin transporter>
5

$$$$
QUETIAPINE
  Marvin  02231216192D 0   1.00000     0.00000     0

 27 30  0  0  0  0  0  0  0  0999 V2000
    0.4015    1.2563    0.0000 S   0  0  0  0  0  0  0  0  0
    1.2173    1.3793    0.0000 C   0  0  0  0  0  0  0  0  0
    1.8221    0.8181    0.0000 C   0  0  0  0  0  0  0  0  0
    2.6104    1.0613    0.0000 C   0  0  0  0  0  0  0  0  0
    2.7940    1.8656    0.0000 C   0  0  0  0  0  0  0  0  0
    2.1892    2.4268    0.0000 C   0  0  0  0  0  0  0  0  0
    1.4009    2.1836    0.0000 C   0  0  0  0  0  0  0  0  0
    1.7604   -0.0046    0.0000 C   0  0  0  0  0  0  0  0  0
    1.0788   -0.4693    0.0000 N   0  0  0  0  0  0  0  0  0
    0.2904   -0.2261    0.0000 C   0  0  0  0  0  0  0  0  0
   -0.0110    0.5418    0.0000 C   0  0  0  0  0  0  0  0  0
   -0.8268    0.6648    0.0000 C   0  0  0  0  0  0  0  0  0
   -1.3412    0.0198    0.0000 C   0  0  0  0  0  0  0  0  0
   -1.0398   -0.7482    0.0000 C   0  0  0  0  0  0  0  0  0
   -0.2240   -0.8711    0.0000 C   0  0  0  0  0  0  0  0  0
    2.4749   -0.4171    0.0000 N   0  0  0  0  0  0  0  0  0
    3.1893   -0.0046    0.0000 C   0  0  0  0  0  0  0  0  0
    3.9038   -0.4171    0.0000 C   0  0  0  0  0  0  0  0  0
    3.9038   -1.2421    0.0000 N   0  0  0  0  0  0  0  0  0
    3.1893   -1.6546    0.0000 C   0  0  0  0  0  0  0  0  0
    2.4749   -1.2421    0.0000 C   0  0  0  0  0  0  0  0  0
    4.6183   -1.6546    0.0000 C   0  0  0  0  0  0  0  0  0
    5.3328   -1.2421    0.0000 C   0  0  0  0  0  0  0  0  0
    6.0472   -1.6546    0.0000 O   0  0  0  0  0  0  0  0  0
    6.7617   -1.2421    0.0000 C   0  0  0  0  0  0  0  0  0
    7.4762   -1.6546    0.0000 C   0  0  0  0  0  0  0  0  0
    8.1906   -1.2421    0.0000 O   0  0  0  0  0  0  0  0  0
  1  2  1  0  0  0  0
  1 11  1  0  0  0  0
  2  3  4  0  0  0  0
  2  7  4  0  0  0  0
  3  4  4  0  0  0  0
  3  8  1  0  0  0  0
  4  5  4  0  0  0  0
  5  6  4  0  0  0  0
  6  7  4  0  0  0  0
  8  9  2  0  0  0  0
  8 16  1  0  0  0  0
  9 10  1  0  0  0  0
 10 11  4  0  0  0  0
 10 15  4  0  0  0  0
 11 12  4  0  0  0  0
 12 13  4  0  0  0  0
 13 14  4  0  0  0  0
 14 15  4  0  0  0  0
 16 17  1  0  0  0  0
 16 21  1  0  0  0  0
 17 18  1  0  0  0  0
 18 19  1  0  0  0  0
 19 20  1  0  0  0  0
 19 22  1  0  0  0  0
 20 21  1  0  0  0  0
 22 23  1  0  0  0  0
 23 24  1  0  0  0  0
 24 25  1  0  0  0  0
 25 26  1  0  0  0  0
 26 27  1  0  0  0  0
M  END
>  <Name_Molregno>
QUETIAPINE

>  <5-HT1A>
6.59

>  <5-HT1B>
5.83

>  <5-HT1D>
5.52

>  <5-HT1E>
5.76

>  <5-HT2A>
6.76

>  <5-HT2C>
5.82

>  <5-HT3>
5

>  <5-HT5>
5.51

>  <5-HT6>
6.35

>  <5-HT7>
6.74

>  <Alpha-1A>
7.66

>  <Alpha-1B>
7.41

>  <Alpha-2A>
5.51

>  <Alpha-2B>
6.44

>  <Alpha-2C>
7.18

>  <Beta-1>
5.15

>  <Beta-2>
5.15

>  <DOPAMINE D1>
5.95

>  <DOPAMINE D2>
6.51

>  <DOPAMINE D3>
6.59

>  <DOPAMINE D4>
5.77

>  <DOPAMINE D5>
5.79

>  <Dopamine transporter>
5

>  <HISTAMINE H1>
8.1

>  <HISTAMINE H2>
5

>  <HISTAMINE H4>
5

>  <Muscarinic acetylcholine receptor M1>
6.71

>  <Muscarinic acetylcholine receptor M2>
6.03

>  <Muscarinic acetylcholine receptor M3>
5.69

>  <Muscarinic acetylcholine receptor M4>
6.5

>  <Muscarinic acetylcholine receptor M5>
5.58

>  <Norepinephrine transporter>
5

>  <Serotonin transporter>
5.18

$$$$
QUIPAZINE
  Marvin  02231216192D 0   1.00000     0.00000     0

 16 18  0  0  0  0  0  0  0  0999 V2000
    0.2326    0.1177    0.0000 N   0  0  0  0  0  0  0  0  0
    0.9471    0.5302    0.0000 C   0  0  0  0  0  0  0  0  0
    0.9471    1.3552    0.0000 C   0  0  0  0  0  0  0  0  0
    0.2326    1.7677    0.0000 C   0  0  0  0  0  0  0  0  0
   -0.4818    1.3552    0.0000 C   0  0  0  0  0  0  0  0  0
   -0.4818    0.5302    0.0000 C   0  0  0  0  0  0  0  0  0
   -1.1963    0.1177    0.0000 N   0  0  0  0  0  0  0  0  0
   -1.1963   -0.7073    0.0000 C   0  0  0  0  0  0  0  0  0
   -1.9108   -1.1198    0.0000 C   0  0  0  0  0  0  0  0  0
   -2.6252   -0.7073    0.0000 N   0  0  0  0  0  0  0  0  0
   -2.6252    0.1177    0.0000 C   0  0  0  0  0  0  0  0  0
   -1.9108    0.5302    0.0000 C   0  0  0  0  0  0  0  0  0
    1.6616    1.7677    0.0000 C   0  0  0  0  0  0  0  0  0
    2.3761    1.3552    0.0000 C   0  0  0  0  0  0  0  0  0
    2.3761    0.5302    0.0000 C   0  0  0  0  0  0  0  0  0
    1.6616    0.1177    0.0000 C   0  0  0  0  0  0  0  0  0
  1  2  4  0  0  0  0
  1  6  4  0  0  0  0
  2  3  4  0  0  0  0
  2 16  4  0  0  0  0
  3  4  4  0  0  0  0
  3 13  4  0  0  0  0
  4  5  4  0  0  0  0
  5  6  4  0  0  0  0
  6  7  1  0  0  0  0
  7  8  1  0  0  0  0
  7 12  1  0  0  0  0
  8  9  1  0  0  0  0
  9 10  1  0  0  0  0
 10 11  1  0  0  0  0
 11 12  1  0  0  0  0
 13 14  4  0  0  0  0
 14 15  4  0  0  0  0
 15 16  4  0  0  0  0
M  END
>  <Name_Molregno>
QUIPAZINE

>  <5-HT1A>
5.39

>  <5-HT1B>
6

>  <5-HT1D>
5.8

>  <5-HT2A>
6.53

>  <5-HT2C>
6.87

>  <5-HT3>
8.42

>  <5-HT6>
5.44

>  <DOPAMINE D1>
5

>  <DOPAMINE D2>
5

$$$$
RANITIDINE
  Marvin  02231216192D 0   1.00000     0.00000     0

 21 21  0  0  0  0  0  0  0  0999 V2000
   -0.1828    0.2853    0.0000 S   0  0  0  0  0  0  0  0  0
   -0.8973    0.6978    0.0000 C   0  0  0  0  0  0  0  0  0
   -1.6118    0.2853    0.0000 C   0  0  0  0  0  0  0  0  0
   -1.6980   -0.5352    0.0000 O   0  0  0  0  0  0  0  0  0
   -2.5050   -0.7067    0.0000 C   0  0  0  0  0  0  0  0  0
   -2.9175    0.0078    0.0000 C   0  0  0  0  0  0  0  0  0
   -2.3655    0.6209    0.0000 C   0  0  0  0  0  0  0  0  0
   -2.8405   -1.4604    0.0000 C   0  0  0  0  0  0  0  0  0
   -3.6610   -1.5466    0.0000 N   0  0  0  0  0  0  0  0  0
   -3.9966   -2.3003    0.0000 C   0  0  0  0  0  0  0  0  0
   -4.1459   -0.8792    0.0000 C   0  0  0  0  0  0  0  0  0
    0.5316    0.6978    0.0000 C   0  0  0  0  0  0  0  0  0
    1.2461    0.2853    0.0000 C   0  0  0  0  0  0  0  0  0
    1.9606    0.6978    0.0000 N   0  0  0  0  0  0  0  0  0
    2.6751    0.2853    0.0000 C   0  0  0  0  0  0  0  0  0
    2.6751   -0.5397    0.0000 N   0  0  0  0  0  0  0  0  0
    3.3895   -0.9522    0.0000 C   0  0  0  0  0  0  0  0  0
    3.3895    0.6978    0.0000 C   0  0  0  0  0  0  0  0  0
    3.3895    1.5228    0.0000 N   0  3  0  0  0  0  0  0  0
    4.1040    1.9353    0.0000 O   0  5  0  0  0  0  0  0  0
    2.6751    1.9353    0.0000 O   0  5  0  0  0  0  0  0  0
  1  2  1  0  0  0  0
  1 12  1  0  0  0  0
  2  3  1  0  0  0  0
  3  4  4  0  0  0  0
  3  7  4  0  0  0  0
  4  5  4  0  0  0  0
  5  6  4  0  0  0  0
  5  8  1  0  0  0  0
  6  7  4  0  0  0  0
  8  9  1  0  0  0  0
  9 10  1  0  0  0  0
  9 11  1  0  0  0  0
 12 13  1  0  0  0  0
 13 14  1  0  0  0  0
 14 15  1  0  0  0  0
 15 16  1  0  0  0  0
 15 18  2  0  0  0  0
 16 17  1  0  0  0  0
 18 19  1  0  0  0  0
 19 20  1  0  0  0  0
 19 21  1  0  0  0  0
M  CHG  3  19   1  20  -1  21  -1
M  END
>  <Name_Molregno>
RANITIDINE

>  <5-HT3>
5

>  <HISTAMINE H1>
5

>  <HISTAMINE H3>
5

>  <HISTAMINE H4>
5

$$$$
RISPERIDONE
  Marvin  02231216192D 0   1.00000     0.00000     0

 30 34  0  0  0  0  0  0  0  0999 V2000
    1.8325   -2.9394    0.0000 F   0  0  0  0  0  0  0  0  0
    2.0875   -2.1548    0.0000 C   0  0  0  0  0  0  0  0  0
    1.5354   -1.5417    0.0000 C   0  0  0  0  0  0  0  0  0
    1.7904   -0.7571    0.0000 C   0  0  0  0  0  0  0  0  0
    1.3779   -0.0426    0.0000 O   0  0  0  0  0  0  0  0  0
    1.9299    0.5705    0.0000 N   0  0  0  0  0  0  0  0  0
    2.6836    0.2349    0.0000 C   0  0  0  0  0  0  0  0  0
    2.5974   -0.5856    0.0000 C   0  0  0  0  0  0  0  0  0
    3.1494   -1.1987    0.0000 C   0  0  0  0  0  0  0  0  0
    2.8945   -1.9833    0.0000 C   0  0  0  0  0  0  0  0  0
    3.3981    0.6474    0.0000 C   0  0  0  0  0  0  0  0  0
    3.3981    1.4724    0.0000 C   0  0  0  0  0  0  0  0  0
    4.1125    1.8849    0.0000 C   0  0  0  0  0  0  0  0  0
    4.8270    1.4724    0.0000 N   0  0  0  0  0  0  0  0  0
    4.8270    0.6474    0.0000 C   0  0  0  0  0  0  0  0  0
    4.1125    0.2349    0.0000 C   0  0  0  0  0  0  0  0  0
    5.5415    1.8849    0.0000 C   0  0  0  0  0  0  0  0  0
    6.2559    1.4724    0.0000 C   0  0  0  0  0  0  0  0  0
    6.9704    1.8849    0.0000 C   0  0  0  0  0  0  0  0  0
    7.6849    1.4724    0.0000 C   0  0  0  0  0  0  0  0  0
    7.6849    0.6474    0.0000 O   0  0  0  0  0  0  0  0  0
    8.3994    1.8849    0.0000 N   0  0  0  0  0  0  0  0  0
    8.3994    2.7099    0.0000 C   0  0  0  0  0  0  0  0  0
    7.6849    3.1224    0.0000 N   0  0  0  0  0  0  0  0  0
    6.9704    2.7099    0.0000 C   0  0  0  0  0  0  0  0  0
    6.2559    3.1224    0.0000 C   0  0  0  0  0  0  0  0  0
    9.1138    3.1224    0.0000 C   0  0  0  0  0  0  0  0  0
    9.8283    2.7099    0.0000 C   0  0  0  0  0  0  0  0  0
    9.8283    1.8849    0.0000 C   0  0  0  0  0  0  0  0  0
    9.1138    1.4724    0.0000 C   0  0  0  0  0  0  0  0  0
  1  2  1  0  0  0  0
  2  3  4  0  0  0  0
  2 10  4  0  0  0  0
  3  4  4  0  0  0  0
  4  5  4  0  0  0  0
  4  8  4  0  0  0  0
  5  6  4  0  0  0  0
  6  7  4  0  0  0  0
  7  8  4  0  0  0  0
  7 11  1  0  0  0  0
  8  9  4  0  0  0  0
  9 10  4  0  0  0  0
 11 12  1  0  0  0  0
 11 16  1  0  0  0  0
 12 13  1  0  0  0  0
 13 14  1  0  0  0  0
 14 15  1  0  0  0  0
 14 17  1  0  0  0  0
 15 16  1  0  0  0  0
 17 18  1  0  0  0  0
 18 19  1  0  0  0  0
 19 20  1  0  0  0  0
 19 25  2  0  0  0  0
 20 21  2  0  0  0  0
 20 22  1  0  0  0  0
 22 23  1  0  0  0  0
 22 30  1  0  0  0  0
 23 24  2  0  0  0  0
 23 27  1  0  0  0  0
 24 25  1  0  0  0  0
 25 26  1  0  0  0  0
 27 28  1  0  0  0  0
 28 29  1  0  0  0  0
 29 30  1  0  0  0  0
M  END
>  <Name_Molregno>
RISPERIDONE

>  <5-HT1A>
6.52

>  <5-HT1B>
7.66

>  <5-HT1D>
7.6

>  <5-HT1E>
5.44

>  <5-HT2A>
9.35

>  <5-HT2C>
7.74

>  <5-HT3>
5

>  <5-HT5>
6.69

>  <5-HT6>
5.7

>  <5-HT7>
8.4

>  <Alpha-1A>
8.38

>  <Alpha-1B>
8.05

>  <Alpha-2A>
7.46

>  <Alpha-2B>
7.34

>  <Alpha-2C>
8.56

>  <Beta-1>
5.15

>  <Beta-2>
5.15

>  <DOPAMINE D1>
6.61

>  <DOPAMINE D2>
8.58

>  <DOPAMINE D3>
8.17

>  <DOPAMINE D4>
8.17

>  <DOPAMINE D5>
7.03

>  <Dopamine transporter>
5

>  <HISTAMINE H1>
7.79

>  <HISTAMINE H2>
6.92

>  <HISTAMINE H4>
5

>  <Muscarinic acetylcholine receptor M1>
5.22

>  <Muscarinic acetylcholine receptor M2>
5.14

>  <Muscarinic acetylcholine receptor M3>
5

>  <Muscarinic acetylcholine receptor M4>
5.18

>  <Muscarinic acetylcholine receptor M5>
5

>  <Norepinephrine transporter>
5

>  <Serotonin transporter>
5.67

$$$$
RITANSERIN
  Marvin  02231216192D 0   1.00000     0.00000     0

 34 38  0  0  0  0  0  0  0  0999 V2000
   -9.6255    1.6331    0.0000 S   0  0  0  0  0  0  0  0  0
  -10.1104    0.9657    0.0000 C   0  0  0  0  0  0  0  0  0
   -9.6255    0.2982    0.0000 C   0  0  0  0  0  0  0  0  0
   -8.8409    0.5532    0.0000 N   0  0  0  0  0  0  0  0  0
   -8.8409    1.3782    0.0000 C   0  0  0  0  0  0  0  0  0
   -8.1264    1.7907    0.0000 N   0  0  0  0  0  0  0  0  0
   -7.4119    1.3782    0.0000 C   0  0  0  0  0  0  0  0  0
   -6.6974    1.7907    0.0000 C   0  0  0  0  0  0  0  0  0
   -7.4119    0.5532    0.0000 C   0  0  0  0  0  0  0  0  0
   -6.6974    0.1407    0.0000 C   0  0  0  0  0  0  0  0  0
   -5.9830    0.5532    0.0000 C   0  0  0  0  0  0  0  0  0
   -5.2685    0.1407    0.0000 N   0  0  0  0  0  0  0  0  0
   -4.5540    0.5532    0.0000 C   0  0  0  0  0  0  0  0  0
   -3.8396    0.1407    0.0000 C   0  0  0  0  0  0  0  0  0
   -3.8396   -0.6843    0.0000 C   0  0  0  0  0  0  0  0  0
   -4.5540   -1.0968    0.0000 C   0  0  0  0  0  0  0  0  0
   -5.2685   -0.6843    0.0000 C   0  0  0  0  0  0  0  0  0
   -3.1251   -1.0968    0.0000 C   0  0  0  0  0  0  0  0  0
   -3.1251   -1.9218    0.0000 C   0  0  0  0  0  0  0  0  0
   -2.4106   -2.3343    0.0000 C   0  0  0  0  0  0  0  0  0
   -2.4106   -3.1593    0.0000 C   0  0  0  0  0  0  0  0  0
   -3.1251   -3.5718    0.0000 C   0  0  0  0  0  0  0  0  0
   -3.1251   -4.3968    0.0000 F   0  0  0  0  0  0  0  0  0
   -3.8396   -3.1593    0.0000 C   0  0  0  0  0  0  0  0  0
   -3.8396   -2.3343    0.0000 C   0  0  0  0  0  0  0  0  0
   -2.4106   -0.6843    0.0000 C   0  0  0  0  0  0  0  0  0
   -2.4106    0.1407    0.0000 C   0  0  0  0  0  0  0  0  0
   -1.6961    0.5532    0.0000 C   0  0  0  0  0  0  0  0  0
   -0.9817    0.1407    0.0000 C   0  0  0  0  0  0  0  0  0
   -0.2672    0.5532    0.0000 F   0  0  0  0  0  0  0  0  0
   -0.9817   -0.6843    0.0000 C   0  0  0  0  0  0  0  0  0
   -1.6961   -1.0968    0.0000 C   0  0  0  0  0  0  0  0  0
   -8.1264    0.1407    0.0000 C   0  0  0  0  0  0  0  0  0
   -8.1264   -0.6843    0.0000 O   0  0  0  0  0  0  0  0  0
  1  2  1  0  0  0  0
  1  5  1  0  0  0  0
  2  3  2  0  0  0  0
  3  4  1  0  0  0  0
  4  5  1  0  0  0  0
  4 33  1  0  0  0  0
  5  6  2  0  0  0  0
  6  7  1  0  0  0  0
  7  8  1  0  0  0  0
  7  9  2  0  0  0  0
  9 10  1  0  0  0  0
  9 33  1  0  0  0  0
 10 11  1  0  0  0  0
 11 12  1  0  0  0  0
 12 13  1  0  0  0  0
 12 17  1  0  0  0  0
 13 14  1  0  0  0  0
 14 15  1  0  0  0  0
 15 16  1  0  0  0  0
 15 18  2  0  0  0  0
 16 17  1  0  0  0  0
 18 19  1  0  0  0  0
 18 26  1  0  0  0  0
 19 20  4  0  0  0  0
 19 25  4  0  0  0  0
 20 21  4  0  0  0  0
 21 22  4  0  0  0  0
 22 23  1  0  0  0  0
 22 24  4  0  0  0  0
 24 25  4  0  0  0  0
 26 27  4  0  0  0  0
 26 32  4  0  0  0  0
 27 28  4  0  0  0  0
 28 29  4  0  0  0  0
 29 30  1  0  0  0  0
 29 31  4  0  0  0  0
 31 32  4  0  0  0  0
 33 34  2  0  0  0  0
M  END
>  <Name_Molregno>
RITANSERIN

>  <5-HT1A>
5.53

>  <5-HT1B>
6.56

>  <5-HT1D>
6.29

>  <5-HT2A>
9.14

>  <5-HT2C>
9.04

>  <5-HT3>
5

>  <5-HT6>
7.54

>  <5-HT7>
7.34

>  <DOPAMINE D1>
6.03

>  <DOPAMINE D2>
7.54

>  <DOPAMINE D3>
7.62

>  <DOPAMINE D4>
7.52

$$$$
ROFECOXIB
  Marvin  02231216192D 0   1.00000     0.00000     0

 22 24  0  0  0  0  0  0  0  0999 V2000
   -1.7307    1.7900    0.0000 S   0  0  0  0  0  0  0  0  0
   -1.7307    2.6150    0.0000 O   0  0  0  0  0  0  0  0  0
   -2.5557    1.7900    0.0000 O   0  0  0  0  0  0  0  0  0
   -0.9057    1.7900    0.0000 C   0  0  0  0  0  0  0  0  0
   -1.7307    0.9650    0.0000 C   0  0  0  0  0  0  0  0  0
   -1.0163    0.5525    0.0000 C   0  0  0  0  0  0  0  0  0
   -1.0163   -0.2725    0.0000 C   0  0  0  0  0  0  0  0  0
   -1.7307   -0.6850    0.0000 C   0  0  0  0  0  0  0  0  0
   -2.4452   -0.2725    0.0000 C   0  0  0  0  0  0  0  0  0
   -2.4452    0.5525    0.0000 C   0  0  0  0  0  0  0  0  0
   -1.7307   -1.5100    0.0000 C   0  0  0  0  0  0  0  0  0
   -1.0633   -1.9950    0.0000 C   0  0  0  0  0  0  0  0  0
   -1.3182   -2.7796    0.0000 O   0  0  0  0  0  0  0  0  0
   -2.1432   -2.7796    0.0000 C   0  0  0  0  0  0  0  0  0
   -2.6282   -3.4470    0.0000 O   0  0  0  0  0  0  0  0  0
   -2.3982   -1.9950    0.0000 C   0  0  0  0  0  0  0  0  0
   -3.1828   -1.7400    0.0000 C   0  0  0  0  0  0  0  0  0
   -3.7959   -2.2920    0.0000 C   0  0  0  0  0  0  0  0  0
   -4.5805   -2.0371    0.0000 C   0  0  0  0  0  0  0  0  0
   -4.7520   -1.2301    0.0000 C   0  0  0  0  0  0  0  0  0
   -4.1390   -0.6781    0.0000 C   0  0  0  0  0  0  0  0  0
   -3.3543   -0.9330    0.0000 C   0  0  0  0  0  0  0  0  0
  1  2  2  0  0  0  0
  1  3  2  0  0  0  0
  1  4  1  0  0  0  0
  1  5  1  0  0  0  0
  5  6  4  0  0  0  0
  5 10  4  0  0  0  0
  6  7  4  0  0  0  0
  7  8  4  0  0  0  0
  8  9  4  0  0  0  0
  8 11  1  0  0  0  0
  9 10  4  0  0  0  0
 11 12  1  0  0  0  0
 11 16  2  0  0  0  0
 12 13  1  0  0  0  0
 13 14  1  0  0  0  0
 14 15  2  0  0  0  0
 14 16  1  0  0  0  0
 16 17  1  0  0  0  0
 17 18  4  0  0  0  0
 17 22  4  0  0  0  0
 18 19  4  0  0  0  0
 19 20  4  0  0  0  0
 20 21  4  0  0  0  0
 21 22  4  0  0  0  0
M  END
>  <Name_Molregno>
ROFECOXIB

>  <5-HT1A>
5

>  <5-HT1B>
5

>  <5-HT1D>
5

>  <5-HT1E>
5

>  <5-HT2A>
5

>  <5-HT3>
5

>  <5-HT6>
5

>  <5-HT7>
5

>  <Alpha-1A>
5

>  <Alpha-1B>
5

>  <Alpha-2A>
5

>  <Alpha-2B>
5

>  <Alpha-2C>
5

>  <DOPAMINE D1>
5

>  <DOPAMINE D2>
5

>  <DOPAMINE D5>
5

>  <Dopamine transporter>
5

>  <HISTAMINE H2>
5

>  <Muscarinic acetylcholine receptor M2>
5

>  <Muscarinic acetylcholine receptor M5>
5

>  <Norepinephrine transporter>
5

>  <Serotonin transporter>
5

$$$$
RS-127445
  Marvin  02231216192D 0   1.00000     0.00000     0

 21 23  0  0  0  0  0  0  0  0999 V2000
    2.3414   -2.7779    0.0000 F   0  0  0  0  0  0  0  0  0
    2.3414   -1.9529    0.0000 C   0  0  0  0  0  0  0  0  0
    3.0558   -1.5404    0.0000 C   0  0  0  0  0  0  0  0  0
    3.0558   -0.7154    0.0000 C   0  0  0  0  0  0  0  0  0
    3.7703   -0.3029    0.0000 C   0  0  0  0  0  0  0  0  0
    4.4848   -0.7154    0.0000 C   0  0  0  0  0  0  0  0  0
    4.4848   -1.5404    0.0000 C   0  0  0  0  0  0  0  0  0
    3.7703   -1.9529    0.0000 C   0  0  0  0  0  0  0  0  0
    2.3414   -0.3029    0.0000 C   0  0  0  0  0  0  0  0  0
    1.6269   -0.7154    0.0000 C   0  0  0  0  0  0  0  0  0
    1.6269   -1.5404    0.0000 C   0  0  0  0  0  0  0  0  0
    2.3414    0.5221    0.0000 C   0  0  0  0  0  0  0  0  0
    1.6269    0.9346    0.0000 N   0  0  0  0  0  0  0  0  0
    1.6269    1.7596    0.0000 C   0  0  0  0  0  0  0  0  0
    2.3414    2.1721    0.0000 N   0  0  0  0  0  0  0  0  0
    3.0558    1.7596    0.0000 C   0  0  0  0  0  0  0  0  0
    3.0558    0.9346    0.0000 C   0  0  0  0  0  0  0  0  0
    3.7703    2.1721    0.0000 C   0  0  0  0  0  0  0  0  0
    3.7703    2.9971    0.0000 C   0  0  0  0  0  0  0  0  0
    4.4848    1.7596    0.0000 C   0  0  0  0  0  0  0  0  0
    0.9124    2.1721    0.0000 N   0  0  0  0  0  0  0  0  0
  1  2  1  0  0  0  0
  2  3  4  0  0  0  0
  2 11  4  0  0  0  0
  3  4  4  0  0  0  0
  3  8  4  0  0  0  0
  4  5  4  0  0  0  0
  4  9  4  0  0  0  0
  5  6  4  0  0  0  0
  6  7  4  0  0  0  0
  7  8  4  0  0  0  0
  9 10  4  0  0  0  0
  9 12  1  0  0  0  0
 10 11  4  0  0  0  0
 12 13  4  0  0  0  0
 12 17  4  0  0  0  0
 13 14  4  0  0  0  0
 14 15  4  0  0  0  0
 14 21  1  0  0  0  0
 15 16  4  0  0  0  0
 16 17  4  0  0  0  0
 16 18  1  0  0  0  0
 18 19  1  0  0  0  0
 18 20  1  0  0  0  0
M  END
>  <Name_Molregno>
RS-127445

>  <5-HT2A>
6.17

>  <5-HT2C>
6.37

>  <5-HT3>
6

>  <5-HT5>
6

>  <5-HT6>
6

$$$$
Rutin
  Marvin  02231216192D 0   1.00000     0.00000     0

 43 47  0  0  1  0  0  0  0  0999 V2000
   -0.5116   -0.2044    0.0000 O   0  0  0  0  0  0  0  0  0
   -0.5116    0.6206    0.0000 C   0  0  0  0  0  0  0  0  0
    0.2029    1.0331    0.0000 C   0  0  0  0  0  0  0  0  0
    0.2029    1.8581    0.0000 O   0  0  0  0  0  0  0  0  0
    0.9173    2.2706    0.0000 C   0  0  0  0  0  0  0  0  0
    0.9173    3.0956    0.0000 O   0  0  0  0  0  0  0  0  0
    1.6318    3.5081    0.0000 C   0  0  0  0  0  0  0  0  0
    1.6318    4.3331    0.0000 C   0  0  0  0  0  0  0  0  0
    2.3463    3.0956    0.0000 C   0  0  0  0  0  0  0  0  0
    3.0608    3.5081    0.0000 O   0  0  0  0  0  0  0  0  0
    2.3463    2.2706    0.0000 C   0  0  0  0  0  0  0  0  0
    3.0608    1.8581    0.0000 O   0  0  0  0  0  0  0  0  0
    1.6318    1.8581    0.0000 C   0  0  0  0  0  0  0  0  0
    1.6318    1.0331    0.0000 O   0  0  0  0  0  0  0  0  0
   -1.2261    1.0331    0.0000 C   0  0  0  0  0  0  0  0  0
   -1.2261    1.8581    0.0000 O   0  0  0  0  0  0  0  0  0
   -1.9405    0.6206    0.0000 C   0  0  0  0  0  0  0  0  0
   -2.6550    1.0331    0.0000 O   0  0  0  0  0  0  0  0  0
   -1.9405   -0.2044    0.0000 C   0  0  0  0  0  0  0  0  0
   -2.6550   -0.6169    0.0000 O   0  0  0  0  0  0  0  0  0
   -1.2261   -0.6169    0.0000 C   0  0  0  0  0  0  0  0  0
   -1.2261   -1.4419    0.0000 O   0  0  0  0  0  0  0  0  0
   -0.5116   -1.8544    0.0000 C   0  0  0  0  0  0  0  0  0
   -0.5116   -2.6794    0.0000 C   0  0  0  0  0  0  0  0  0
    0.2029   -3.0919    0.0000 O   0  0  0  0  0  0  0  0  0
    0.9173   -2.6794    0.0000 C   0  0  0  0  0  0  0  0  0
    0.9173   -1.8544    0.0000 C   0  0  0  0  0  0  0  0  0
    0.2029   -1.4419    0.0000 C   0  0  0  0  0  0  0  0  0
    0.2029   -0.6169    0.0000 O   0  0  0  0  0  0  0  0  0
    1.6318   -1.4419    0.0000 C   0  0  0  0  0  0  0  0  0
    1.6318   -0.6169    0.0000 O   0  0  0  0  0  0  0  0  0
    2.3463   -1.8544    0.0000 C   0  0  0  0  0  0  0  0  0
    2.3463   -2.6794    0.0000 C   0  0  0  0  0  0  0  0  0
    3.0608   -3.0919    0.0000 O   0  0  0  0  0  0  0  0  0
    1.6318   -3.0919    0.0000 C   0  0  0  0  0  0  0  0  0
   -1.2261   -3.0919    0.0000 C   0  0  0  0  0  0  0  0  0
   -1.2261   -3.9169    0.0000 C   0  0  0  0  0  0  0  0  0
   -1.9405   -4.3294    0.0000 C   0  0  0  0  0  0  0  0  0
   -1.9405   -5.1544    0.0000 O   0  0  0  0  0  0  0  0  0
   -2.6550   -3.9169    0.0000 C   0  0  0  0  0  0  0  0  0
   -3.3695   -4.3294    0.0000 O   0  0  0  0  0  0  0  0  0
   -2.6550   -3.0919    0.0000 C   0  0  0  0  0  0  0  0  0
   -1.9405   -2.6794    0.0000 C   0  0  0  0  0  0  0  0  0
  1  2  1  0  0  0  0
  1 21  1  0  0  0  0
  2  3  1  0  0  0  0
  2 15  1  0  0  0  0
  3  4  1  0  0  0  0
  4  5  1  0  0  0  0
  5  6  1  0  0  0  0
  5 13  1  0  0  0  0
  6  7  1  0  0  0  0
  7  8  1  0  0  0  0
  7  9  1  0  0  0  0
  9 10  1  0  0  0  0
  9 11  1  0  0  0  0
 11 12  1  0  0  0  0
 11 13  1  0  0  0  0
 13 14  1  0  0  0  0
 15 16  1  0  0  0  0
 15 17  1  0  0  0  0
 17 18  1  0  0  0  0
 17 19  1  0  0  0  0
 19 20  1  0  0  0  0
 19 21  1  0  0  0  0
 21 22  1  0  0  0  0
 22 23  1  0  0  0  0
 23 24  2  0  0  0  0
 23 28  1  0  0  0  0
 24 25  1  0  0  0  0
 24 36  1  0  0  0  0
 25 26  1  0  0  0  0
 26 27  4  0  0  0  0
 26 35  4  0  0  0  0
 27 28  1  0  0  0  0
 27 30  4  0  0  0  0
 28 29  2  0  0  0  0
 30 31  1  0  0  0  0
 30 32  4  0  0  0  0
 32 33  4  0  0  0  0
 33 34  1  0  0  0  0
 33 35  4  0  0  0  0
 36 37  4  0  0  0  0
 36 43  4  0  0  0  0
 37 38  4  0  0  0  0
 38 39  1  0  0  0  0
 38 40  4  0  0  0  0
 40 41  1  0  0  0  0
 40 42  4  0  0  0  0
 42 43  4  0  0  0  0
M  END
>  <Name_Molregno>
Rutin

>  <5-HT1A>
5

>  <5-HT1D>
5

>  <5-HT3>
5

>  <5-HT5>
5

>  <5-HT6>
5

>  <5-HT7>
5

>  <Alpha-1A>
5

>  <Alpha-1B>
5

>  <Alpha-2A>
5.03

>  <Alpha-2B>
5

>  <Alpha-2C>
5.02

>  <DOPAMINE D1>
5

>  <DOPAMINE D5>
5

>  <Muscarinic acetylcholine receptor M1>
5

>  <Muscarinic acetylcholine receptor M2>
5

>  <Muscarinic acetylcholine receptor M3>
5

>  <Muscarinic acetylcholine receptor M4>
5

>  <Muscarinic acetylcholine receptor M5>
7.45

>  <Norepinephrine transporter>
5

>  <Serotonin transporter>
5

$$$$
SalvinorinA
  Marvin  02231216192D 0   1.00000     0.00000     0

 31 34  0  0  1  0  0  0  0  0999 V2000
   -4.2035   -1.1582    0.0000 O   0  0  0  0  0  0  0  0  0
   -3.7910   -1.8727    0.0000 C   0  0  0  0  0  0  0  0  0
   -2.9660   -1.8727    0.0000 C   0  0  0  0  0  0  0  0  0
   -2.5535   -1.1582    0.0000 C   0  0  0  0  0  0  0  0  0
   -1.7285   -1.1582    0.0000 C   0  0  0  0  0  0  0  0  0
   -1.3160   -0.4437    0.0000 C   0  0  0  0  0  0  0  0  0
   -1.7285    0.2708    0.0000 C   0  0  0  0  0  0  0  0  0
   -2.5535    0.2708    0.0000 C   0  0  0  0  0  0  0  0  0
   -2.9660   -0.4437    0.0000 C   0  0  0  0  0  0  0  0  0
   -3.7910   -0.4437    0.0000 C   0  0  0  0  0  0  0  0  0
   -4.2035    0.2708    0.0000 O   0  0  0  0  0  0  0  0  0
   -0.9035    0.2708    0.0000 C   0  0  0  0  0  0  0  0  0
   -0.4910   -0.4437    0.0000 C   0  0  0  0  0  0  0  0  0
   -0.0785   -1.1582    0.0000 C   0  0  0  0  0  0  0  0  0
   -0.4910   -1.8727    0.0000 C   0  0  0  0  0  0  0  0  0
   -0.0785   -2.5871    0.0000 O   0  0  0  0  0  0  0  0  0
    0.7465   -2.5871    0.0000 C   0  0  0  0  0  0  0  0  0
    1.1590   -3.3016    0.0000 O   0  0  0  0  0  0  0  0  0
    1.1590   -1.8727    0.0000 C   0  0  0  0  0  0  0  0  0
   -1.3160   -1.8727    0.0000 C   0  0  0  0  0  0  0  0  0
   -1.7285   -2.5871    0.0000 O   0  0  0  0  0  0  0  0  0
   -0.0785    0.2708    0.0000 C   0  0  0  0  0  0  0  0  0
   -0.4910    0.9852    0.0000 O   0  0  0  0  0  0  0  0  0
   -0.0785    1.6997    0.0000 C   0  0  0  0  0  0  0  0  0
    0.7465    0.2708    0.0000 O   0  0  0  0  0  0  0  0  0
   -2.1410   -1.8727    0.0000 C   0  0  0  0  0  0  0  0  0
   -4.2035   -2.5871    0.0000 C   0  0  0  0  0  0  0  0  0
   -3.8680   -3.3408    0.0000 C   0  0  0  0  0  0  0  0  0
   -4.4811   -3.8928    0.0000 C   0  0  0  0  0  0  0  0  0
   -5.1956   -3.4803    0.0000 O   0  0  0  0  0  0  0  0  0
   -5.0240   -2.6734    0.0000 C   0  0  0  0  0  0  0  0  0
  1  2  1  0  0  0  0
  1 10  1  0  0  0  0
  2  3  1  0  0  0  0
  2 27  1  0  0  0  0
  3  4  1  0  0  0  0
  4  5  1  0  0  0  0
  4  9  1  0  0  0  0
  4 26  1  0  0  0  0
  5  6  1  0  0  0  0
  5 20  1  0  0  0  0
  6  7  1  0  0  0  0
  6 12  1  0  0  0  0
  6 13  1  0  0  0  0
  7  8  1  0  0  0  0
  8  9  1  0  0  0  0
  9 10  1  0  0  0  0
 10 11  2  0  0  0  0
 13 14  1  0  0  0  0
 13 22  1  0  0  0  0
 14 15  1  0  0  0  0
 15 16  1  0  0  0  0
 15 20  1  0  0  0  0
 16 17  1  0  0  0  0
 17 18  2  0  0  0  0
 17 19  1  0  0  0  0
 20 21  2  0  0  0  0
 22 23  1  0  0  0  0
 22 25  2  0  0  0  0
 23 24  1  0  0  0  0
 27 28  4  0  0  0  0
 27 31  4  0  0  0  0
 28 29  4  0  0  0  0
 29 30  4  0  0  0  0
 30 31  4  0  0  0  0
M  END
>  <Name_Molregno>
SalvinorinA

>  <5-HT1A>
5

>  <5-HT1B>
5

>  <5-HT1D>
5

>  <5-HT1E>
5

>  <5-HT3>
5

>  <5-HT5>
5

>  <5-HT6>
5

>  <5-HT7>
5

>  <Alpha-1A>
5

>  <Alpha-1B>
5

>  <DOPAMINE D1>
5

>  <DOPAMINE D2>
5

>  <DOPAMINE D3>
5

>  <DOPAMINE D5>
5

>  <HISTAMINE H1>
5

>  <Muscarinic acetylcholine receptor M1>
5

>  <Muscarinic acetylcholine receptor M2>
5

>  <Muscarinic acetylcholine receptor M3>
5

>  <Muscarinic acetylcholine receptor M4>
5

>  <Muscarinic acetylcholine receptor M5>
5

>  <Serotonin transporter>
5

$$$$
SR144528
  Marvin  02231216192D 0   1.00000     0.00000     0

 34 38  0  0  1  0  0  0  0  0999 V2000
   -3.4859   -7.8445    0.0000 Cl  0  0  0  0  0  0  0  0  0
   -3.3410   -7.0323    0.0000 C   0  0  0  0  0  0  0  0  0
   -3.9720   -6.5008    0.0000 C   0  0  0  0  0  0  0  0  0
   -3.8271   -5.6886    0.0000 C   0  0  0  0  0  0  0  0  0
   -3.0513   -5.4080    0.0000 C   0  0  0  0  0  0  0  0  0
   -2.4203   -5.9395    0.0000 C   0  0  0  0  0  0  0  0  0
   -2.5652   -6.7517    0.0000 C   0  0  0  0  0  0  0  0  0
   -1.9343   -7.2833    0.0000 C   0  0  0  0  0  0  0  0  0
   -2.9064   -4.5958    0.0000 C   0  0  0  0  0  0  0  0  0
   -3.4783   -4.0012    0.0000 N   0  0  0  0  0  0  0  0  0
   -3.0895   -3.2735    0.0000 N   0  0  0  0  0  0  0  0  0
   -2.2773   -3.4184    0.0000 C   0  0  0  0  0  0  0  0  0
   -2.1641   -4.2356    0.0000 C   0  0  0  0  0  0  0  0  0
   -1.6827   -2.8465    0.0000 C   0  0  0  0  0  0  0  0  0
   -1.8807   -2.0456    0.0000 O   0  0  0  0  0  0  0  0  0
   -0.8901   -3.0755    0.0000 N   0  0  0  0  0  0  0  0  0
   -0.2955   -2.5036    0.0000 C   0  0  0  0  0  0  0  0  0
    0.0698   -1.8431    0.0000 C   0  0  0  0  0  0  0  0  0
    0.7101   -1.3929    0.0000 C   0  0  0  0  0  0  0  0  0
    0.5501   -0.5775    0.0000 C   0  0  0  0  0  0  0  0  0
    0.4800   -2.1133    0.0000 C   0  0  0  0  0  0  0  0  0
    1.2105   -2.4836    0.0000 C   0  0  0  0  0  0  0  0  0
    1.5056   -1.8582    0.0000 C   0  0  0  0  0  0  0  0  0
    0.4788   -2.9383    0.0000 C   0  0  0  0  0  0  0  0  0
   -0.7153   -1.5897    0.0000 C   0  0  0  0  0  0  0  0  0
   -0.2665   -1.0898    0.0000 C   0  0  0  0  0  0  0  0  0
   -4.2955   -4.1144    0.0000 C   0  0  0  0  0  0  0  0  0
   -4.8021   -3.4633    0.0000 C   0  0  0  0  0  0  0  0  0
   -5.6193   -3.5764    0.0000 C   0  0  0  0  0  0  0  0  0
   -6.1259   -2.9253    0.0000 C   0  0  0  0  0  0  0  0  0
   -5.8153   -2.1610    0.0000 C   0  0  0  0  0  0  0  0  0
   -4.9981   -2.0478    0.0000 C   0  0  0  0  0  0  0  0  0
   -4.4915   -2.6989    0.0000 C   0  0  0  0  0  0  0  0  0
   -6.3219   -1.5099    0.0000 C   0  0  0  0  0  0  0  0  0
  1  2  1  0  0  0  0
  2  3  4  0  0  0  0
  2  7  4  0  0  0  0
  3  4  4  0  0  0  0
  4  5  4  0  0  0  0
  5  6  4  0  0  0  0
  5  9  1  0  0  0  0
  6  7  4  0  0  0  0
  7  8  1  0  0  0  0
  9 10  4  0  0  0  0
  9 13  4  0  0  0  0
 10 11  4  0  0  0  0
 10 27  1  0  0  0  0
 11 12  4  0  0  0  0
 12 13  4  0  0  0  0
 12 14  1  0  0  0  0
 14 15  2  0  0  0  0
 14 16  1  0  0  0  0
 16 17  1  0  0  0  0
 17 18  1  0  0  0  0
 17 21  1  0  0  0  0
 18 19  1  0  0  0  0
 18 25  1  0  0  0  0
 18 26  1  0  0  0  0
 19 20  1  0  0  0  0
 19 23  1  0  0  0  0
 20 21  1  0  0  0  0
 21 22  1  0  0  0  0
 21 24  1  0  0  0  0
 22 23  1  0  0  0  0
 27 28  1  0  0  0  0
 28 29  4  0  0  0  0
 28 33  4  0  0  0  0
 29 30  4  0  0  0  0
 30 31  4  0  0  0  0
 31 32  4  0  0  0  0
 31 34  1  0  0  0  0
 32 33  4  0  0  0  0
M  END
>  <Name_Molregno>
SR144528

>  <5-HT1A>
5

>  <5-HT1B>
5

>  <5-HT1D>
5

>  <5-HT2A>
5

>  <5-HT2C>
5

>  <5-HT3>
5

>  <Beta-1>
5

>  <Beta-2>
5

>  <DOPAMINE D1>
5

>  <DOPAMINE D2>
5

>  <DOPAMINE D3>
5

>  <DOPAMINE D4>
5

>  <HISTAMINE H1>
5

>  <HISTAMINE H2>
5

>  <HISTAMINE H3>
5

>  <Muscarinic acetylcholine receptor M1>
5

>  <Muscarinic acetylcholine receptor M2>
5

>  <Muscarinic acetylcholine receptor M4>
5

$$$$
SULPIRIDE
  Marvin  02231216192D 0   1.00000     0.00000     0

 23 24  0  0  1  0  0  0  0  0999 V2000
   -2.6543    0.9455    0.0000 S   0  0  0  0  0  0  0  0  0
   -2.6543    1.7705    0.0000 O   0  0  0  0  0  0  0  0  0
   -3.4793    0.9455    0.0000 O   0  0  0  0  0  0  0  0  0
   -1.8293    0.9455    0.0000 N   0  0  0  0  0  0  0  0  0
   -2.6543    0.1205    0.0000 C   0  0  0  0  0  0  0  0  0
   -1.9398   -0.2920    0.0000 C   0  0  0  0  0  0  0  0  0
   -1.9398   -1.1170    0.0000 C   0  0  0  0  0  0  0  0  0
   -1.2253   -1.5295    0.0000 C   0  0  0  0  0  0  0  0  0
   -0.5109   -1.1170    0.0000 O   0  0  0  0  0  0  0  0  0
   -1.2253   -2.3545    0.0000 N   0  0  0  0  0  0  0  0  0
   -0.5109   -2.7670    0.0000 C   0  0  0  0  0  0  0  0  0
   -0.5109   -3.5920    0.0000 C   0  0  0  0  0  0  0  0  0
    0.1566   -4.0770    0.0000 N   0  0  0  0  0  0  0  0  0
   -0.0984   -4.8616    0.0000 C   0  0  0  0  0  0  0  0  0
   -0.9234   -4.8616    0.0000 C   0  0  0  0  0  0  0  0  0
   -1.1783   -4.0770    0.0000 C   0  0  0  0  0  0  0  0  0
    0.9412   -3.8220    0.0000 C   0  0  0  0  0  0  0  0  0
    1.1127   -3.0150    0.0000 C   0  0  0  0  0  0  0  0  0
   -2.6543   -1.5295    0.0000 C   0  0  0  0  0  0  0  0  0
   -2.6543   -2.3545    0.0000 O   0  0  0  0  0  0  0  0  0
   -3.3687   -2.7670    0.0000 C   0  0  0  0  0  0  0  0  0
   -3.3687   -1.1170    0.0000 C   0  0  0  0  0  0  0  0  0
   -3.3687   -0.2920    0.0000 C   0  0  0  0  0  0  0  0  0
  1  2  2  0  0  0  0
  1  3  2  0  0  0  0
  1  4  1  0  0  0  0
  1  5  1  0  0  0  0
  5  6  4  0  0  0  0
  5 23  4  0  0  0  0
  6  7  4  0  0  0  0
  7  8  1  0  0  0  0
  7 19  4  0  0  0  0
  8  9  2  0  0  0  0
  8 10  1  0  0  0  0
 10 11  1  0  0  0  0
 11 12  1  0  0  0  0
 12 13  1  0  0  0  0
 12 16  1  0  0  0  0
 13 14  1  0  0  0  0
 13 17  1  0  0  0  0
 14 15  1  0  0  0  0
 15 16  1  0  0  0  0
 17 18  1  0  0  0  0
 19 20  1  0  0  0  0
 19 22  4  0  0  0  0
 20 21  1  0  0  0  0
 22 23  4  0  0  0  0
M  END
>  <Name_Molregno>
SULPIRIDE

>  <5-HT1A>
5

>  <5-HT3>
5

>  <DOPAMINE D1>
5

>  <DOPAMINE D2>
7.23

>  <DOPAMINE D3>
7.64

>  <DOPAMINE D4>
6.54

>  <DOPAMINE D5>
5

$$$$
THIORIDAZINE
  Marvin  02231216192D 0   1.00000     0.00000     0

 25 28  0  0  1  0  0  0  0  0999 V2000
    1.0601   -0.3753    0.0000 S   0  0  0  0  0  0  0  0  0
    1.7746    0.0372    0.0000 C   0  0  0  0  0  0  0  0  0
    1.7746    0.8622    0.0000 C   0  0  0  0  0  0  0  0  0
    1.0601    1.2747    0.0000 N   0  0  0  0  0  0  0  0  0
    0.3456    0.8622    0.0000 C   0  0  0  0  0  0  0  0  0
    0.3456    0.0372    0.0000 C   0  0  0  0  0  0  0  0  0
   -0.3689   -0.3753    0.0000 C   0  0  0  0  0  0  0  0  0
   -1.0833    0.0372    0.0000 C   0  0  0  0  0  0  0  0  0
   -1.0833    0.8622    0.0000 C   0  0  0  0  0  0  0  0  0
   -0.3689    1.2747    0.0000 C   0  0  0  0  0  0  0  0  0
    1.0601    2.0997    0.0000 C   0  0  0  0  0  0  0  0  0
    0.3456    2.5122    0.0000 C   0  0  0  0  0  0  0  0  0
    0.3456    3.3372    0.0000 C   0  0  0  0  0  0  0  0  0
   -0.3689    3.7497    0.0000 N   0  0  0  0  0  0  0  0  0
   -0.3689    4.5747    0.0000 C   0  0  0  0  0  0  0  0  0
    0.3456    4.9872    0.0000 C   0  0  0  0  0  0  0  0  0
    1.0601    4.5747    0.0000 C   0  0  0  0  0  0  0  0  0
    1.0601    3.7497    0.0000 C   0  0  0  0  0  0  0  0  0
   -1.0833    3.3372    0.0000 C   0  0  0  0  0  0  0  0  0
    2.4890    1.2747    0.0000 C   0  0  0  0  0  0  0  0  0
    3.2035    0.8622    0.0000 C   0  0  0  0  0  0  0  0  0
    3.9180    1.2747    0.0000 S   0  0  0  0  0  0  0  0  0
    3.9180    2.0997    0.0000 C   0  0  0  0  0  0  0  0  0
    3.2035    0.0372    0.0000 C   0  0  0  0  0  0  0  0  0
    2.4890   -0.3753    0.0000 C   0  0  0  0  0  0  0  0  0
  1  2  1  0  0  0  0
  1  6  1  0  0  0  0
  2  3  4  0  0  0  0
  2 25  4  0  0  0  0
  3  4  1  0  0  0  0
  3 20  4  0  0  0  0
  4  5  1  0  0  0  0
  4 11  1  0  0  0  0
  5  6  4  0  0  0  0
  5 10  4  0  0  0  0
  6  7  4  0  0  0  0
  7  8  4  0  0  0  0
  8  9  4  0  0  0  0
  9 10  4  0  0  0  0
 11 12  1  0  0  0  0
 12 13  1  0  0  0  0
 13 14  1  0  0  0  0
 13 18  1  0  0  0  0
 14 15  1  0  0  0  0
 14 19  1  0  0  0  0
 15 16  1  0  0  0  0
 16 17  1  0  0  0  0
 17 18  1  0  0  0  0
 20 21  4  0  0  0  0
 21 22  1  0  0  0  0
 21 24  4  0  0  0  0
 22 23  1  0  0  0  0
 24 25  4  0  0  0  0
M  END
>  <Name_Molregno>
THIORIDAZINE

>  <5-HT1A>
6.85

>  <5-HT1B>
6.96

>  <5-HT1D>
6.24

>  <5-HT1E>
6.71

>  <5-HT2A>
7.95

>  <5-HT2C>
7.28

>  <5-HT3>
5

>  <5-HT5>
6.44

>  <5-HT6>
7.24

>  <5-HT7>
7.05

>  <Alpha-1A>
8.6

>  <Alpha-1B>
8.62

>  <Alpha-2A>
6.87

>  <Alpha-2B>
6.47

>  <Alpha-2C>
7.13

>  <Beta-1>
5

>  <Beta-2>
5

>  <DOPAMINE D1>
7.03

>  <DOPAMINE D2>
8.31

>  <DOPAMINE D3>
8.59

>  <DOPAMINE D4>
8.21

>  <DOPAMINE D5>
6.6

>  <Dopamine transporter>
5.77

>  <HISTAMINE H1>
7.79

>  <HISTAMINE H2>
6.87

>  <HISTAMINE H4>
5.62

>  <Muscarinic acetylcholine receptor M1>
8.21

>  <Muscarinic acetylcholine receptor M2>
7.26

>  <Muscarinic acetylcholine receptor M3>
7.6

>  <Muscarinic acetylcholine receptor M4>
7.38

>  <Muscarinic acetylcholine receptor M5>
7.9

>  <Norepinephrine transporter>
6.07

>  <Serotonin transporter>
5.9

$$$$
TRAZODONE
  Marvin  02231216192D 0   1.00000     0.00000     0

 26 29  0  0  0  0  0  0  0  0999 V2000
    0.6158   -2.7707    0.0000 Cl  0  0  0  0  0  0  0  0  0
    1.4408   -2.7707    0.0000 C   0  0  0  0  0  0  0  0  0
    1.8533   -2.0563    0.0000 C   0  0  0  0  0  0  0  0  0
    2.6783   -2.0563    0.0000 C   0  0  0  0  0  0  0  0  0
    3.0908   -1.3418    0.0000 N   0  0  0  0  0  0  0  0  0
    2.6783   -0.6273    0.0000 C   0  0  0  0  0  0  0  0  0
    3.0908    0.0872    0.0000 C   0  0  0  0  0  0  0  0  0
    3.9158    0.0872    0.0000 N   0  0  0  0  0  0  0  0  0
    4.3283   -0.6273    0.0000 C   0  0  0  0  0  0  0  0  0
    3.9158   -1.3418    0.0000 C   0  0  0  0  0  0  0  0  0
    4.3283    0.8016    0.0000 C   0  0  0  0  0  0  0  0  0
    5.1533    0.8016    0.0000 C   0  0  0  0  0  0  0  0  0
    5.5658    1.5161    0.0000 C   0  0  0  0  0  0  0  0  0
    6.3908    1.5161    0.0000 N   0  0  0  0  0  0  0  0  0
    6.8757    0.8487    0.0000 N   0  0  0  0  0  0  0  0  0
    7.6604    1.1036    0.0000 C   0  0  0  0  0  0  0  0  0
    7.6604    1.9286    0.0000 N   0  0  0  0  0  0  0  0  0
    8.3748    2.3411    0.0000 C   0  0  0  0  0  0  0  0  0
    9.0893    1.9286    0.0000 C   0  0  0  0  0  0  0  0  0
    9.0893    1.1036    0.0000 C   0  0  0  0  0  0  0  0  0
    8.3748    0.6911    0.0000 C   0  0  0  0  0  0  0  0  0
    6.8757    2.1835    0.0000 C   0  0  0  0  0  0  0  0  0
    6.6208    2.9682    0.0000 O   0  0  0  0  0  0  0  0  0
    3.0908   -2.7707    0.0000 C   0  0  0  0  0  0  0  0  0
    2.6783   -3.4852    0.0000 C   0  0  0  0  0  0  0  0  0
    1.8533   -3.4852    0.0000 C   0  0  0  0  0  0  0  0  0
  1  2  1  0  0  0  0
  2  3  4  0  0  0  0
  2 26  4  0  0  0  0
  3  4  4  0  0  0  0
  4  5  1  0  0  0  0
  4 24  4  0  0  0  0
  5  6  1  0  0  0  0
  5 10  1  0  0  0  0
  6  7  1  0  0  0  0
  7  8  1  0  0  0  0
  8  9  1  0  0  0  0
  8 11  1  0  0  0  0
  9 10  1  0  0  0  0
 11 12  1  0  0  0  0
 12 13  1  0  0  0  0
 13 14  1  0  0  0  0
 14 15  1  0  0  0  0
 14 22  1  0  0  0  0
 15 16  2  0  0  0  0
 16 17  1  0  0  0  0
 16 21  1  0  0  0  0
 17 18  1  0  0  0  0
 17 22  1  0  0  0  0
 18 19  2  0  0  0  0
 19 20  1  0  0  0  0
 20 21  2  0  0  0  0
 22 23  2  0  0  0  0
 24 25  4  0  0  0  0
 25 26  4  0  0  0  0
M  END
>  <Name_Molregno>
TRAZODONE

>  <5-HT1A>
6.97

>  <5-HT1B>
5

>  <5-HT1D>
6.97

>  <5-HT1E>
5

>  <5-HT2A>
7.46

>  <5-HT2C>
6.65

>  <5-HT3>
5

>  <5-HT5>
5

>  <5-HT6>
5

>  <5-HT7>
5.75

>  <Alpha-1A>
6.82

>  <Alpha-2A>
6.14

>  <Alpha-2C>
6.81

>  <Beta-1>
5

>  <Beta-2>
5

>  <DOPAMINE D1>
5.43

>  <DOPAMINE D2>
5.42

>  <DOPAMINE D4>
6.15

>  <DOPAMINE D5>
5

>  <Dopamine transporter>
5.07

>  <HISTAMINE H1>
6.31

>  <HISTAMINE H2>
5.48

>  <HISTAMINE H4>
5

>  <Muscarinic acetylcholine receptor M1>
5

>  <Muscarinic acetylcholine receptor M2>
5

>  <Muscarinic acetylcholine receptor M3>
5

>  <Muscarinic acetylcholine receptor M4>
5

>  <Muscarinic acetylcholine receptor M5>
5

>  <Norepinephrine transporter>
5.02

>  <Serotonin transporter>
6.14

$$$$
VALDECOXIB
  Marvin  02231216192D 0   1.00000     0.00000     0

 22 24  0  0  0  0  0  0  0  0999 V2000
   -2.8104    3.0816    0.0000 S   0  0  0  0  0  0  0  0  0
   -2.8104    3.9066    0.0000 O   0  0  0  0  0  0  0  0  0
   -3.6354    3.0816    0.0000 O   0  0  0  0  0  0  0  0  0
   -1.9854    3.0816    0.0000 N   0  0  0  0  0  0  0  0  0
   -2.8104    2.2566    0.0000 C   0  0  0  0  0  0  0  0  0
   -2.0959    1.8441    0.0000 C   0  0  0  0  0  0  0  0  0
   -2.0959    1.0191    0.0000 C   0  0  0  0  0  0  0  0  0
   -2.8104    0.6066    0.0000 C   0  0  0  0  0  0  0  0  0
   -3.5249    1.0191    0.0000 C   0  0  0  0  0  0  0  0  0
   -3.5249    1.8441    0.0000 C   0  0  0  0  0  0  0  0  0
   -2.8104   -0.2184    0.0000 C   0  0  0  0  0  0  0  0  0
   -2.1430   -0.7033    0.0000 C   0  0  0  0  0  0  0  0  0
   -2.3979   -1.4879    0.0000 N   0  0  0  0  0  0  0  0  0
   -3.2229   -1.4879    0.0000 O   0  0  0  0  0  0  0  0  0
   -3.4778   -0.7033    0.0000 C   0  0  0  0  0  0  0  0  0
   -4.2625   -0.4483    0.0000 C   0  0  0  0  0  0  0  0  0
   -1.3583   -0.4483    0.0000 C   0  0  0  0  0  0  0  0  0
   -1.1868    0.3586    0.0000 C   0  0  0  0  0  0  0  0  0
   -0.4022    0.6136    0.0000 C   0  0  0  0  0  0  0  0  0
    0.2109    0.0615    0.0000 C   0  0  0  0  0  0  0  0  0
    0.0394   -0.7454    0.0000 C   0  0  0  0  0  0  0  0  0
   -0.7452   -1.0004    0.0000 C   0  0  0  0  0  0  0  0  0
  1  2  2  0  0  0  0
  1  3  2  0  0  0  0
  1  4  1  0  0  0  0
  1  5  1  0  0  0  0
  5  6  4  0  0  0  0
  5 10  4  0  0  0  0
  6  7  4  0  0  0  0
  7  8  4  0  0  0  0
  8  9  4  0  0  0  0
  8 11  1  0  0  0  0
  9 10  4  0  0  0  0
 11 12  4  0  0  0  0
 11 15  4  0  0  0  0
 12 13  4  0  0  0  0
 12 17  1  0  0  0  0
 13 14  4  0  0  0  0
 14 15  4  0  0  0  0
 15 16  1  0  0  0  0
 17 18  4  0  0  0  0
 17 22  4  0  0  0  0
 18 19  4  0  0  0  0
 19 20  4  0  0  0  0
 20 21  4  0  0  0  0
 21 22  4  0  0  0  0
M  END
>  <Name_Molregno>
VALDECOXIB

>  <5-HT1A>
5

>  <5-HT1B>
5

>  <5-HT1D>
5

>  <5-HT1E>
5

>  <5-HT2A>
5

>  <5-HT3>
5

>  <5-HT6>
5

>  <5-HT7>
5

>  <Alpha-1A>
5

>  <Alpha-1B>
5

>  <Alpha-2A>
5

>  <Alpha-2B>
5

>  <Alpha-2C>
5

>  <DOPAMINE D1>
5

>  <DOPAMINE D2>
5

>  <DOPAMINE D5>
5

>  <Dopamine transporter>
5

>  <HISTAMINE H1>
5

>  <HISTAMINE H2>
5

>  <Muscarinic acetylcholine receptor M2>
5

>  <Muscarinic acetylcholine receptor M5>
5

>  <Serotonin transporter>
5

$$$$
valeryl-salicylate
  Marvin  02231216192D 0   1.00000     0.00000     0

 16 16  0  0  0  0  0  0  0  0999 V2000
   -0.4431    0.9218    0.0000 O   0  0  0  0  0  0  0  0  0
    0.2714    1.3343    0.0000 C   0  0  0  0  0  0  0  0  0
    0.2714    2.1593    0.0000 O   0  0  0  0  0  0  0  0  0
    0.9859    0.9218    0.0000 C   0  0  0  0  0  0  0  0  0
    1.7003    1.3343    0.0000 C   0  0  0  0  0  0  0  0  0
    2.4148    0.9218    0.0000 C   0  0  0  0  0  0  0  0  0
    2.4148    0.0968    0.0000 C   0  0  0  0  0  0  0  0  0
   -0.4431    0.0968    0.0000 C   0  0  0  0  0  0  0  0  0
    0.2714   -0.3157    0.0000 C   0  0  0  0  0  0  0  0  0
    0.2714   -1.1407    0.0000 C   0  0  0  0  0  0  0  0  0
   -0.4431   -1.5532    0.0000 C   0  0  0  0  0  0  0  0  0
   -1.1576   -1.1407    0.0000 C   0  0  0  0  0  0  0  0  0
   -1.1576   -0.3157    0.0000 C   0  0  0  0  0  0  0  0  0
   -1.8720    0.0968    0.0000 C   0  0  0  0  0  0  0  0  0
   -2.5865   -0.3157    0.0000 O   0  0  0  0  0  0  0  0  0
   -1.8720    0.9218    0.0000 O   0  0  0  0  0  0  0  0  0
  1  2  1  0  0  0  0
  1  8  1  0  0  0  0
  2  3  2  0  0  0  0
  2  4  1  0  0  0  0
  4  5  1  0  0  0  0
  5  6  1  0  0  0  0
  6  7  1  0  0  0  0
  8  9  4  0  0  0  0
  8 13  4  0  0  0  0
  9 10  4  0  0  0  0
 10 11  4  0  0  0  0
 11 12  4  0  0  0  0
 12 13  4  0  0  0  0
 13 14  1  0  0  0  0
 14 15  1  0  0  0  0
 14 16  2  0  0  0  0
M  END
>  <Name_Molregno>
valeryl-salicylate

>  <5-HT1A>
5

>  <5-HT1B>
5

>  <5-HT1D>
5

>  <5-HT1E>
5

>  <5-HT2A>
5

>  <5-HT3>
5

>  <5-HT5>
5

>  <5-HT6>
5

>  <5-HT7>
5

>  <Alpha-1A>
5

>  <Alpha-1B>
5

>  <Alpha-2A>
5

>  <Alpha-2B>
5

>  <Alpha-2C>
5

>  <DOPAMINE D1>
5

>  <DOPAMINE D2>
5

>  <DOPAMINE D4>
5

>  <DOPAMINE D5>
5

>  <HISTAMINE H1>
5

>  <HISTAMINE H2>
5

>  <HISTAMINE H4>
5

>  <Muscarinic acetylcholine receptor M2>
5

>  <Muscarinic acetylcholine receptor M5>
5

$$$$
ZIPRASIDONE
  Marvin  02231216192D 0   1.00000     0.00000     0

 28 32  0  0  0  0  0  0  0  0999 V2000
   -5.2868    0.2535    0.0000 Cl  0  0  0  0  0  0  0  0  0
   -4.7347    0.8666    0.0000 C   0  0  0  0  0  0  0  0  0
   -4.9897    1.6513    0.0000 C   0  0  0  0  0  0  0  0  0
   -4.4376    2.2643    0.0000 C   0  0  0  0  0  0  0  0  0
   -4.5239    3.0848    0.0000 N   0  0  0  0  0  0  0  0  0
   -3.7702    3.4204    0.0000 C   0  0  0  0  0  0  0  0  0
   -3.5987    4.2274    0.0000 O   0  0  0  0  0  0  0  0  0
   -3.2182    2.8073    0.0000 C   0  0  0  0  0  0  0  0  0
   -3.6307    2.0928    0.0000 C   0  0  0  0  0  0  0  0  0
   -3.3757    1.3082    0.0000 C   0  0  0  0  0  0  0  0  0
   -3.9278    0.6951    0.0000 C   0  0  0  0  0  0  0  0  0
   -3.6728   -0.0895    0.0000 C   0  0  0  0  0  0  0  0  0
   -2.8658   -0.2610    0.0000 C   0  0  0  0  0  0  0  0  0
   -2.6109   -1.0457    0.0000 N   0  0  0  0  0  0  0  0  0
   -1.8039   -1.2172    0.0000 C   0  0  0  0  0  0  0  0  0
   -1.5490   -2.0018    0.0000 C   0  0  0  0  0  0  0  0  0
   -2.1010   -2.6149    0.0000 N   0  0  0  0  0  0  0  0  0
   -2.9080   -2.4434    0.0000 C   0  0  0  0  0  0  0  0  0
   -3.1629   -1.6588    0.0000 C   0  0  0  0  0  0  0  0  0
   -1.8461   -3.3995    0.0000 C   0  0  0  0  0  0  0  0  0
   -2.3310   -4.0670    0.0000 N   0  0  0  0  0  0  0  0  0
   -1.8461   -4.7344    0.0000 S   0  0  0  0  0  0  0  0  0
   -1.0615   -4.4795    0.0000 C   0  0  0  0  0  0  0  0  0
   -1.0615   -3.6545    0.0000 C   0  0  0  0  0  0  0  0  0
   -0.3470   -3.2420    0.0000 C   0  0  0  0  0  0  0  0  0
    0.3675   -3.6545    0.0000 C   0  0  0  0  0  0  0  0  0
    0.3675   -4.4795    0.0000 C   0  0  0  0  0  0  0  0  0
   -0.3470   -4.8920    0.0000 C   0  0  0  0  0  0  0  0  0
  1  2  1  0  0  0  0
  2  3  4  0  0  0  0
  2 11  4  0  0  0  0
  3  4  4  0  0  0  0
  4  5  1  0  0  0  0
  4  9  4  0  0  0  0
  5  6  1  0  0  0  0
  6  7  2  0  0  0  0
  6  8  1  0  0  0  0
  8  9  1  0  0  0  0
  9 10  4  0  0  0  0
 10 11  4  0  0  0  0
 11 12  1  0  0  0  0
 12 13  1  0  0  0  0
 13 14  1  0  0  0  0
 14 15  1  0  0  0  0
 14 19  1  0  0  0  0
 15 16  1  0  0  0  0
 16 17  1  0  0  0  0
 17 18  1  0  0  0  0
 17 20  1  0  0  0  0
 18 19  1  0  0  0  0
 20 21  4  0  0  0  0
 20 24  4  0  0  0  0
 21 22  4  0  0  0  0
 22 23  4  0  0  0  0
 23 24  4  0  0  0  0
 23 28  4  0  0  0  0
 24 25  4  0  0  0  0
 25 26  4  0  0  0  0
 26 27  4  0  0  0  0
 27 28  4  0  0  0  0
M  END
>  <Name_Molregno>
ZIPRASIDONE

>  <5-HT1A>
8.19

>  <5-HT1B>
8.7

>  <5-HT1D>
8.32

>  <5-HT1E>
6.17

>  <5-HT2A>
9.54

>  <5-HT2C>
8.82

>  <5-HT3>
5.7

>  <5-HT5>
6.54

>  <5-HT6>
7.17

>  <5-HT7>
8.23

>  <Alpha-1A>
7.74

>  <Alpha-1B>
8.05

>  <Alpha-2A>
6.8

>  <Alpha-2B>
7.32

>  <Alpha-2C>
7.15

>  <Beta-1>
5.3

>  <Beta-2>
5.15

>  <DOPAMINE D1>
7.1

>  <DOPAMINE D2>
8.39

>  <DOPAMINE D3>
8.21

>  <DOPAMINE D4>
7.43

>  <DOPAMINE D5>
6.82

>  <Dopamine transporter>
5

>  <HISTAMINE H1>
7.51

>  <HISTAMINE H2>
5.46

>  <HISTAMINE H4>
5

>  <Muscarinic acetylcholine receptor M1>
5.53

>  <Muscarinic acetylcholine receptor M2>
5.26

>  <Muscarinic acetylcholine receptor M3>
5.3

>  <Muscarinic acetylcholine receptor M4>
5.4

>  <Muscarinic acetylcholine receptor M5>
5.4

>  <Norepinephrine transporter>
7.36

>  <Serotonin transporter>
6.92

$$$$
ZOTEPINE
  Marvin  02231216192D 0   1.00000     0.00000     0

 22 24  0  0  0  0  0  0  0  0999 V2000
    1.8575   -4.4413    0.0000 Cl  0  0  0  0  0  0  0  0  0
    1.0691   -4.1981    0.0000 C   0  0  0  0  0  0  0  0  0
    0.8856   -3.3938    0.0000 C   0  0  0  0  0  0  0  0  0
    0.0972   -3.1507    0.0000 C   0  0  0  0  0  0  0  0  0
   -0.5076   -3.7118    0.0000 C   0  0  0  0  0  0  0  0  0
   -1.3233   -3.5888    0.0000 S   0  0  0  0  0  0  0  0  0
   -1.7358   -2.8744    0.0000 C   0  0  0  0  0  0  0  0  0
   -1.4344   -2.1064    0.0000 C   0  0  0  0  0  0  0  0  0
   -0.6461   -1.8632    0.0000 C   0  0  0  0  0  0  0  0  0
    0.0356   -2.3280    0.0000 C   0  0  0  0  0  0  0  0  0
    0.7500   -1.9155    0.0000 O   0  0  0  0  0  0  0  0  0
    1.4645   -2.3280    0.0000 C   0  0  0  0  0  0  0  0  0
    2.1790   -1.9155    0.0000 C   0  0  0  0  0  0  0  0  0
    2.8934   -2.3280    0.0000 N   0  0  0  0  0  0  0  0  0
    3.6079   -1.9155    0.0000 C   0  0  0  0  0  0  0  0  0
    2.8934   -3.1530    0.0000 C   0  0  0  0  0  0  0  0  0
   -1.9488   -1.4614    0.0000 C   0  0  0  0  0  0  0  0  0
   -2.7646   -1.5843    0.0000 C   0  0  0  0  0  0  0  0  0
   -3.0660   -2.3523    0.0000 C   0  0  0  0  0  0  0  0  0
   -2.5516   -2.9973    0.0000 C   0  0  0  0  0  0  0  0  0
   -0.3240   -4.5161    0.0000 C   0  0  0  0  0  0  0  0  0
    0.4644   -4.7593    0.0000 C   0  0  0  0  0  0  0  0  0
  1  2  1  0  0  0  0
  2  3  4  0  0  0  0
  2 22  4  0  0  0  0
  3  4  4  0  0  0  0
  4  5  4  0  0  0  0
  4 10  1  0  0  0  0
  5  6  1  0  0  0  0
  5 21  4  0  0  0  0
  6  7  1  0  0  0  0
  7  8  4  0  0  0  0
  7 20  4  0  0  0  0
  8  9  1  0  0  0  0
  8 17  4  0  0  0  0
  9 10  2  0  0  0  0
 10 11  1  0  0  0  0
 11 12  1  0  0  0  0
 12 13  1  0  0  0  0
 13 14  1  0  0  0  0
 14 15  1  0  0  0  0
 14 16  1  0  0  0  0
 17 18  4  0  0  0  0
 18 19  4  0  0  0  0
 19 20  4  0  0  0  0
 21 22  4  0  0  0  0
M  END
>  <Name_Molregno>
ZOTEPINE

>  <5-HT1A>
6.41

>  <5-HT1B>
7.23

>  <5-HT1D>
7.02

>  <5-HT1E>
6.23

>  <5-HT2A>
8.58

>  <5-HT2C>
8.49

>  <5-HT3>
6.33

>  <5-HT5>
7.54

>  <5-HT6>
8.22

>  <5-HT7>
7.92

>  <Alpha-1A>
8.15

>  <Alpha-1B>
8.3

>  <Alpha-2A>
6.68

>  <Alpha-2B>
8.27

>  <Alpha-2C>
7.02

>  <Beta-1>
5.19

>  <Beta-2>
5.32

>  <DOPAMINE D1>
7.15

>  <DOPAMINE D2>
7.98

>  <DOPAMINE D3>
8.19

>  <DOPAMINE D4>
7.57

>  <DOPAMINE D5>
6.61

>  <Dopamine transporter>
5.44

>  <HISTAMINE H1>
8.64

>  <HISTAMINE H2>
6.3

>  <HISTAMINE H4>
5.7

>  <Muscarinic acetylcholine receptor M1>
6.37

>  <Muscarinic acetylcholine receptor M2>
5.92

>  <Muscarinic acetylcholine receptor M3>
6.07

>  <Muscarinic acetylcholine receptor M4>
6.06

>  <Muscarinic acetylcholine receptor M5>
5.8

>  <Norepinephrine transporter>
6.28

>  <Serotonin transporter>
6.41

$$$$
