10454
  Marvin  02231216192D 0   1.00000     0.00000     0

 14 14  0  0  0  0  0  0  0  0999 V2000
   -0.7471   -2.5557    0.0000 S   0  0  0  0  0  0  0  0  0
   -0.7471   -1.7307    0.0000 C   0  0  0  0  0  0  0  0  0
   -1.4615   -1.3182    0.0000 N   0  0  0  0  0  0  0  0  0
   -2.1760   -1.7307    0.0000 C   0  0  0  0  0  0  0  0  0
   -0.0326   -1.3182    0.0000 N   0  0  0  0  0  0  0  0  0
    0.6819   -1.7307    0.0000 C   0  0  0  0  0  0  0  0  0
    1.3964   -1.3182    0.0000 C   0  0  0  0  0  0  0  0  0
    2.1108   -1.7307    0.0000 C   0  0  0  0  0  0  0  0  0
    2.8253   -1.3182    0.0000 C   0  0  0  0  0  0  0  0  0
    3.5398   -1.7307    0.0000 C   0  0  0  0  0  0  0  0  0
    4.2934   -1.3951    0.0000 N   0  0  0  0  0  0  0  0  0
    4.8455   -2.0082    0.0000 C   0  0  0  0  0  0  0  0  0
    4.4330   -2.7227    0.0000 N   0  0  0  0  0  0  0  0  0
    3.6260   -2.5512    0.0000 C   0  0  0  0  0  0  0  0  0
  1  2  1  0  0  0  0
  2  3  2  0  0  0  0
  2  5  1  0  0  0  0
  3  4  1  0  0  0  0
  5  6  1  0  0  0  0
  6  7  1  0  0  0  0
  7  8  1  0  0  0  0
  8  9  1  0  0  0  0
  9 10  1  0  0  0  0
 10 11  4  0  0  0  0
 10 14  4  0  0  0  0
 11 12  4  0  0  0  0
 12 13  4  0  0  0  0
 13 14  4  0  0  0  0
M  STY  1   1 DAT
M  SAL   1  1  13
M  SDT   1 MRV_IMPLICIT_H                                        
M  SDD   1     0.0000    0.0000    DR    ALL  0       0  
M  SED   1 IMPL_H1
M  END
>  <Name_Molregno>
10454

>  <HISTAMINE H2>
5.4

$$$$
14718
  Marvin  02231216192D 0   1.00000     0.00000     0

 20 22  0  0  0  0  0  0  0  0999 V2000
   -0.1307   -0.2468    0.0000 O   0  0  0  0  0  0  0  0  0
    0.5837    0.1657    0.0000 C   0  0  0  0  0  0  0  0  0
    1.2982   -0.2468    0.0000 C   0  0  0  0  0  0  0  0  0
    2.0127    0.1657    0.0000 C   0  0  0  0  0  0  0  0  0
    2.7272   -0.2468    0.0000 C   0  0  0  0  0  0  0  0  0
    3.4808    0.0888    0.0000 N   0  0  0  0  0  0  0  0  0
    4.0329   -0.5243    0.0000 C   0  0  0  0  0  0  0  0  0
    3.6204   -1.2388    0.0000 N   0  0  0  0  0  0  0  0  0
    2.8134   -1.0672    0.0000 C   0  0  0  0  0  0  0  0  0
   -0.8452    0.1657    0.0000 C   0  0  0  0  0  0  0  0  0
   -1.5597   -0.2468    0.0000 C   0  0  0  0  0  0  0  0  0
   -2.2741    0.1657    0.0000 C   0  0  0  0  0  0  0  0  0
   -2.2741    0.9907    0.0000 C   0  0  0  0  0  0  0  0  0
   -1.5597    1.4032    0.0000 C   0  0  0  0  0  0  0  0  0
   -0.8452    0.9907    0.0000 C   0  0  0  0  0  0  0  0  0
   -2.9886    1.4032    0.0000 C   0  0  0  0  0  0  0  0  0
   -3.7031    0.9907    0.0000 O   0  0  0  0  0  0  0  0  0
   -2.9886    2.2282    0.0000 C   0  0  0  0  0  0  0  0  0
   -3.4011    2.9427    0.0000 C   0  0  0  0  0  0  0  0  0
   -2.5761    2.9427    0.0000 C   0  0  0  0  0  0  0  0  0
  1  2  1  0  0  0  0
  1 10  1  0  0  0  0
  2  3  1  0  0  0  0
  3  4  1  0  0  0  0
  4  5  1  0  0  0  0
  5  6  4  0  0  0  0
  5  9  4  0  0  0  0
  6  7  4  0  0  0  0
  7  8  4  0  0  0  0
  8  9  4  0  0  0  0
 10 11  4  0  0  0  0
 10 15  4  0  0  0  0
 11 12  4  0  0  0  0
 12 13  4  0  0  0  0
 13 14  4  0  0  0  0
 13 16  1  0  0  0  0
 14 15  4  0  0  0  0
 16 17  2  0  0  0  0
 16 18  1  0  0  0  0
 18 19  1  0  0  0  0
 18 20  1  0  0  0  0
 19 20  1  0  0  0  0
M  STY  1   1 DAT
M  SAL   1  1   8
M  SDT   1 MRV_IMPLICIT_H                                        
M  SDD   1     0.0000    0.0000    DR    ALL  0       0  
M  SED   1 IMPL_H1
M  END
>  <Name_Molregno>
14718

>  <Alpha-2A>
7.37

>  <Alpha-2C>
7.2

>  <HISTAMINE H1>
5

>  <HISTAMINE H2>
5

>  <HISTAMINE H3>
7.19

>  <HISTAMINE H4>
5.97

$$$$
34050
  Marvin  02231216192D 0   1.00000     0.00000     0

 23 25  0  0  0  0  0  0  0  0999 V2000
   -0.3472   -1.4083    0.0000 O   0  0  0  0  0  0  0  0  0
    0.3673   -0.9958    0.0000 C   0  0  0  0  0  0  0  0  0
    1.0818   -1.4083    0.0000 C   0  0  0  0  0  0  0  0  0
    1.7962   -0.9958    0.0000 C   0  0  0  0  0  0  0  0  0
    2.5107   -1.4083    0.0000 N   0  0  0  0  0  0  0  0  0
    3.2644   -1.0727    0.0000 C   0  0  0  0  0  0  0  0  0
    3.8164   -1.6858    0.0000 C   0  0  0  0  0  0  0  0  0
    3.4039   -2.4003    0.0000 C   0  0  0  0  0  0  0  0  0
    2.5969   -2.2288    0.0000 C   0  0  0  0  0  0  0  0  0
   -1.0616   -0.9958    0.0000 C   0  0  0  0  0  0  0  0  0
   -1.7761   -1.4083    0.0000 C   0  0  0  0  0  0  0  0  0
   -2.4906   -0.9958    0.0000 C   0  0  0  0  0  0  0  0  0
   -2.4906   -0.1708    0.0000 C   0  0  0  0  0  0  0  0  0
   -1.7761    0.2417    0.0000 C   0  0  0  0  0  0  0  0  0
   -1.0616   -0.1708    0.0000 C   0  0  0  0  0  0  0  0  0
   -3.2051    0.2417    0.0000 C   0  0  0  0  0  0  0  0  0
   -3.9195   -0.1708    0.0000 C   0  0  0  0  0  0  0  0  0
   -4.6340    0.2417    0.0000 C   0  0  0  0  0  0  0  0  0
   -4.6340    1.0667    0.0000 C   0  0  0  0  0  0  0  0  0
   -3.9195    1.4792    0.0000 C   0  0  0  0  0  0  0  0  0
   -3.2051    1.0667    0.0000 C   0  0  0  0  0  0  0  0  0
   -5.3485    1.4792    0.0000 C   0  0  0  0  0  0  0  0  0
   -6.0629    1.8917    0.0000 N   0  0  0  0  0  0  0  0  0
  1  2  1  0  0  0  0
  1 10  1  0  0  0  0
  2  3  1  0  0  0  0
  3  4  1  0  0  0  0
  4  5  1  0  0  0  0
  5  6  1  0  0  0  0
  5  9  1  0  0  0  0
  6  7  1  0  0  0  0
  7  8  1  0  0  0  0
  8  9  1  0  0  0  0
 10 11  4  0  0  0  0
 10 15  4  0  0  0  0
 11 12  4  0  0  0  0
 12 13  4  0  0  0  0
 13 14  4  0  0  0  0
 13 16  1  0  0  0  0
 14 15  4  0  0  0  0
 16 17  4  0  0  0  0
 16 21  4  0  0  0  0
 17 18  4  0  0  0  0
 18 19  4  0  0  0  0
 19 20  4  0  0  0  0
 19 22  1  0  0  0  0
 20 21  4  0  0  0  0
 22 23  3  0  0  0  0
M  END
>  <Name_Molregno>
34050

>  <HISTAMINE H1>
5.3

>  <HISTAMINE H2>
4.17

>  <HISTAMINE H3>
8.14

$$$$
42179
  Marvin  02231216192D 0   1.00000     0.00000     0

 31 34  0  0  0  0  0  0  0  0999 V2000
    0.8929    1.6421    0.0000 O   0  0  0  0  0  0  0  0  0
    1.6074    2.0546    0.0000 C   0  0  0  0  0  0  0  0  0
    0.8929    0.8171    0.0000 C   0  0  0  0  0  0  0  0  0
    1.6074    0.4046    0.0000 C   0  0  0  0  0  0  0  0  0
    1.6074   -0.4204    0.0000 C   0  0  0  0  0  0  0  0  0
    0.8929   -0.8329    0.0000 C   0  0  0  0  0  0  0  0  0
    0.1785   -0.4204    0.0000 C   0  0  0  0  0  0  0  0  0
    0.1785    0.4046    0.0000 C   0  0  0  0  0  0  0  0  0
   -0.5360    0.8171    0.0000 N   0  0  0  0  0  0  0  0  0
   -1.2505    0.4046    0.0000 C   0  0  0  0  0  0  0  0  0
   -1.9649    0.8171    0.0000 C   0  0  0  0  0  0  0  0  0
   -1.9649    1.6421    0.0000 N   0  0  0  0  0  0  0  0  0
   -1.2505    2.0546    0.0000 C   0  0  0  0  0  0  0  0  0
   -0.5360    1.6421    0.0000 C   0  0  0  0  0  0  0  0  0
   -2.6794    2.0546    0.0000 C   0  0  0  0  0  0  0  0  0
   -3.3939    1.6421    0.0000 C   0  0  0  0  0  0  0  0  0
   -4.1083    2.0546    0.0000 N   0  0  0  0  0  0  0  0  0
   -4.8228    1.6421    0.0000 C   0  0  0  0  0  0  0  0  0
   -4.8228    0.8171    0.0000 O   0  0  0  0  0  0  0  0  0
   -5.5373    2.0546    0.0000 C   0  0  0  0  0  0  0  0  0
   -6.2518    1.6421    0.0000 C   0  0  0  0  0  0  0  0  0
   -6.9662    2.0546    0.0000 C   0  0  0  0  0  0  0  0  0
   -6.9662    2.8796    0.0000 C   0  0  0  0  0  0  0  0  0
   -6.2518    3.2921    0.0000 C   0  0  0  0  0  0  0  0  0
   -5.5373    2.8796    0.0000 C   0  0  0  0  0  0  0  0  0
   -4.1083    2.8796    0.0000 C   0  0  0  0  0  0  0  0  0
   -4.8228    3.2921    0.0000 N   0  0  0  0  0  0  0  0  0
   -4.8228    4.1171    0.0000 C   0  0  0  0  0  0  0  0  0
   -4.1083    4.5296    0.0000 C   0  0  0  0  0  0  0  0  0
   -3.3939    4.1171    0.0000 C   0  0  0  0  0  0  0  0  0
   -3.3939    3.2921    0.0000 C   0  0  0  0  0  0  0  0  0
  1  2  1  0  0  0  0
  1  3  1  0  0  0  0
  3  4  4  0  0  0  0
  3  8  4  0  0  0  0
  4  5  4  0  0  0  0
  5  6  4  0  0  0  0
  6  7  4  0  0  0  0
  7  8  4  0  0  0  0
  8  9  1  0  0  0  0
  9 10  1  0  0  0  0
  9 14  1  0  0  0  0
 10 11  1  0  0  0  0
 11 12  1  0  0  0  0
 12 13  1  0  0  0  0
 12 15  1  0  0  0  0
 13 14  1  0  0  0  0
 15 16  1  0  0  0  0
 16 17  1  0  0  0  0
 17 18  1  0  0  0  0
 17 26  1  0  0  0  0
 18 19  2  0  0  0  0
 18 20  1  0  0  0  0
 20 21  1  0  0  0  0
 20 25  1  0  0  0  0
 21 22  1  0  0  0  0
 22 23  1  0  0  0  0
 23 24  1  0  0  0  0
 24 25  1  0  0  0  0
 26 27  4  0  0  0  0
 26 31  4  0  0  0  0
 27 28  4  0  0  0  0
 28 29  4  0  0  0  0
 29 30  4  0  0  0  0
 30 31  4  0  0  0  0
M  END
>  <Name_Molregno>
42179

>  <5-HT1A>
9.12

>  <5-HT1B>
5

>  <5-HT1D>
5

>  <5-HT1E>
5

>  <5-HT2A>
5.2

>  <5-HT5>
5

>  <5-HT6>
5

>  <5-HT7>
5

>  <Alpha-1A>
7.71

>  <Alpha-1B>
6.33

>  <Alpha-2A>
5

>  <Alpha-2B>
5

>  <Alpha-2C>
5.59

>  <DOPAMINE D1>
5

>  <DOPAMINE D2>
6.57

>  <DOPAMINE D3>
7.17

>  <DOPAMINE D4>
7.79

>  <DOPAMINE D5>
5

>  <HISTAMINE H1>
5

>  <HISTAMINE H2>
5

>  <HISTAMINE H4>
5

>  <Muscarinic acetylcholine receptor M2>
5

>  <Muscarinic acetylcholine receptor M5>
5

$$$$
66613
  Marvin  02231216192D 0   1.00000     0.00000     0

 14 15  0  0  1  0  0  0  0  0999 V2000
   -3.5937   -0.7341    0.0000 O   0  0  0  0  0  0  0  0  0
   -2.8091   -0.9890    0.0000 C   0  0  0  0  0  0  0  0  0
   -2.0946   -0.5765    0.0000 C   0  0  0  0  0  0  0  0  0
   -1.3801   -0.9890    0.0000 C   0  0  0  0  0  0  0  0  0
   -1.3801   -1.8140    0.0000 C   0  0  0  0  0  0  0  0  0
   -2.0946   -2.2265    0.0000 C   0  0  0  0  0  0  0  0  0
   -2.8091   -1.8140    0.0000 C   0  0  0  0  0  0  0  0  0
   -3.5937   -2.0690    0.0000 O   0  0  0  0  0  0  0  0  0
   -4.0786   -1.4015    0.0000 C   0  0  0  0  0  0  0  0  0
   -0.6657   -0.5765    0.0000 C   0  0  0  0  0  0  0  0  0
   -0.6657    0.2485    0.0000 C   0  0  0  0  0  0  0  0  0
    0.0488    0.6610    0.0000 N   0  0  0  0  0  0  0  0  0
    0.0488    1.4860    0.0000 C   0  0  0  0  0  0  0  0  0
   -1.3801    0.6610    0.0000 C   0  0  0  0  0  0  0  0  0
  1  2  1  0  0  0  0
  1  9  1  0  0  0  0
  2  3  4  0  0  0  0
  2  7  4  0  0  0  0
  3  4  4  0  0  0  0
  4  5  4  0  0  0  0
  4 10  1  0  0  0  0
  5  6  4  0  0  0  0
  6  7  4  0  0  0  0
  7  8  1  0  0  0  0
  8  9  1  0  0  0  0
 10 11  1  0  0  0  0
 11 12  1  0  0  0  0
 11 14  1  0  0  0  0
 12 13  1  0  0  0  0
M  END
>  <Name_Molregno>
66613

>  <5-HT1A>
5

>  <5-HT1B>
5

>  <5-HT1D>
5

>  <5-HT1E>
5

>  <5-HT2A>
5

>  <5-HT3>
5

>  <5-HT5>
5

>  <5-HT6>
5

>  <5-HT7>
5

>  <Alpha-1A>
5

>  <Alpha-1B>
5

>  <Alpha-2A>
5.6

>  <Alpha-2B>
5.75

>  <Alpha-2C>
5.95

>  <Beta-1>
5

>  <Beta-2>
5

>  <DOPAMINE D1>
5

>  <DOPAMINE D2>
5

>  <DOPAMINE D3>
5

>  <DOPAMINE D4>
5

>  <DOPAMINE D5>
5

>  <Dopamine transporter>
5

>  <HISTAMINE H1>
5.67

>  <HISTAMINE H2>
5

>  <Muscarinic acetylcholine receptor M1>
5

>  <Muscarinic acetylcholine receptor M2>
5

>  <Muscarinic acetylcholine receptor M3>
5.73

>  <Muscarinic acetylcholine receptor M4>
5.08

>  <Muscarinic acetylcholine receptor M5>
5.2

>  <Norepinephrine transporter>
5

>  <Serotonin transporter>
7.24

$$$$
67177
  Marvin  02231216192D 0   1.00000     0.00000     0

 15 15  0  0  0  0  0  0  0  0999 V2000
   -0.6350    0.1753    0.0000 S   0  0  0  0  0  0  0  0  0
    0.0795    0.5878    0.0000 C   0  0  0  0  0  0  0  0  0
    0.0795    1.4128    0.0000 N   0  0  0  0  0  0  0  0  0
   -0.6350    1.8253    0.0000 C   0  0  0  0  0  0  0  0  0
    0.7940    0.1753    0.0000 N   0  0  0  0  0  0  0  0  0
    1.5084    0.5878    0.0000 C   0  0  0  0  0  0  0  0  0
    2.2229    0.1753    0.0000 C   0  0  0  0  0  0  0  0  0
    2.9374    0.5878    0.0000 C   0  0  0  0  0  0  0  0  0
    3.6518    0.1753    0.0000 C   0  0  0  0  0  0  0  0  0
    4.3663    0.5878    0.0000 C   0  0  0  0  0  0  0  0  0
    5.0808    0.1753    0.0000 C   0  0  0  0  0  0  0  0  0
    5.8345    0.5109    0.0000 N   0  0  0  0  0  0  0  0  0
    6.3865   -0.1022    0.0000 C   0  0  0  0  0  0  0  0  0
    5.9740   -0.8167    0.0000 N   0  0  0  0  0  0  0  0  0
    5.1670   -0.6452    0.0000 C   0  0  0  0  0  0  0  0  0
  1  2  1  0  0  0  0
  2  3  2  0  0  0  0
  2  5  1  0  0  0  0
  3  4  1  0  0  0  0
  5  6  1  0  0  0  0
  6  7  1  0  0  0  0
  7  8  1  0  0  0  0
  8  9  1  0  0  0  0
  9 10  1  0  0  0  0
 10 11  1  0  0  0  0
 11 12  4  0  0  0  0
 11 15  4  0  0  0  0
 12 13  4  0  0  0  0
 13 14  4  0  0  0  0
 14 15  4  0  0  0  0
M  STY  1   1 DAT
M  SAL   1  1  14
M  SDT   1 MRV_IMPLICIT_H                                        
M  SDD   1     0.0000    0.0000    DR    ALL  0       0  
M  SED   1 IMPL_H1
M  END
>  <Name_Molregno>
67177

>  <HISTAMINE H2>
4.7

$$$$
88815
  Marvin  02231216192D 0   1.00000     0.00000     0

 14 15  0  0  1  0  0  0  0  0999 V2000
   -3.2072   -0.1654    0.0000 S   0  0  0  0  0  0  0  0  0
   -2.4226   -0.4204    0.0000 C   0  0  0  0  0  0  0  0  0
   -1.7081   -0.0079    0.0000 C   0  0  0  0  0  0  0  0  0
   -0.9937   -0.4204    0.0000 C   0  0  0  0  0  0  0  0  0
   -0.2792   -0.0079    0.0000 N   0  0  0  0  0  0  0  0  0
    0.4353   -0.4204    0.0000 C   0  0  0  0  0  0  0  0  0
    1.1498   -0.0079    0.0000 C   0  0  0  0  0  0  0  0  0
    1.8642   -0.4204    0.0000 C   0  0  0  0  0  0  0  0  0
   -0.9937   -1.2454    0.0000 C   0  0  0  0  0  0  0  0  0
   -1.7081   -1.6579    0.0000 C   0  0  0  0  0  0  0  0  0
   -2.4226   -1.2454    0.0000 C   0  0  0  0  0  0  0  0  0
   -3.2072   -1.5003    0.0000 N   0  0  0  0  0  0  0  0  0
   -3.6921   -0.8329    0.0000 C   0  0  0  0  0  0  0  0  0
   -4.5171   -0.8329    0.0000 N   0  0  0  0  0  0  0  0  0
  1  2  4  0  0  0  0
  1 13  4  0  0  0  0
  2  3  1  0  0  0  0
  2 11  4  0  0  0  0
  3  4  1  0  0  0  0
  4  5  1  0  0  0  0
  4  9  1  0  0  0  0
  5  6  1  0  0  0  0
  6  7  1  0  0  0  0
  7  8  1  0  0  0  0
  9 10  1  0  0  0  0
 10 11  1  0  0  0  0
 11 12  4  0  0  0  0
 12 13  4  0  0  0  0
 13 14  1  0  0  0  0
M  END
>  <Name_Molregno>
88815

>  <5-HT1A>
5.67

>  <5-HT1B>
5.26

>  <5-HT1D>
5.39

>  <5-HT1E>
5

>  <5-HT2A>
5

>  <5-HT2C>
5

>  <5-HT3>
5

>  <5-HT5>
5

>  <5-HT6>
5

>  <5-HT7>
5.93

>  <Alpha-1A>
5

>  <Alpha-1B>
5

>  <Alpha-2A>
6.44

>  <Alpha-2B>
6.68

>  <Alpha-2C>
6.14

>  <Beta-1>
5

>  <Beta-2>
5

>  <DOPAMINE D1>
5

>  <DOPAMINE D2>
6.55

>  <DOPAMINE D3>
8.51

>  <DOPAMINE D4>
7.4

>  <DOPAMINE D5>
5

>  <Dopamine transporter>
5

>  <HISTAMINE H1>
5

>  <HISTAMINE H2>
5.57

>  <HISTAMINE H4>
5

>  <Muscarinic acetylcholine receptor M1>
5

>  <Muscarinic acetylcholine receptor M2>
5

>  <Muscarinic acetylcholine receptor M3>
5

>  <Muscarinic acetylcholine receptor M4>
5

>  <Muscarinic acetylcholine receptor M5>
5

>  <Norepinephrine transporter>
5

>  <Serotonin transporter>
5

$$$$
114834
  Marvin  02231216192D 0   1.00000     0.00000     0

 17 17  0  0  0  0  0  0  0  0999 V2000
   -0.7084   -0.3999    0.0000 S   0  0  0  0  0  0  0  0  0
    0.0061    0.0126    0.0000 C   0  0  0  0  0  0  0  0  0
    0.0061    0.8376    0.0000 N   0  0  0  0  0  0  0  0  0
   -0.7084    1.2501    0.0000 C   0  0  0  0  0  0  0  0  0
   -0.7084    2.0751    0.0000 C   0  0  0  0  0  0  0  0  0
   -1.4229    2.4876    0.0000 C   0  0  0  0  0  0  0  0  0
    0.7205   -0.3999    0.0000 N   0  0  0  0  0  0  0  0  0
    1.4350    0.0126    0.0000 C   0  0  0  0  0  0  0  0  0
    2.1495   -0.3999    0.0000 C   0  0  0  0  0  0  0  0  0
    2.8640    0.0126    0.0000 C   0  0  0  0  0  0  0  0  0
    3.5784   -0.3999    0.0000 C   0  0  0  0  0  0  0  0  0
    4.2929    0.0126    0.0000 C   0  0  0  0  0  0  0  0  0
    5.0074   -0.3999    0.0000 C   0  0  0  0  0  0  0  0  0
    5.7611   -0.0643    0.0000 N   0  0  0  0  0  0  0  0  0
    6.3131   -0.6774    0.0000 C   0  0  0  0  0  0  0  0  0
    5.9006   -1.3919    0.0000 N   0  0  0  0  0  0  0  0  0
    5.0936   -1.2203    0.0000 C   0  0  0  0  0  0  0  0  0
  1  2  1  0  0  0  0
  2  3  2  0  0  0  0
  2  7  1  0  0  0  0
  3  4  1  0  0  0  0
  4  5  1  0  0  0  0
  5  6  1  0  0  0  0
  7  8  1  0  0  0  0
  8  9  1  0  0  0  0
  9 10  1  0  0  0  0
 10 11  1  0  0  0  0
 11 12  1  0  0  0  0
 12 13  1  0  0  0  0
 13 14  4  0  0  0  0
 13 17  4  0  0  0  0
 14 15  4  0  0  0  0
 15 16  4  0  0  0  0
 16 17  4  0  0  0  0
M  STY  1   1 DAT
M  SAL   1  1  16
M  SDT   1 MRV_IMPLICIT_H                                        
M  SDD   1     0.0000    0.0000    DR    ALL  0       0  
M  SED   1 IMPL_H1
M  END
>  <Name_Molregno>
114834

>  <HISTAMINE H2>
5.3

$$$$
114835
  Marvin  02231216192D 0   1.00000     0.00000     0

 16 16  0  0  0  0  0  0  0  0999 V2000
   -5.8692   -0.0984    0.0000 S   0  0  0  0  0  0  0  0  0
   -5.1548    0.3141    0.0000 C   0  0  0  0  0  0  0  0  0
   -5.1548    1.1391    0.0000 N   0  0  0  0  0  0  0  0  0
   -5.8692    1.5516    0.0000 C   0  0  0  0  0  0  0  0  0
   -5.8692    2.3766    0.0000 C   0  0  0  0  0  0  0  0  0
   -4.4403   -0.0984    0.0000 N   0  0  0  0  0  0  0  0  0
   -3.7258    0.3141    0.0000 C   0  0  0  0  0  0  0  0  0
   -3.0113   -0.0984    0.0000 C   0  0  0  0  0  0  0  0  0
   -2.2969    0.3141    0.0000 C   0  0  0  0  0  0  0  0  0
   -1.5824   -0.0984    0.0000 C   0  0  0  0  0  0  0  0  0
   -0.8679    0.3141    0.0000 C   0  0  0  0  0  0  0  0  0
   -0.1535   -0.0984    0.0000 C   0  0  0  0  0  0  0  0  0
    0.6002    0.2372    0.0000 N   0  0  0  0  0  0  0  0  0
    1.1522   -0.3759    0.0000 C   0  0  0  0  0  0  0  0  0
    0.7397   -1.0904    0.0000 N   0  0  0  0  0  0  0  0  0
   -0.0672   -0.9189    0.0000 C   0  0  0  0  0  0  0  0  0
  1  2  1  0  0  0  0
  2  3  2  0  0  0  0
  2  6  1  0  0  0  0
  3  4  1  0  0  0  0
  4  5  1  0  0  0  0
  6  7  1  0  0  0  0
  7  8  1  0  0  0  0
  8  9  1  0  0  0  0
  9 10  1  0  0  0  0
 10 11  1  0  0  0  0
 11 12  1  0  0  0  0
 12 13  4  0  0  0  0
 12 16  4  0  0  0  0
 13 14  4  0  0  0  0
 14 15  4  0  0  0  0
 15 16  4  0  0  0  0
M  STY  1   1 DAT
M  SAL   1  1  15
M  SDT   1 MRV_IMPLICIT_H                                        
M  SDD   1     0.0000    0.0000    DR    ALL  0       0  
M  SED   1 IMPL_H1
M  END
>  <Name_Molregno>
114835

>  <HISTAMINE H2>
5

$$$$
115046
  Marvin  02231216192D 0   1.00000     0.00000     0

 22 23  0  0  0  0  0  0  0  0999 V2000
   -1.9126    0.5356    0.0000 S   0  0  0  0  0  0  0  0  0
   -1.9126   -0.2894    0.0000 C   0  0  0  0  0  0  0  0  0
   -2.6271   -0.7019    0.0000 N   0  0  0  0  0  0  0  0  0
   -3.3416   -0.2894    0.0000 C   0  0  0  0  0  0  0  0  0
   -4.0561   -0.7019    0.0000 C   0  0  0  0  0  0  0  0  0
   -4.7705   -0.2894    0.0000 C   0  0  0  0  0  0  0  0  0
   -5.4850   -0.7019    0.0000 C   0  0  0  0  0  0  0  0  0
   -6.1995   -0.2894    0.0000 C   0  0  0  0  0  0  0  0  0
   -6.1995    0.5356    0.0000 C   0  0  0  0  0  0  0  0  0
   -5.4850    0.9481    0.0000 C   0  0  0  0  0  0  0  0  0
   -4.7705    0.5356    0.0000 C   0  0  0  0  0  0  0  0  0
   -1.1982   -0.7019    0.0000 N   0  0  0  0  0  0  0  0  0
   -0.4837   -0.2894    0.0000 C   0  0  0  0  0  0  0  0  0
    0.2308   -0.7019    0.0000 C   0  0  0  0  0  0  0  0  0
    0.9452   -0.2894    0.0000 C   0  0  0  0  0  0  0  0  0
    1.6597   -0.7019    0.0000 C   0  0  0  0  0  0  0  0  0
    2.3742   -0.2894    0.0000 C   0  0  0  0  0  0  0  0  0
    3.0886   -0.7019    0.0000 C   0  0  0  0  0  0  0  0  0
    3.8423   -0.3663    0.0000 N   0  0  0  0  0  0  0  0  0
    4.3944   -0.9794    0.0000 C   0  0  0  0  0  0  0  0  0
    3.9819   -1.6939    0.0000 N   0  0  0  0  0  0  0  0  0
    3.1749   -1.5223    0.0000 C   0  0  0  0  0  0  0  0  0
  1  2  2  0  0  0  0
  2  3  1  0  0  0  0
  2 12  1  0  0  0  0
  3  4  1  0  0  0  0
  4  5  1  0  0  0  0
  5  6  1  0  0  0  0
  6  7  4  0  0  0  0
  6 11  4  0  0  0  0
  7  8  4  0  0  0  0
  8  9  4  0  0  0  0
  9 10  4  0  0  0  0
 10 11  4  0  0  0  0
 12 13  1  0  0  0  0
 13 14  1  0  0  0  0
 14 15  1  0  0  0  0
 15 16  1  0  0  0  0
 16 17  1  0  0  0  0
 17 18  1  0  0  0  0
 18 19  4  0  0  0  0
 18 22  4  0  0  0  0
 19 20  4  0  0  0  0
 20 21  4  0  0  0  0
 21 22  4  0  0  0  0
M  STY  1   1 DAT
M  SAL   1  1  21
M  SDT   1 MRV_IMPLICIT_H                                        
M  SDD   1     0.0000    0.0000    DR    ALL  0       0  
M  SED   1 IMPL_H1
M  END
>  <Name_Molregno>
115046

>  <HISTAMINE H2>
5.5

$$$$
115053
  Marvin  02231216192D 0   1.00000     0.00000     0

 21 22  0  0  0  0  0  0  0  0999 V2000
   -0.0362    0.0273    0.0000 S   0  0  0  0  0  0  0  0  0
   -0.0362   -0.7977    0.0000 C   0  0  0  0  0  0  0  0  0
   -0.7507   -1.2102    0.0000 N   0  0  0  0  0  0  0  0  0
   -1.4651   -0.7977    0.0000 C   0  0  0  0  0  0  0  0  0
   -2.1796   -1.2102    0.0000 C   0  0  0  0  0  0  0  0  0
   -2.1796   -2.0352    0.0000 C   0  0  0  0  0  0  0  0  0
   -2.8941   -2.4477    0.0000 C   0  0  0  0  0  0  0  0  0
   -3.6086   -2.0352    0.0000 C   0  0  0  0  0  0  0  0  0
   -3.6086   -1.2102    0.0000 C   0  0  0  0  0  0  0  0  0
   -2.8941   -0.7977    0.0000 C   0  0  0  0  0  0  0  0  0
    0.6783   -1.2102    0.0000 N   0  0  0  0  0  0  0  0  0
    1.3927   -0.7977    0.0000 C   0  0  0  0  0  0  0  0  0
    2.1072   -1.2102    0.0000 C   0  0  0  0  0  0  0  0  0
    2.8217   -0.7977    0.0000 C   0  0  0  0  0  0  0  0  0
    3.5362   -1.2102    0.0000 C   0  0  0  0  0  0  0  0  0
    4.2506   -0.7977    0.0000 C   0  0  0  0  0  0  0  0  0
    4.9651   -1.2102    0.0000 C   0  0  0  0  0  0  0  0  0
    5.7188   -0.8746    0.0000 N   0  0  0  0  0  0  0  0  0
    6.2708   -1.4877    0.0000 C   0  0  0  0  0  0  0  0  0
    5.8583   -2.2022    0.0000 N   0  0  0  0  0  0  0  0  0
    5.0513   -2.0307    0.0000 C   0  0  0  0  0  0  0  0  0
  1  2  2  0  0  0  0
  2  3  1  0  0  0  0
  2 11  1  0  0  0  0
  3  4  1  0  0  0  0
  4  5  1  0  0  0  0
  5  6  4  0  0  0  0
  5 10  4  0  0  0  0
  6  7  4  0  0  0  0
  7  8  4  0  0  0  0
  8  9  4  0  0  0  0
  9 10  4  0  0  0  0
 11 12  1  0  0  0  0
 12 13  1  0  0  0  0
 13 14  1  0  0  0  0
 14 15  1  0  0  0  0
 15 16  1  0  0  0  0
 16 17  1  0  0  0  0
 17 18  4  0  0  0  0
 17 21  4  0  0  0  0
 18 19  4  0  0  0  0
 19 20  4  0  0  0  0
 20 21  4  0  0  0  0
M  STY  1   1 DAT
M  SAL   1  1  20
M  SDT   1 MRV_IMPLICIT_H                                        
M  SDD   1     0.0000    0.0000    DR    ALL  0       0  
M  SED   1 IMPL_H1
M  END
>  <Name_Molregno>
115053

>  <HISTAMINE H2>
5.8

$$$$
115054
  Marvin  02231216192D 0   1.00000     0.00000     0

 17 17  0  0  0  0  0  0  0  0999 V2000
   -0.6600   -0.2368    0.0000 S   0  0  0  0  0  0  0  0  0
    0.0545    0.1757    0.0000 C   0  0  0  0  0  0  0  0  0
    0.0545    1.0007    0.0000 N   0  0  0  0  0  0  0  0  0
   -0.6600    1.4132    0.0000 C   0  0  0  0  0  0  0  0  0
   -0.6600    2.2382    0.0000 C   0  0  0  0  0  0  0  0  0
   -1.3745    1.0007    0.0000 C   0  0  0  0  0  0  0  0  0
    0.7690   -0.2368    0.0000 N   0  0  0  0  0  0  0  0  0
    1.4834    0.1757    0.0000 C   0  0  0  0  0  0  0  0  0
    2.1979   -0.2368    0.0000 C   0  0  0  0  0  0  0  0  0
    2.9124    0.1757    0.0000 C   0  0  0  0  0  0  0  0  0
    3.6268   -0.2368    0.0000 C   0  0  0  0  0  0  0  0  0
    4.3413    0.1757    0.0000 C   0  0  0  0  0  0  0  0  0
    5.0558   -0.2368    0.0000 C   0  0  0  0  0  0  0  0  0
    5.8095    0.0988    0.0000 N   0  0  0  0  0  0  0  0  0
    6.3615   -0.5143    0.0000 C   0  0  0  0  0  0  0  0  0
    5.9490   -1.2288    0.0000 N   0  0  0  0  0  0  0  0  0
    5.1420   -1.0573    0.0000 C   0  0  0  0  0  0  0  0  0
  1  2  1  0  0  0  0
  2  3  2  0  0  0  0
  2  7  1  0  0  0  0
  3  4  1  0  0  0  0
  4  5  1  0  0  0  0
  4  6  1  0  0  0  0
  7  8  1  0  0  0  0
  8  9  1  0  0  0  0
  9 10  1  0  0  0  0
 10 11  1  0  0  0  0
 11 12  1  0  0  0  0
 12 13  1  0  0  0  0
 13 14  4  0  0  0  0
 13 17  4  0  0  0  0
 14 15  4  0  0  0  0
 15 16  4  0  0  0  0
 16 17  4  0  0  0  0
M  STY  1   1 DAT
M  SAL   1  1  16
M  SDT   1 MRV_IMPLICIT_H                                        
M  SDD   1     0.0000    0.0000    DR    ALL  0       0  
M  SED   1 IMPL_H1
M  END
>  <Name_Molregno>
115054

>  <HISTAMINE H2>
5

$$$$
115093
  Marvin  02231216192D 0   1.00000     0.00000     0

 20 21  0  0  0  0  0  0  0  0999 V2000
    0.2238    0.8603    0.0000 S   0  0  0  0  0  0  0  0  0
    0.2238    0.0353    0.0000 C   0  0  0  0  0  0  0  0  0
   -0.4907   -0.3772    0.0000 N   0  0  0  0  0  0  0  0  0
   -1.2052    0.0353    0.0000 C   0  0  0  0  0  0  0  0  0
   -1.9196   -0.3772    0.0000 C   0  0  0  0  0  0  0  0  0
   -2.6341    0.0353    0.0000 C   0  0  0  0  0  0  0  0  0
   -2.6341    0.8603    0.0000 C   0  0  0  0  0  0  0  0  0
   -1.9196    1.2728    0.0000 C   0  0  0  0  0  0  0  0  0
   -1.2052    0.8603    0.0000 C   0  0  0  0  0  0  0  0  0
    0.9382   -0.3772    0.0000 N   0  0  0  0  0  0  0  0  0
    1.6527    0.0353    0.0000 C   0  0  0  0  0  0  0  0  0
    2.3672   -0.3772    0.0000 C   0  0  0  0  0  0  0  0  0
    3.0817    0.0353    0.0000 C   0  0  0  0  0  0  0  0  0
    3.7961   -0.3772    0.0000 C   0  0  0  0  0  0  0  0  0
    4.5106    0.0353    0.0000 C   0  0  0  0  0  0  0  0  0
    5.2251   -0.3772    0.0000 C   0  0  0  0  0  0  0  0  0
    5.9788   -0.0416    0.0000 N   0  0  0  0  0  0  0  0  0
    6.5308   -0.6547    0.0000 C   0  0  0  0  0  0  0  0  0
    6.1183   -1.3692    0.0000 N   0  0  0  0  0  0  0  0  0
    5.3113   -1.1977    0.0000 C   0  0  0  0  0  0  0  0  0
  1  2  2  0  0  0  0
  2  3  1  0  0  0  0
  2 10  1  0  0  0  0
  3  4  1  0  0  0  0
  4  5  4  0  0  0  0
  4  9  4  0  0  0  0
  5  6  4  0  0  0  0
  6  7  4  0  0  0  0
  7  8  4  0  0  0  0
  8  9  4  0  0  0  0
 10 11  1  0  0  0  0
 11 12  1  0  0  0  0
 12 13  1  0  0  0  0
 13 14  1  0  0  0  0
 14 15  1  0  0  0  0
 15 16  1  0  0  0  0
 16 17  4  0  0  0  0
 16 20  4  0  0  0  0
 17 18  4  0  0  0  0
 18 19  4  0  0  0  0
 19 20  4  0  0  0  0
M  STY  1   1 DAT
M  SAL   1  1  19
M  SDT   1 MRV_IMPLICIT_H                                        
M  SDD   1     0.0000    0.0000    DR    ALL  0       0  
M  SED   1 IMPL_H1
M  END
>  <Name_Molregno>
115093

>  <HISTAMINE H2>
5.15

$$$$
115895
  Marvin  02231216192D 0   1.00000     0.00000     0

 22 23  0  0  0  0  0  0  0  0999 V2000
   -0.2461   -2.6701    0.0000 Cl  0  0  0  0  0  0  0  0  0
    0.4684   -2.2576    0.0000 C   0  0  0  0  0  0  0  0  0
    0.4684   -1.4326    0.0000 C   0  0  0  0  0  0  0  0  0
    1.1829   -1.0201    0.0000 C   0  0  0  0  0  0  0  0  0
    1.8973   -1.4326    0.0000 C   0  0  0  0  0  0  0  0  0
    1.8973   -2.2576    0.0000 C   0  0  0  0  0  0  0  0  0
    1.1829   -2.6701    0.0000 C   0  0  0  0  0  0  0  0  0
    2.6118   -1.0201    0.0000 C   0  0  0  0  0  0  0  0  0
    3.3263   -1.4326    0.0000 N   0  0  0  0  0  0  0  0  0
    4.0407   -1.0201    0.0000 C   0  0  0  0  0  0  0  0  0
    4.0407   -0.1951    0.0000 S   0  0  0  0  0  0  0  0  0
    4.7552   -1.4326    0.0000 N   0  0  0  0  0  0  0  0  0
    5.4697   -1.0201    0.0000 C   0  0  0  0  0  0  0  0  0
    6.1842   -1.4326    0.0000 C   0  0  0  0  0  0  0  0  0
    6.8986   -1.0201    0.0000 C   0  0  0  0  0  0  0  0  0
    7.6131   -1.4326    0.0000 C   0  0  0  0  0  0  0  0  0
    8.3276   -1.0201    0.0000 C   0  0  0  0  0  0  0  0  0
    9.0420   -1.4326    0.0000 C   0  0  0  0  0  0  0  0  0
    9.7957   -1.0971    0.0000 N   0  0  0  0  0  0  0  0  0
   10.3477   -1.7102    0.0000 C   0  0  0  0  0  0  0  0  0
    9.9352   -2.4246    0.0000 N   0  0  0  0  0  0  0  0  0
    9.1283   -2.2531    0.0000 C   0  0  0  0  0  0  0  0  0
  1  2  1  0  0  0  0
  2  3  4  0  0  0  0
  2  7  4  0  0  0  0
  3  4  4  0  0  0  0
  4  5  4  0  0  0  0
  5  6  4  0  0  0  0
  5  8  1  0  0  0  0
  6  7  4  0  0  0  0
  8  9  1  0  0  0  0
  9 10  1  0  0  0  0
 10 11  2  0  0  0  0
 10 12  1  0  0  0  0
 12 13  1  0  0  0  0
 13 14  1  0  0  0  0
 14 15  1  0  0  0  0
 15 16  1  0  0  0  0
 16 17  1  0  0  0  0
 17 18  1  0  0  0  0
 18 19  4  0  0  0  0
 18 22  4  0  0  0  0
 19 20  4  0  0  0  0
 20 21  4  0  0  0  0
 21 22  4  0  0  0  0
M  STY  1   1 DAT
M  SAL   1  1  21
M  SDT   1 MRV_IMPLICIT_H                                        
M  SDD   1     0.0000    0.0000    DR    ALL  0       0  
M  SED   1 IMPL_H1
M  END
>  <Name_Molregno>
115895

>  <HISTAMINE H2>
5.8

$$$$
127416
  Marvin  02231216192D 0   1.00000     0.00000     0

 12 13  0  0  0  0  0  0  0  0999 V2000
   -2.8320   -1.1639    0.0000 N   0  0  0  0  0  0  0  0  0
   -3.0870   -0.3793    0.0000 C   0  0  0  0  0  0  0  0  0
   -2.4195    0.1057    0.0000 C   0  0  0  0  0  0  0  0  0
   -1.7521   -0.3793    0.0000 N   0  0  0  0  0  0  0  0  0
   -2.0070   -1.1639    0.0000 C   0  0  0  0  0  0  0  0  0
   -2.4195    0.9307    0.0000 C   0  0  0  0  0  0  0  0  0
   -1.7050    1.3432    0.0000 C   0  0  0  0  0  0  0  0  0
   -1.7050    2.1682    0.0000 C   0  0  0  0  0  0  0  0  0
   -0.9906    2.5807    0.0000 C   0  0  0  0  0  0  0  0  0
   -0.2761    2.1682    0.0000 N   0  0  0  0  0  0  0  0  0
   -0.2761    1.3432    0.0000 C   0  0  0  0  0  0  0  0  0
   -0.9906    0.9307    0.0000 C   0  0  0  0  0  0  0  0  0
  1  2  4  0  0  0  0
  1  5  4  0  0  0  0
  2  3  4  0  0  0  0
  3  4  4  0  0  0  0
  3  6  1  0  0  0  0
  4  5  4  0  0  0  0
  6  7  1  0  0  0  0
  7  8  1  0  0  0  0
  7 12  1  0  0  0  0
  8  9  1  0  0  0  0
  9 10  1  0  0  0  0
 10 11  1  0  0  0  0
 11 12  1  0  0  0  0
M  STY  1   1 DAT
M  SAL   1  1   1
M  SDT   1 MRV_IMPLICIT_H                                        
M  SDD   1     0.0000    0.0000    DR    ALL  0       0  
M  SED   1 IMPL_H1
M  END
>  <Name_Molregno>
127416

>  <HISTAMINE H2>
5.5

>  <HISTAMINE H3>
9.28

>  <HISTAMINE H4>
7.41

$$$$
171513
  Marvin  02231216192D 0   1.00000     0.00000     0

 24 26  0  0  1  0  0  0  0  0999 V2000
   -0.3601   -1.4374    0.0000 O   0  0  0  0  0  0  0  0  0
    0.3544   -1.0249    0.0000 C   0  0  0  0  0  0  0  0  0
    1.0689   -1.4374    0.0000 C   0  0  0  0  0  0  0  0  0
    1.7833   -1.0249    0.0000 C   0  0  0  0  0  0  0  0  0
    2.4978   -1.4374    0.0000 N   0  0  0  0  0  0  0  0  0
    3.2515   -1.1019    0.0000 C   0  0  0  0  0  0  0  0  0
    3.8035   -1.7149    0.0000 C   0  0  0  0  0  0  0  0  0
    4.6240   -1.6287    0.0000 O   0  0  0  0  0  0  0  0  0
    3.3910   -2.4294    0.0000 C   0  0  0  0  0  0  0  0  0
    2.5840   -2.2579    0.0000 C   0  0  0  0  0  0  0  0  0
   -1.0746   -1.0249    0.0000 C   0  0  0  0  0  0  0  0  0
   -1.7890   -1.4374    0.0000 C   0  0  0  0  0  0  0  0  0
   -2.5035   -1.0249    0.0000 C   0  0  0  0  0  0  0  0  0
   -2.5035   -0.1999    0.0000 C   0  0  0  0  0  0  0  0  0
   -1.7890    0.2126    0.0000 C   0  0  0  0  0  0  0  0  0
   -1.0746   -0.1999    0.0000 C   0  0  0  0  0  0  0  0  0
   -3.2180    0.2126    0.0000 C   0  0  0  0  0  0  0  0  0
   -3.9324   -0.1999    0.0000 C   0  0  0  0  0  0  0  0  0
   -4.6469    0.2126    0.0000 C   0  0  0  0  0  0  0  0  0
   -4.6469    1.0376    0.0000 C   0  0  0  0  0  0  0  0  0
   -3.9324    1.4501    0.0000 C   0  0  0  0  0  0  0  0  0
   -3.2180    1.0376    0.0000 C   0  0  0  0  0  0  0  0  0
   -5.3614    1.4501    0.0000 C   0  0  0  0  0  0  0  0  0
   -6.0759    1.8626    0.0000 N   0  0  0  0  0  0  0  0  0
  1  2  1  0  0  0  0
  1 11  1  0  0  0  0
  2  3  1  0  0  0  0
  3  4  1  0  0  0  0
  4  5  1  0  0  0  0
  5  6  1  0  0  0  0
  5 10  1  0  0  0  0
  6  7  1  0  0  0  0
  7  8  1  0  0  0  0
  7  9  1  0  0  0  0
  9 10  1  0  0  0  0
 11 12  4  0  0  0  0
 11 16  4  0  0  0  0
 12 13  4  0  0  0  0
 13 14  4  0  0  0  0
 14 15  4  0  0  0  0
 14 17  1  0  0  0  0
 15 16  4  0  0  0  0
 17 18  4  0  0  0  0
 17 22  4  0  0  0  0
 18 19  4  0  0  0  0
 19 20  4  0  0  0  0
 20 21  4  0  0  0  0
 20 23  1  0  0  0  0
 21 22  4  0  0  0  0
 23 24  3  0  0  0  0
M  END
>  <Name_Molregno>
171513

>  <HISTAMINE H1>
5.3

>  <HISTAMINE H2>
4.74

>  <HISTAMINE H3>
7.89

$$$$
171542
  Marvin  02231216192D 0   1.00000     0.00000     0

 25 27  0  0  0  0  0  0  0  0999 V2000
   -0.3383   -1.3274    0.0000 O   0  0  0  0  0  0  0  0  0
    0.3762   -0.9149    0.0000 C   0  0  0  0  0  0  0  0  0
    1.0907   -1.3274    0.0000 C   0  0  0  0  0  0  0  0  0
    1.8051   -0.9149    0.0000 C   0  0  0  0  0  0  0  0  0
    2.5196   -1.3274    0.0000 N   0  0  0  0  0  0  0  0  0
    3.2341   -0.9149    0.0000 C   0  0  0  0  0  0  0  0  0
    3.9485   -1.3274    0.0000 C   0  0  0  0  0  0  0  0  0
    3.9485   -2.1524    0.0000 C   0  0  0  0  0  0  0  0  0
    4.6630   -2.5649    0.0000 N   0  0  0  0  0  0  0  0  0
    3.2341   -2.5649    0.0000 C   0  0  0  0  0  0  0  0  0
    2.5196   -2.1524    0.0000 C   0  0  0  0  0  0  0  0  0
   -1.0528   -0.9149    0.0000 C   0  0  0  0  0  0  0  0  0
   -1.7672   -1.3274    0.0000 C   0  0  0  0  0  0  0  0  0
   -2.4817   -0.9149    0.0000 C   0  0  0  0  0  0  0  0  0
   -2.4817   -0.0899    0.0000 C   0  0  0  0  0  0  0  0  0
   -1.7672    0.3226    0.0000 C   0  0  0  0  0  0  0  0  0
   -1.0528   -0.0899    0.0000 C   0  0  0  0  0  0  0  0  0
   -3.1962    0.3226    0.0000 C   0  0  0  0  0  0  0  0  0
   -3.9106   -0.0899    0.0000 C   0  0  0  0  0  0  0  0  0
   -4.6251    0.3226    0.0000 C   0  0  0  0  0  0  0  0  0
   -4.6251    1.1476    0.0000 C   0  0  0  0  0  0  0  0  0
   -3.9106    1.5601    0.0000 C   0  0  0  0  0  0  0  0  0
   -3.1962    1.1476    0.0000 C   0  0  0  0  0  0  0  0  0
   -5.3396    1.5601    0.0000 C   0  0  0  0  0  0  0  0  0
   -6.0540    1.9726    0.0000 N   0  0  0  0  0  0  0  0  0
  1  2  1  0  0  0  0
  1 12  1  0  0  0  0
  2  3  1  0  0  0  0
  3  4  1  0  0  0  0
  4  5  1  0  0  0  0
  5  6  1  0  0  0  0
  5 11  1  0  0  0  0
  6  7  1  0  0  0  0
  7  8  1  0  0  0  0
  8  9  1  0  0  0  0
  8 10  1  0  0  0  0
 10 11  1  0  0  0  0
 12 13  4  0  0  0  0
 12 17  4  0  0  0  0
 13 14  4  0  0  0  0
 14 15  4  0  0  0  0
 15 16  4  0  0  0  0
 15 18  1  0  0  0  0
 16 17  4  0  0  0  0
 18 19  4  0  0  0  0
 18 23  4  0  0  0  0
 19 20  4  0  0  0  0
 20 21  4  0  0  0  0
 21 22  4  0  0  0  0
 21 24  1  0  0  0  0
 22 23  4  0  0  0  0
 24 25  3  0  0  0  0
M  END
>  <Name_Molregno>
171542

>  <HISTAMINE H1>
5.45

>  <HISTAMINE H2>
4.47

>  <HISTAMINE H3>
6.7

$$$$
171562
  Marvin  02231216192D 0   1.00000     0.00000     0

 28 30  0  0  0  0  0  0  0  0999 V2000
    0.2928    3.1980    0.0000 Cl  0  0  0  0  0  0  0  0  0
    1.0073    2.7855    0.0000 C   0  0  0  0  0  0  0  0  0
    1.7217    3.1980    0.0000 C   0  0  0  0  0  0  0  0  0
    2.4362    2.7855    0.0000 C   0  0  0  0  0  0  0  0  0
    2.4362    1.9605    0.0000 C   0  0  0  0  0  0  0  0  0
    1.7217    1.5480    0.0000 C   0  0  0  0  0  0  0  0  0
    1.0073    1.9605    0.0000 C   0  0  0  0  0  0  0  0  0
    3.1507    1.5480    0.0000 C   0  0  0  0  0  0  0  0  0
    3.8651    1.9605    0.0000 C   0  0  0  0  0  0  0  0  0
    4.5796    1.5480    0.0000 C   0  0  0  0  0  0  0  0  0
    4.5796    0.7230    0.0000 C   0  0  0  0  0  0  0  0  0
    5.2941    0.3105    0.0000 O   0  0  0  0  0  0  0  0  0
    6.0086    0.7230    0.0000 C   0  0  0  0  0  0  0  0  0
    6.7230    0.3105    0.0000 C   0  0  0  0  0  0  0  0  0
    7.4375    0.7230    0.0000 C   0  0  0  0  0  0  0  0  0
    8.1520    0.3105    0.0000 N   0  0  0  0  0  0  0  0  0
    8.8664    0.7230    0.0000 C   0  0  0  0  0  0  0  0  0
    9.5809    0.3105    0.0000 C   0  0  0  0  0  0  0  0  0
    9.5809   -0.5145    0.0000 N   0  0  0  0  0  0  0  0  0
    8.8664   -0.9270    0.0000 C   0  0  0  0  0  0  0  0  0
    8.1520   -0.5145    0.0000 C   0  0  0  0  0  0  0  0  0
   10.2954   -0.9270    0.0000 C   0  0  0  0  0  0  0  0  0
   11.0098   -0.5145    0.0000 O   0  0  0  0  0  0  0  0  0
   11.7243   -0.9270    0.0000 C   0  0  0  0  0  0  0  0  0
   12.4388   -0.5145    0.0000 C   0  0  0  0  0  0  0  0  0
   10.2954   -1.7520    0.0000 O   0  0  0  0  0  0  0  0  0
    3.8651    0.3105    0.0000 C   0  0  0  0  0  0  0  0  0
    3.1507    0.7230    0.0000 C   0  0  0  0  0  0  0  0  0
  1  2  1  0  0  0  0
  2  3  4  0  0  0  0
  2  7  4  0  0  0  0
  3  4  4  0  0  0  0
  4  5  4  0  0  0  0
  5  6  4  0  0  0  0
  5  8  1  0  0  0  0
  6  7  4  0  0  0  0
  8  9  4  0  0  0  0
  8 28  4  0  0  0  0
  9 10  4  0  0  0  0
 10 11  4  0  0  0  0
 11 12  1  0  0  0  0
 11 27  4  0  0  0  0
 12 13  1  0  0  0  0
 13 14  1  0  0  0  0
 14 15  1  0  0  0  0
 15 16  1  0  0  0  0
 16 17  1  0  0  0  0
 16 21  1  0  0  0  0
 17 18  1  0  0  0  0
 18 19  1  0  0  0  0
 19 20  1  0  0  0  0
 19 22  1  0  0  0  0
 20 21  1  0  0  0  0
 22 23  1  0  0  0  0
 22 26  2  0  0  0  0
 23 24  1  0  0  0  0
 24 25  1  0  0  0  0
 27 28  4  0  0  0  0
M  END
>  <Name_Molregno>
171562

>  <HISTAMINE H1>
6.45

>  <HISTAMINE H2>
5.25

$$$$
171604
  Marvin  02231216192D 0   1.00000     0.00000     0

 24 26  0  0  1  0  0  0  0  0999 V2000
   -0.3601   -1.4374    0.0000 O   0  0  0  0  0  0  0  0  0
    0.3544   -1.0249    0.0000 C   0  0  0  0  0  0  0  0  0
    1.0689   -1.4374    0.0000 C   0  0  0  0  0  0  0  0  0
    1.7833   -1.0249    0.0000 C   0  0  0  0  0  0  0  0  0
    2.4978   -1.4374    0.0000 N   0  0  0  0  0  0  0  0  0
    3.2515   -1.1019    0.0000 C   0  0  0  0  0  0  0  0  0
    3.8035   -1.7149    0.0000 C   0  0  0  0  0  0  0  0  0
    4.6240   -1.6287    0.0000 N   0  0  0  0  0  0  0  0  0
    3.3910   -2.4294    0.0000 C   0  0  0  0  0  0  0  0  0
    2.5840   -2.2579    0.0000 C   0  0  0  0  0  0  0  0  0
   -1.0746   -1.0249    0.0000 C   0  0  0  0  0  0  0  0  0
   -1.7890   -1.4374    0.0000 C   0  0  0  0  0  0  0  0  0
   -2.5035   -1.0249    0.0000 C   0  0  0  0  0  0  0  0  0
   -2.5035   -0.1999    0.0000 C   0  0  0  0  0  0  0  0  0
   -1.7890    0.2126    0.0000 C   0  0  0  0  0  0  0  0  0
   -1.0746   -0.1999    0.0000 C   0  0  0  0  0  0  0  0  0
   -3.2180    0.2126    0.0000 C   0  0  0  0  0  0  0  0  0
   -3.9324   -0.1999    0.0000 C   0  0  0  0  0  0  0  0  0
   -4.6469    0.2126    0.0000 C   0  0  0  0  0  0  0  0  0
   -4.6469    1.0376    0.0000 C   0  0  0  0  0  0  0  0  0
   -3.9324    1.4501    0.0000 C   0  0  0  0  0  0  0  0  0
   -3.2180    1.0376    0.0000 C   0  0  0  0  0  0  0  0  0
   -5.3614    1.4501    0.0000 C   0  0  0  0  0  0  0  0  0
   -6.0759    1.8626    0.0000 N   0  0  0  0  0  0  0  0  0
  1  2  1  0  0  0  0
  1 11  1  0  0  0  0
  2  3  1  0  0  0  0
  3  4  1  0  0  0  0
  4  5  1  0  0  0  0
  5  6  1  0  0  0  0
  5 10  1  0  0  0  0
  6  7  1  0  0  0  0
  7  8  1  0  0  0  0
  7  9  1  0  0  0  0
  9 10  1  0  0  0  0
 11 12  4  0  0  0  0
 11 16  4  0  0  0  0
 12 13  4  0  0  0  0
 13 14  4  0  0  0  0
 14 15  4  0  0  0  0
 14 17  1  0  0  0  0
 15 16  4  0  0  0  0
 17 18  4  0  0  0  0
 17 22  4  0  0  0  0
 18 19  4  0  0  0  0
 19 20  4  0  0  0  0
 20 21  4  0  0  0  0
 20 23  1  0  0  0  0
 21 22  4  0  0  0  0
 23 24  3  0  0  0  0
M  END
>  <Name_Molregno>
171604

>  <HISTAMINE H1>
4.86

>  <HISTAMINE H2>
5.13

>  <HISTAMINE H3>
8.21

$$$$
171605
  Marvin  02231216192D 0   1.00000     0.00000     0

 29 31  0  0  0  0  0  0  0  0999 V2000
   -0.6430   -0.8452    0.0000 O   0  0  0  0  0  0  0  0  0
    0.0714   -0.4327    0.0000 C   0  0  0  0  0  0  0  0  0
    0.7859   -0.8452    0.0000 C   0  0  0  0  0  0  0  0  0
    1.5004   -0.4327    0.0000 C   0  0  0  0  0  0  0  0  0
    2.2149   -0.8452    0.0000 N   0  0  0  0  0  0  0  0  0
    2.9293   -0.4327    0.0000 C   0  0  0  0  0  0  0  0  0
    3.6438   -0.8452    0.0000 C   0  0  0  0  0  0  0  0  0
    3.6438   -1.6702    0.0000 N   0  0  0  0  0  0  0  0  0
    2.9293   -2.0827    0.0000 C   0  0  0  0  0  0  0  0  0
    2.2149   -1.6702    0.0000 C   0  0  0  0  0  0  0  0  0
    4.3583   -2.0827    0.0000 C   0  0  0  0  0  0  0  0  0
    4.3583   -2.9077    0.0000 O   0  0  0  0  0  0  0  0  0
    5.0727   -3.3202    0.0000 C   0  0  0  0  0  0  0  0  0
    5.0727   -4.1452    0.0000 C   0  0  0  0  0  0  0  0  0
    5.0727   -1.6702    0.0000 O   0  0  0  0  0  0  0  0  0
   -1.3575   -0.4327    0.0000 C   0  0  0  0  0  0  0  0  0
   -2.0720   -0.8452    0.0000 C   0  0  0  0  0  0  0  0  0
   -2.7864   -0.4327    0.0000 C   0  0  0  0  0  0  0  0  0
   -2.7864    0.3923    0.0000 C   0  0  0  0  0  0  0  0  0
   -2.0720    0.8048    0.0000 C   0  0  0  0  0  0  0  0  0
   -1.3575    0.3923    0.0000 C   0  0  0  0  0  0  0  0  0
   -3.5009    0.8048    0.0000 C   0  0  0  0  0  0  0  0  0
   -4.2154    0.3923    0.0000 C   0  0  0  0  0  0  0  0  0
   -4.9299    0.8048    0.0000 C   0  0  0  0  0  0  0  0  0
   -4.9299    1.6298    0.0000 C   0  0  0  0  0  0  0  0  0
   -4.2154    2.0423    0.0000 C   0  0  0  0  0  0  0  0  0
   -3.5009    1.6298    0.0000 C   0  0  0  0  0  0  0  0  0
   -5.6443    0.3923    0.0000 C   0  0  0  0  0  0  0  0  0
   -6.3588   -0.0202    0.0000 N   0  0  0  0  0  0  0  0  0
  1  2  1  0  0  0  0
  1 16  1  0  0  0  0
  2  3  1  0  0  0  0
  3  4  1  0  0  0  0
  4  5  1  0  0  0  0
  5  6  1  0  0  0  0
  5 10  1  0  0  0  0
  6  7  1  0  0  0  0
  7  8  1  0  0  0  0
  8  9  1  0  0  0  0
  8 11  1  0  0  0  0
  9 10  1  0  0  0  0
 11 12  1  0  0  0  0
 11 15  2  0  0  0  0
 12 13  1  0  0  0  0
 13 14  1  0  0  0  0
 16 17  4  0  0  0  0
 16 21  4  0  0  0  0
 17 18  4  0  0  0  0
 18 19  4  0  0  0  0
 19 20  4  0  0  0  0
 19 22  1  0  0  0  0
 20 21  4  0  0  0  0
 22 23  4  0  0  0  0
 22 27  4  0  0  0  0
 23 24  4  0  0  0  0
 24 25  4  0  0  0  0
 24 28  1  0  0  0  0
 25 26  4  0  0  0  0
 26 27  4  0  0  0  0
 28 29  3  0  0  0  0
M  END
>  <Name_Molregno>
171605

>  <HISTAMINE H1>
6.42

>  <HISTAMINE H2>
4.62

$$$$
171641
  Marvin  02231216192D 0   1.00000     0.00000     0

 30 32  0  0  0  0  0  0  0  0999 V2000
   -0.1084   -0.8174    0.0000 O   0  0  0  0  0  0  0  0  0
    0.6061   -0.4049    0.0000 C   0  0  0  0  0  0  0  0  0
    1.3206   -0.8174    0.0000 C   0  0  0  0  0  0  0  0  0
    2.0351   -0.4049    0.0000 C   0  0  0  0  0  0  0  0  0
    2.7495   -0.8174    0.0000 N   0  0  0  0  0  0  0  0  0
    3.4640   -0.4049    0.0000 C   0  0  0  0  0  0  0  0  0
    4.1785   -0.8174    0.0000 C   0  0  0  0  0  0  0  0  0
    4.1785   -1.6424    0.0000 N   0  0  0  0  0  0  0  0  0
    3.4640   -2.0549    0.0000 C   0  0  0  0  0  0  0  0  0
    2.7495   -1.6424    0.0000 C   0  0  0  0  0  0  0  0  0
    4.8929   -2.0549    0.0000 C   0  0  0  0  0  0  0  0  0
    4.8929   -2.8799    0.0000 O   0  0  0  0  0  0  0  0  0
    5.6074   -3.2924    0.0000 C   0  0  0  0  0  0  0  0  0
    5.6074   -4.1174    0.0000 C   0  0  0  0  0  0  0  0  0
    5.6074   -1.6424    0.0000 O   0  0  0  0  0  0  0  0  0
   -0.8228   -0.4049    0.0000 C   0  0  0  0  0  0  0  0  0
   -1.5373   -0.8174    0.0000 C   0  0  0  0  0  0  0  0  0
   -2.2518   -0.4049    0.0000 C   0  0  0  0  0  0  0  0  0
   -2.2518    0.4201    0.0000 C   0  0  0  0  0  0  0  0  0
   -1.5373    0.8326    0.0000 C   0  0  0  0  0  0  0  0  0
   -0.8228    0.4201    0.0000 C   0  0  0  0  0  0  0  0  0
   -2.9662    0.8326    0.0000 C   0  0  0  0  0  0  0  0  0
   -3.6807    0.4201    0.0000 C   0  0  0  0  0  0  0  0  0
   -4.3952    0.8326    0.0000 C   0  0  0  0  0  0  0  0  0
   -4.3952    1.6576    0.0000 C   0  0  0  0  0  0  0  0  0
   -3.6807    2.0701    0.0000 C   0  0  0  0  0  0  0  0  0
   -2.9662    1.6576    0.0000 C   0  0  0  0  0  0  0  0  0
   -2.2518    2.0701    0.0000 N   0  3  0  0  0  0  0  0  0
   -2.2518    2.8951    0.0000 O   0  5  0  0  0  0  0  0  0
   -1.5373    1.6576    0.0000 O   0  5  0  0  0  0  0  0  0
  1  2  1  0  0  0  0
  1 16  1  0  0  0  0
  2  3  1  0  0  0  0
  3  4  1  0  0  0  0
  4  5  1  0  0  0  0
  5  6  1  0  0  0  0
  5 10  1  0  0  0  0
  6  7  1  0  0  0  0
  7  8  1  0  0  0  0
  8  9  1  0  0  0  0
  8 11  1  0  0  0  0
  9 10  1  0  0  0  0
 11 12  1  0  0  0  0
 11 15  2  0  0  0  0
 12 13  1  0  0  0  0
 13 14  1  0  0  0  0
 16 17  4  0  0  0  0
 16 21  4  0  0  0  0
 17 18  4  0  0  0  0
 18 19  4  0  0  0  0
 19 20  4  0  0  0  0
 19 22  1  0  0  0  0
 20 21  4  0  0  0  0
 22 23  4  0  0  0  0
 22 27  4  0  0  0  0
 23 24  4  0  0  0  0
 24 25  4  0  0  0  0
 25 26  4  0  0  0  0
 26 27  4  0  0  0  0
 27 28  1  0  0  0  0
 28 29  1  0  0  0  0
 28 30  1  0  0  0  0
M  CHG  3  28   1  29  -1  30  -1
M  END
>  <Name_Molregno>
171641

>  <HISTAMINE H1>
6.79

>  <HISTAMINE H2>
5.12

$$$$
171683
  Marvin  02231216192D 0   1.00000     0.00000     0

 30 32  0  0  0  0  0  0  0  0999 V2000
   -0.2806   -1.1676    0.0000 O   0  0  0  0  0  0  0  0  0
    0.4339   -0.7551    0.0000 C   0  0  0  0  0  0  0  0  0
    1.1484   -1.1676    0.0000 C   0  0  0  0  0  0  0  0  0
    1.8628   -0.7551    0.0000 C   0  0  0  0  0  0  0  0  0
    2.5773   -1.1676    0.0000 N   0  0  0  0  0  0  0  0  0
    3.2918   -0.7551    0.0000 C   0  0  0  0  0  0  0  0  0
    4.0063   -1.1676    0.0000 C   0  0  0  0  0  0  0  0  0
    4.0063   -1.9926    0.0000 N   0  0  0  0  0  0  0  0  0
    3.2918   -2.4051    0.0000 C   0  0  0  0  0  0  0  0  0
    2.5773   -1.9926    0.0000 C   0  0  0  0  0  0  0  0  0
    4.7207   -2.4051    0.0000 C   0  0  0  0  0  0  0  0  0
    4.7207   -3.2301    0.0000 O   0  0  0  0  0  0  0  0  0
    5.4352   -3.6426    0.0000 C   0  0  0  0  0  0  0  0  0
    5.4352   -4.4676    0.0000 C   0  0  0  0  0  0  0  0  0
    5.4352   -1.9926    0.0000 O   0  0  0  0  0  0  0  0  0
   -0.9950   -0.7551    0.0000 C   0  0  0  0  0  0  0  0  0
   -1.7095   -1.1676    0.0000 C   0  0  0  0  0  0  0  0  0
   -2.4240   -0.7551    0.0000 C   0  0  0  0  0  0  0  0  0
   -2.4240    0.0699    0.0000 C   0  0  0  0  0  0  0  0  0
   -1.7095    0.4824    0.0000 C   0  0  0  0  0  0  0  0  0
   -0.9950    0.0699    0.0000 C   0  0  0  0  0  0  0  0  0
   -3.1385    0.4824    0.0000 C   0  0  0  0  0  0  0  0  0
   -3.8529    0.0699    0.0000 C   0  0  0  0  0  0  0  0  0
   -4.5674    0.4824    0.0000 C   0  0  0  0  0  0  0  0  0
   -4.5674    1.3074    0.0000 C   0  0  0  0  0  0  0  0  0
   -5.2819    1.7199    0.0000 N   0  3  0  0  0  0  0  0  0
   -5.9963    1.3074    0.0000 O   0  5  0  0  0  0  0  0  0
   -5.2819    2.5449    0.0000 O   0  5  0  0  0  0  0  0  0
   -3.8529    1.7199    0.0000 C   0  0  0  0  0  0  0  0  0
   -3.1385    1.3074    0.0000 C   0  0  0  0  0  0  0  0  0
  1  2  1  0  0  0  0
  1 16  1  0  0  0  0
  2  3  1  0  0  0  0
  3  4  1  0  0  0  0
  4  5  1  0  0  0  0
  5  6  1  0  0  0  0
  5 10  1  0  0  0  0
  6  7  1  0  0  0  0
  7  8  1  0  0  0  0
  8  9  1  0  0  0  0
  8 11  1  0  0  0  0
  9 10  1  0  0  0  0
 11 12  1  0  0  0  0
 11 15  2  0  0  0  0
 12 13  1  0  0  0  0
 13 14  1  0  0  0  0
 16 17  4  0  0  0  0
 16 21  4  0  0  0  0
 17 18  4  0  0  0  0
 18 19  4  0  0  0  0
 19 20  4  0  0  0  0
 19 22  1  0  0  0  0
 20 21  4  0  0  0  0
 22 23  4  0  0  0  0
 22 30  4  0  0  0  0
 23 24  4  0  0  0  0
 24 25  4  0  0  0  0
 25 26  1  0  0  0  0
 25 29  4  0  0  0  0
 26 27  1  0  0  0  0
 26 28  1  0  0  0  0
 29 30  4  0  0  0  0
M  CHG  3  26   1  27  -1  28  -1
M  END
>  <Name_Molregno>
171683

>  <HISTAMINE H1>
7.09

>  <HISTAMINE H2>
5.08

$$$$
199111
  Marvin  02231216192D 0   1.00000     0.00000     0

 14 15  0  0  1  0  0  0  0  0999 V2000
   -0.1663    0.8600    0.0000 N   0  0  0  0  0  0  0  0  0
    0.5482    0.4475    0.0000 C   0  0  0  0  0  0  0  0  0
    1.2627    0.8600    0.0000 C   0  0  0  0  0  0  0  0  0
    1.2627    1.6850    0.0000 C   0  0  0  0  0  0  0  0  0
    1.9771    2.0975    0.0000 C   0  0  0  0  0  0  0  0  0
    2.6916    1.6850    0.0000 C   0  0  0  0  0  0  0  0  0
    2.6916    0.8600    0.0000 C   0  0  0  0  0  0  0  0  0
    1.9771    0.4475    0.0000 C   0  0  0  0  0  0  0  0  0
    1.9771   -0.3775    0.0000 N   0  0  0  0  0  0  0  0  0
    2.6916   -0.7900    0.0000 C   0  0  0  0  0  0  0  0  0
    2.6916   -1.6150    0.0000 C   0  0  0  0  0  0  0  0  0
    1.2627   -0.7900    0.0000 C   0  0  0  0  0  0  0  0  0
    0.5482    2.0975    0.0000 C   0  0  0  0  0  0  0  0  0
   -0.1663    1.6850    0.0000 C   0  0  0  0  0  0  0  0  0
  1  2  4  0  0  0  0
  1 14  4  0  0  0  0
  2  3  4  0  0  0  0
  3  4  4  0  0  0  0
  3  8  1  0  0  0  0
  4  5  1  0  0  0  0
  4 13  4  0  0  0  0
  5  6  1  0  0  0  0
  6  7  1  0  0  0  0
  7  8  1  0  0  0  0
  8  9  1  0  0  0  0
  9 10  1  0  0  0  0
  9 12  1  0  0  0  0
 10 11  1  0  0  0  0
 13 14  4  0  0  0  0
M  END
>  <Name_Molregno>
199111

>  <5-HT1A>
5

>  <5-HT1B>
5

>  <5-HT2C>
5

>  <5-HT3>
5

>  <5-HT5>
5

>  <5-HT6>
5

>  <5-HT7>
5

>  <Beta-1>
5

>  <Beta-2>
5

>  <DOPAMINE D1>
5

>  <DOPAMINE D2>
5

>  <DOPAMINE D3>
5

>  <DOPAMINE D4>
5

>  <DOPAMINE D5>
5

>  <HISTAMINE H1>
5

>  <HISTAMINE H2>
5

>  <Muscarinic acetylcholine receptor M1>
5

>  <Muscarinic acetylcholine receptor M2>
5

>  <Muscarinic acetylcholine receptor M3>
5

>  <Muscarinic acetylcholine receptor M4>
5

>  <Muscarinic acetylcholine receptor M5>
5

$$$$
212343
  Marvin  02231216192D 0   1.00000     0.00000     0

 19 21  0  0  0  0  0  0  0  0999 V2000
    6.7813   -1.7154    0.0000 Cl  0  0  0  0  0  0  0  0  0
    6.0668   -1.3029    0.0000 C   0  0  0  0  0  0  0  0  0
    5.3523   -1.7154    0.0000 C   0  0  0  0  0  0  0  0  0
    4.6379   -1.3029    0.0000 C   0  0  0  0  0  0  0  0  0
    3.8532   -1.5579    0.0000 C   0  0  0  0  0  0  0  0  0
    3.3683   -0.8904    0.0000 C   0  0  0  0  0  0  0  0  0
    3.8532   -0.2230    0.0000 N   0  0  0  0  0  0  0  0  0
    4.6379   -0.4779    0.0000 C   0  0  0  0  0  0  0  0  0
    5.3523   -0.0654    0.0000 C   0  0  0  0  0  0  0  0  0
    6.0668   -0.4779    0.0000 C   0  0  0  0  0  0  0  0  0
    2.5433   -0.8904    0.0000 C   0  0  0  0  0  0  0  0  0
    2.1308   -1.6049    0.0000 O   0  0  0  0  0  0  0  0  0
    2.1308   -0.1760    0.0000 N   0  0  0  0  0  0  0  0  0
    1.3058   -0.1760    0.0000 C   0  0  0  0  0  0  0  0  0
    0.8933    0.5385    0.0000 C   0  0  0  0  0  0  0  0  0
    1.3058    1.2530    0.0000 N   0  0  0  0  0  0  0  0  0
    2.1308    1.2530    0.0000 C   0  0  0  0  0  0  0  0  0
    2.5433    0.5385    0.0000 C   0  0  0  0  0  0  0  0  0
    0.8933    1.9674    0.0000 C   0  0  0  0  0  0  0  0  0
  1  2  1  0  0  0  0
  2  3  4  0  0  0  0
  2 10  4  0  0  0  0
  3  4  4  0  0  0  0
  4  5  4  0  0  0  0
  4  8  4  0  0  0  0
  5  6  4  0  0  0  0
  6  7  4  0  0  0  0
  6 11  1  0  0  0  0
  7  8  4  0  0  0  0
  8  9  4  0  0  0  0
  9 10  4  0  0  0  0
 11 12  2  0  0  0  0
 11 13  1  0  0  0  0
 13 14  1  0  0  0  0
 13 18  1  0  0  0  0
 14 15  1  0  0  0  0
 15 16  1  0  0  0  0
 16 17  1  0  0  0  0
 16 19  1  0  0  0  0
 17 18  1  0  0  0  0
M  STY  1   1 DAT
M  SAL   1  1   7
M  SDT   1 MRV_IMPLICIT_H                                        
M  SDD   1     0.0000    0.0000    DR    ALL  0       0  
M  SED   1 IMPL_H1
M  END
>  <Name_Molregno>
212343

>  <HISTAMINE H1>
6.01

>  <HISTAMINE H2>
5.07

>  <HISTAMINE H3>
5.57

>  <HISTAMINE H4>
7.94

$$$$
323303
  Marvin  02231216192D 0   1.00000     0.00000     0

 26 30  0  0  1  0  0  0  0  0999 V2000
    6.6579   -0.3987    0.0000 N   0  0  0  0  0  0  0  0  0
    6.9801   -1.1582    0.0000 C   0  0  0  0  0  0  0  0  0
    7.1544    0.2601    0.0000 C   0  0  0  0  0  0  0  0  0
    5.8390   -0.2981    0.0000 C   0  0  0  0  0  0  0  0  0
    5.5167    0.4614    0.0000 C   0  0  0  0  0  0  0  0  0
    4.6979    0.5620    0.0000 C   0  0  0  0  0  0  0  0  0
    4.3756    1.3214    0.0000 C   0  0  0  0  0  0  0  0  0
    3.5568    1.4220    0.0000 C   0  0  0  0  0  0  0  0  0
    3.0602    0.7632    0.0000 C   0  0  0  0  0  0  0  0  0
    3.3825    0.0038    0.0000 C   0  0  0  0  0  0  0  0  0
    2.8859   -0.6551    0.0000 C   0  0  0  0  0  0  0  0  0
    2.0671   -0.5544    0.0000 C   0  0  0  0  0  0  0  0  0
    1.7448    0.2050    0.0000 C   0  0  0  0  0  0  0  0  0
    0.9648    0.4737    0.0000 C   0  0  0  0  0  0  0  0  0
    0.9793    1.2985    0.0000 C   0  0  0  0  0  0  0  0  0
    1.7682    1.5397    0.0000 C   0  0  0  0  0  0  0  0  0
    2.2414    0.8638    0.0000 C   0  0  0  0  0  0  0  0  0
    0.4682   -0.1852    0.0000 C   0  0  0  0  0  0  0  0  0
    0.9414   -0.8610    0.0000 N   0  0  0  0  0  0  0  0  0
    1.7303   -0.6199    0.0000 C   0  0  0  0  0  0  0  0  0
    0.6727   -1.6410    0.0000 C   0  0  0  0  0  0  0  0  0
   -0.3566   -0.1707    0.0000 C   0  0  0  0  0  0  0  0  0
    4.2013   -0.0968    0.0000 C   0  0  0  0  0  0  0  0  0
    4.5236   -0.8563    0.0000 C   0  0  0  0  0  0  0  0  0
    5.3425   -0.9569    0.0000 C   0  0  0  0  0  0  0  0  0
    3.7048   -0.7557    0.0000 C   0  0  0  0  0  0  0  0  0
  1  2  1  0  0  0  0
  1  3  1  0  0  0  0
  1  4  1  0  0  0  0
  4  5  1  0  0  0  0
  4 25  1  0  0  0  0
  5  6  1  0  0  0  0
  6  7  2  0  0  0  0
  6 23  1  0  0  0  0
  7  8  1  0  0  0  0
  8  9  1  0  0  0  0
  9 10  1  0  0  0  0
  9 17  1  0  0  0  0
 10 11  1  0  0  0  0
 10 23  1  0  0  0  0
 11 12  1  0  0  0  0
 12 13  1  0  0  0  0
 13 14  1  0  0  0  0
 13 17  1  0  0  0  0
 13 20  1  0  0  0  0
 14 15  1  0  0  0  0
 14 18  1  0  0  0  0
 15 16  1  0  0  0  0
 16 17  1  0  0  0  0
 18 19  1  0  0  0  0
 18 22  1  0  0  0  0
 19 20  1  0  0  0  0
 19 21  1  0  0  0  0
 23 24  1  0  0  0  0
 23 26  1  0  0  0  0
 24 25  1  0  0  0  0
M  END
>  <Name_Molregno>
323303

>  <Alpha-2A>
6.18

>  <Alpha-2C>
7.97

>  <HISTAMINE H1>
5

>  <HISTAMINE H2>
5

>  <HISTAMINE H3>
8.31

>  <HISTAMINE H4>
5

$$$$
335202
  Marvin  02231216192D 0   1.00000     0.00000     0

 31 34  0  0  0  0  0  0  0  0999 V2000
   -5.3316    5.4643    0.0000 O   0  0  0  0  0  0  0  0  0
   -6.0461    5.8768    0.0000 C   0  0  0  0  0  0  0  0  0
   -4.6172    5.8768    0.0000 C   0  0  0  0  0  0  0  0  0
   -3.9027    5.4643    0.0000 C   0  0  0  0  0  0  0  0  0
   -3.1882    5.8768    0.0000 C   0  0  0  0  0  0  0  0  0
   -3.1882    6.7018    0.0000 C   0  0  0  0  0  0  0  0  0
   -3.9027    7.1143    0.0000 C   0  0  0  0  0  0  0  0  0
   -4.6172    6.7018    0.0000 C   0  0  0  0  0  0  0  0  0
   -2.4737    7.1143    0.0000 C   0  0  0  0  0  0  0  0  0
   -1.7593    6.7018    0.0000 C   0  0  0  0  0  0  0  0  0
   -1.7593    5.8768    0.0000 C   0  0  0  0  0  0  0  0  0
   -2.4737    5.4643    0.0000 C   0  0  0  0  0  0  0  0  0
   -2.4737    4.6393    0.0000 N   0  0  0  0  0  0  0  0  0
   -1.7593    4.2268    0.0000 C   0  0  0  0  0  0  0  0  0
   -1.7593    3.4018    0.0000 C   0  0  0  0  0  0  0  0  0
   -2.4737    2.9893    0.0000 N   0  0  0  0  0  0  0  0  0
   -3.1882    3.4018    0.0000 C   0  0  0  0  0  0  0  0  0
   -3.1882    4.2268    0.0000 C   0  0  0  0  0  0  0  0  0
   -2.4737    2.1643    0.0000 C   0  0  0  0  0  0  0  0  0
   -1.7593    1.7518    0.0000 C   0  0  0  0  0  0  0  0  0
   -1.7593    0.9268    0.0000 C   0  0  0  0  0  0  0  0  0
   -1.0448    0.5143    0.0000 C   0  0  0  0  0  0  0  0  0
   -1.0448   -0.3107    0.0000 N   0  0  0  0  0  0  0  0  0
   -0.3303   -0.7232    0.0000 N   0  0  0  0  0  0  0  0  0
   -0.3303   -1.5482    0.0000 C   0  0  0  0  0  0  0  0  0
   -1.0448   -1.9607    0.0000 C   0  0  0  0  0  0  0  0  0
   -1.0448   -2.7857    0.0000 O   0  0  0  0  0  0  0  0  0
   -1.7593   -1.5482    0.0000 N   0  0  0  0  0  0  0  0  0
   -2.4737   -1.9607    0.0000 C   0  0  0  0  0  0  0  0  0
   -1.7593   -0.7232    0.0000 C   0  0  0  0  0  0  0  0  0
   -2.4737   -0.3107    0.0000 O   0  0  0  0  0  0  0  0  0
  1  2  1  0  0  0  0
  1  3  1  0  0  0  0
  3  4  4  0  0  0  0
  3  8  4  0  0  0  0
  4  5  4  0  0  0  0
  5  6  4  0  0  0  0
  5 12  4  0  0  0  0
  6  7  4  0  0  0  0
  6  9  4  0  0  0  0
  7  8  4  0  0  0  0
  9 10  4  0  0  0  0
 10 11  4  0  0  0  0
 11 12  4  0  0  0  0
 12 13  1  0  0  0  0
 13 14  1  0  0  0  0
 13 18  1  0  0  0  0
 14 15  1  0  0  0  0
 15 16  1  0  0  0  0
 16 17  1  0  0  0  0
 16 19  1  0  0  0  0
 17 18  1  0  0  0  0
 19 20  1  0  0  0  0
 20 21  1  0  0  0  0
 21 22  1  0  0  0  0
 22 23  1  0  0  0  0
 23 24  1  0  0  0  0
 23 30  1  0  0  0  0
 24 25  2  0  0  0  0
 25 26  1  0  0  0  0
 26 27  2  0  0  0  0
 26 28  1  0  0  0  0
 28 29  1  0  0  0  0
 28 30  1  0  0  0  0
 30 31  2  0  0  0  0
M  END
>  <Name_Molregno>
335202

>  <5-HT1A>
8.87

>  <5-HT2A>
7.38

>  <5-HT2C>
7

>  <5-HT3>
5

>  <5-HT5>
6.64

>  <5-HT6>
6.92

>  <5-HT7>
8.04

>  <Alpha-2A>
5.99

>  <Alpha-2B>
6.5

>  <Alpha-2C>
7.63

>  <Beta-1>
6.32

>  <Beta-2>
7.22

>  <DOPAMINE D1>
5.13

>  <DOPAMINE D2>
7.66

>  <DOPAMINE D3>
7.2

>  <DOPAMINE D4>
8.07

>  <DOPAMINE D5>
5

>  <Dopamine transporter>
6.39

>  <HISTAMINE H1>
6.82

>  <HISTAMINE H2>
6.52

>  <HISTAMINE H3>
5

>  <HISTAMINE H4>
5

>  <Norepinephrine transporter>
5.16

>  <Serotonin transporter>
5.21

$$$$
344371
  Marvin  02231216192D 0   1.00000     0.00000     0

 27 29  0  0  0  0  0  0  0  0999 V2000
   -8.3424    3.5017    0.0000 O   0  0  0  0  0  0  0  0  0
   -9.0569    3.9142    0.0000 C   0  0  0  0  0  0  0  0  0
   -8.3424    2.6767    0.0000 C   0  0  0  0  0  0  0  0  0
   -7.6279    2.2642    0.0000 C   0  0  0  0  0  0  0  0  0
   -7.6279    1.4392    0.0000 C   0  0  0  0  0  0  0  0  0
   -6.9134    1.0267    0.0000 N   0  0  0  0  0  0  0  0  0
   -6.1990    1.4392    0.0000 C   0  0  0  0  0  0  0  0  0
   -5.4845    1.0267    0.0000 C   0  0  0  0  0  0  0  0  0
   -5.4845    0.2017    0.0000 N   0  0  0  0  0  0  0  0  0
   -6.1990   -0.2108    0.0000 C   0  0  0  0  0  0  0  0  0
   -6.9134    0.2017    0.0000 C   0  0  0  0  0  0  0  0  0
   -4.7700   -0.2108    0.0000 C   0  0  0  0  0  0  0  0  0
   -4.0556    0.2017    0.0000 C   0  0  0  0  0  0  0  0  0
   -3.3411   -0.2108    0.0000 C   0  0  0  0  0  0  0  0  0
   -2.6266    0.2017    0.0000 C   0  0  0  0  0  0  0  0  0
   -1.9121   -0.2108    0.0000 N   0  0  0  0  0  0  0  0  0
   -1.1977    0.2017    0.0000 N   0  0  0  0  0  0  0  0  0
   -0.4832   -0.2108    0.0000 C   0  0  0  0  0  0  0  0  0
   -0.4832   -1.0358    0.0000 C   0  0  0  0  0  0  0  0  0
    0.2313   -1.4483    0.0000 O   0  0  0  0  0  0  0  0  0
   -1.1977   -1.4483    0.0000 N   0  0  0  0  0  0  0  0  0
   -1.1977   -2.2733    0.0000 C   0  0  0  0  0  0  0  0  0
   -1.9121   -1.0358    0.0000 C   0  0  0  0  0  0  0  0  0
   -2.6266   -1.4483    0.0000 O   0  0  0  0  0  0  0  0  0
   -8.3424    1.0267    0.0000 C   0  0  0  0  0  0  0  0  0
   -9.0569    1.4392    0.0000 C   0  0  0  0  0  0  0  0  0
   -9.0569    2.2642    0.0000 C   0  0  0  0  0  0  0  0  0
  1  2  1  0  0  0  0
  1  3  1  0  0  0  0
  3  4  4  0  0  0  0
  3 27  4  0  0  0  0
  4  5  4  0  0  0  0
  5  6  1  0  0  0  0
  5 25  4  0  0  0  0
  6  7  1  0  0  0  0
  6 11  1  0  0  0  0
  7  8  1  0  0  0  0
  8  9  1  0  0  0  0
  9 10  1  0  0  0  0
  9 12  1  0  0  0  0
 10 11  1  0  0  0  0
 12 13  1  0  0  0  0
 13 14  1  0  0  0  0
 14 15  1  0  0  0  0
 15 16  1  0  0  0  0
 16 17  1  0  0  0  0
 16 23  1  0  0  0  0
 17 18  2  0  0  0  0
 18 19  1  0  0  0  0
 19 20  2  0  0  0  0
 19 21  1  0  0  0  0
 21 22  1  0  0  0  0
 21 23  1  0  0  0  0
 23 24  2  0  0  0  0
 25 26  4  0  0  0  0
 26 27  4  0  0  0  0
M  END
>  <Name_Molregno>
344371

>  <5-HT1A>
8.96

>  <5-HT1B>
6.64

>  <5-HT1E>
5

>  <5-HT2A>
5.68

>  <5-HT3>
5

>  <5-HT5>
5

>  <5-HT6>
5

>  <5-HT7>
6.48

>  <Alpha-1A>
6.38

>  <Alpha-1B>
6.42

>  <Alpha-2A>
6.6

>  <Alpha-2C>
6.96

>  <DOPAMINE D2>
5.59

>  <DOPAMINE D3>
5

>  <DOPAMINE D4>
5

>  <DOPAMINE D5>
5

>  <Dopamine transporter>
5

>  <HISTAMINE H1>
6.08

>  <HISTAMINE H2>
5.67

>  <HISTAMINE H3>
5

>  <HISTAMINE H4>
5

>  <Norepinephrine transporter>
5

>  <Serotonin transporter>
5

$$$$
349376
  Marvin  02231216192D 0   1.00000     0.00000     0

 41 45  0  0  0  0  0  0  0  0999 V2000
   -2.4600    1.8818    0.0000 O   0  0  0  0  0  0  0  0  0
   -2.7149    1.0971    0.0000 C   0  0  0  0  0  0  0  0  0
   -3.5399    1.0971    0.0000 C   0  0  0  0  0  0  0  0  0
   -3.7949    1.8818    0.0000 C   0  0  0  0  0  0  0  0  0
   -3.1274    2.3667    0.0000 C   0  0  0  0  0  0  0  0  0
   -3.1274    3.1917    0.0000 O   0  0  0  0  0  0  0  0  0
   -3.8419    3.6042    0.0000 C   0  0  0  0  0  0  0  0  0
   -4.5564    3.1917    0.0000 C   0  0  0  0  0  0  0  0  0
   -5.2709    3.6042    0.0000 C   0  0  0  0  0  0  0  0  0
   -5.2709    4.4292    0.0000 C   0  0  0  0  0  0  0  0  0
   -4.5564    4.8417    0.0000 C   0  0  0  0  0  0  0  0  0
   -3.8419    4.4292    0.0000 C   0  0  0  0  0  0  0  0  0
   -3.1274    4.8417    0.0000 C   0  0  0  0  0  0  0  0  0
   -6.0555    4.6841    0.0000 C   0  0  0  0  0  0  0  0  0
   -6.5404    4.0167    0.0000 C   0  0  0  0  0  0  0  0  0
   -6.0555    3.3492    0.0000 C   0  0  0  0  0  0  0  0  0
   -5.8924    2.5405    0.0000 C   0  0  0  0  0  0  0  0  0
   -6.6628    2.7908    0.0000 C   0  0  0  0  0  0  0  0  0
   -2.2300    0.4297    0.0000 C   0  0  0  0  0  0  0  0  0
   -2.5656   -0.3240    0.0000 O   0  0  0  0  0  0  0  0  0
   -1.4095    0.5159    0.0000 N   0  0  0  0  0  0  0  0  0
   -0.9246   -0.1515    0.0000 C   0  0  0  0  0  0  0  0  0
   -0.1041   -0.0653    0.0000 C   0  0  0  0  0  0  0  0  0
    0.2314    0.6884    0.0000 O   0  0  0  0  0  0  0  0  0
    1.0519    0.7746    0.0000 C   0  0  0  0  0  0  0  0  0
    0.3808   -0.7327    0.0000 N   0  0  0  0  0  0  0  0  0
    0.0452   -1.4864    0.0000 C   0  0  0  0  0  0  0  0  0
   -0.7753   -1.5726    0.0000 N   0  0  0  0  0  0  0  0  0
   -1.2602   -0.9052    0.0000 C   0  0  0  0  0  0  0  0  0
   -2.0807   -0.9914    0.0000 O   0  0  0  0  0  0  0  0  0
   -2.4162   -1.7451    0.0000 C   0  0  0  0  0  0  0  0  0
    0.5302   -2.1538    0.0000 N   0  0  0  0  0  0  0  0  0
    1.3506   -2.0676    0.0000 C   0  0  0  0  0  0  0  0  0
    1.8356   -2.7350    0.0000 C   0  0  0  0  0  0  0  0  0
    2.6560   -2.6488    0.0000 C   0  0  0  0  0  0  0  0  0
    3.1410   -3.3162    0.0000 N   0  0  0  0  0  0  0  0  0
    3.9614   -3.2300    0.0000 C   0  0  0  0  0  0  0  0  0
    4.4464   -3.8974    0.0000 C   0  0  0  0  0  0  0  0  0
    4.1108   -4.6511    0.0000 O   0  0  0  0  0  0  0  0  0
    3.2903   -4.7373    0.0000 C   0  0  0  0  0  0  0  0  0
    2.8054   -4.0699    0.0000 C   0  0  0  0  0  0  0  0  0
  1  2  4  0  0  0  0
  1  5  4  0  0  0  0
  2  3  4  0  0  0  0
  2 19  1  0  0  0  0
  3  4  4  0  0  0  0
  4  5  4  0  0  0  0
  5  6  1  0  0  0  0
  6  7  1  0  0  0  0
  7  8  4  0  0  0  0
  7 12  4  0  0  0  0
  8  9  4  0  0  0  0
  9 10  4  0  0  0  0
  9 16  1  0  0  0  0
 10 11  4  0  0  0  0
 10 14  1  0  0  0  0
 11 12  4  0  0  0  0
 12 13  1  0  0  0  0
 14 15  1  0  0  0  0
 15 16  1  0  0  0  0
 16 17  1  0  0  0  0
 16 18  1  0  0  0  0
 19 20  2  0  0  0  0
 19 21  1  0  0  0  0
 21 22  1  0  0  0  0
 22 23  4  0  0  0  0
 22 29  4  0  0  0  0
 23 24  1  0  0  0  0
 23 26  4  0  0  0  0
 24 25  1  0  0  0  0
 26 27  4  0  0  0  0
 27 28  4  0  0  0  0
 27 32  1  0  0  0  0
 28 29  4  0  0  0  0
 29 30  1  0  0  0  0
 30 31  1  0  0  0  0
 32 33  1  0  0  0  0
 33 34  1  0  0  0  0
 34 35  1  0  0  0  0
 35 36  1  0  0  0  0
 36 37  1  0  0  0  0
 36 41  1  0  0  0  0
 37 38  1  0  0  0  0
 38 39  1  0  0  0  0
 39 40  1  0  0  0  0
 40 41  1  0  0  0  0
M  END
>  <Name_Molregno>
349376

>  <5-HT2A>
6.23

>  <5-HT2C>
6.02

>  <5-HT7>
5.76

>  <DOPAMINE D1>
5.79

>  <DOPAMINE D3>
5.93

>  <DOPAMINE D4>
5.6

>  <Dopamine transporter>
5.74

>  <HISTAMINE H2>
5.91

>  <Muscarinic acetylcholine receptor M1>
5.39

>  <Muscarinic acetylcholine receptor M4>
5.43

>  <Norepinephrine transporter>
5.29

>  <Serotonin transporter>
5.84

$$$$
353070
  Marvin  02231216192D 0   1.00000     0.00000     0

 23 26  0  0  0  0  0  0  0  0999 V2000
    0.4642    2.7256    0.0000 Cl  0  0  0  0  0  0  0  0  0
    1.0689    2.1644    0.0000 C   0  0  0  0  0  0  0  0  0
    1.8573    2.4076    0.0000 C   0  0  0  0  0  0  0  0  0
    2.4620    1.8465    0.0000 C   0  0  0  0  0  0  0  0  0
    3.2053    2.2044    0.0000 O   0  0  0  0  0  0  0  0  0
    3.9486    1.8465    0.0000 C   0  0  0  0  0  0  0  0  0
    4.1322    1.0422    0.0000 C   0  0  0  0  0  0  0  0  0
    4.9206    0.7990    0.0000 C   0  0  0  0  0  0  0  0  0
    5.5253    1.3601    0.0000 C   0  0  0  0  0  0  0  0  0
    5.3418    2.1644    0.0000 C   0  0  0  0  0  0  0  0  0
    4.5534    2.4076    0.0000 C   0  0  0  0  0  0  0  0  0
    3.6178    0.3972    0.0000 C   0  0  0  0  0  0  0  0  0
    2.7928    0.3972    0.0000 N   0  0  0  0  0  0  0  0  0
    2.2785    1.0422    0.0000 C   0  0  0  0  0  0  0  0  0
    1.4901    0.7990    0.0000 C   0  0  0  0  0  0  0  0  0
    0.8853    1.3601    0.0000 C   0  0  0  0  0  0  0  0  0
    3.9758   -0.3461    0.0000 N   0  0  0  0  0  0  0  0  0
    4.7985   -0.4078    0.0000 C   0  0  0  0  0  0  0  0  0
    5.1564   -1.1511    0.0000 C   0  0  0  0  0  0  0  0  0
    4.6917   -1.8327    0.0000 N   0  0  0  0  0  0  0  0  0
    3.8690   -1.7711    0.0000 C   0  0  0  0  0  0  0  0  0
    3.5111   -1.0278    0.0000 C   0  0  0  0  0  0  0  0  0
    5.0497   -2.5760    0.0000 C   0  0  0  0  0  0  0  0  0
  1  2  1  0  0  0  0
  2  3  4  0  0  0  0
  2 16  4  0  0  0  0
  3  4  4  0  0  0  0
  4  5  1  0  0  0  0
  4 14  4  0  0  0  0
  5  6  1  0  0  0  0
  6  7  4  0  0  0  0
  6 11  4  0  0  0  0
  7  8  4  0  0  0  0
  7 12  1  0  0  0  0
  8  9  4  0  0  0  0
  9 10  4  0  0  0  0
 10 11  4  0  0  0  0
 12 13  2  0  0  0  0
 12 17  1  0  0  0  0
 13 14  1  0  0  0  0
 14 15  4  0  0  0  0
 15 16  4  0  0  0  0
 17 18  1  0  0  0  0
 17 22  1  0  0  0  0
 18 19  1  0  0  0  0
 19 20  1  0  0  0  0
 20 21  1  0  0  0  0
 20 23  1  0  0  0  0
 21 22  1  0  0  0  0
M  END
>  <Name_Molregno>
353070

>  <HISTAMINE H1>
8.11

>  <HISTAMINE H2>
5.06

>  <HISTAMINE H3>
5.04

>  <HISTAMINE H4>
7.57

$$$$
382415
  Marvin  02231216192D 0   1.00000     0.00000     0

 18 19  0  0  0  0  0  0  0  0999 V2000
   -0.7360    1.4792    0.0000 S   0  0  0  0  0  0  0  0  0
   -0.9909    0.6946    0.0000 C   0  0  0  0  0  0  0  0  0
   -1.8159    0.6946    0.0000 C   0  0  0  0  0  0  0  0  0
   -2.0709    1.4792    0.0000 N   0  0  0  0  0  0  0  0  0
   -1.4034    1.9642    0.0000 C   0  0  0  0  0  0  0  0  0
   -1.4034    2.7892    0.0000 C   0  0  0  0  0  0  0  0  0
   -0.6890    3.2017    0.0000 F   0  0  0  0  0  0  0  0  0
   -2.3008    0.0272    0.0000 C   0  0  0  0  0  0  0  0  0
   -2.7858   -0.6403    0.0000 C   0  0  0  0  0  0  0  0  0
   -3.2707   -1.3077    0.0000 C   0  0  0  0  0  0  0  0  0
   -2.9351   -2.0614    0.0000 C   0  0  0  0  0  0  0  0  0
   -3.4201   -2.7288    0.0000 C   0  0  0  0  0  0  0  0  0
   -4.2405   -2.6426    0.0000 C   0  0  0  0  0  0  0  0  0
   -4.5761   -1.8889    0.0000 C   0  0  0  0  0  0  0  0  0
   -5.3966   -1.8027    0.0000 F   0  0  0  0  0  0  0  0  0
   -4.0912   -1.2215    0.0000 C   0  0  0  0  0  0  0  0  0
   -3.0845   -3.4825    0.0000 C   0  0  0  0  0  0  0  0  0
   -2.7489   -4.2362    0.0000 N   0  0  0  0  0  0  0  0  0
  1  2  4  0  0  0  0
  1  5  4  0  0  0  0
  2  3  4  0  0  0  0
  3  4  4  0  0  0  0
  3  8  1  0  0  0  0
  4  5  4  0  0  0  0
  5  6  1  0  0  0  0
  6  7  1  0  0  0  0
  8  9  3  0  0  0  0
  9 10  1  0  0  0  0
 10 11  4  0  0  0  0
 10 16  4  0  0  0  0
 11 12  4  0  0  0  0
 12 13  4  0  0  0  0
 12 17  1  0  0  0  0
 13 14  4  0  0  0  0
 14 15  1  0  0  0  0
 14 16  4  0  0  0  0
 17 18  3  0  0  0  0
M  END
>  <Name_Molregno>
382415

>  <5-HT1A>
5

>  <5-HT1B>
5

>  <5-HT1D>
5

>  <5-HT1E>
5

>  <5-HT2A>
5

>  <5-HT2C>
5

>  <5-HT3>
5

>  <5-HT5>
5

>  <5-HT6>
5

>  <5-HT7>
5

>  <Alpha-1A>
5

>  <Alpha-1B>
5

>  <Alpha-2A>
5

>  <Alpha-2B>
5

>  <Alpha-2C>
5

>  <Beta-1>
5

>  <Beta-2>
5

>  <DOPAMINE D1>
5

>  <DOPAMINE D2>
5

>  <DOPAMINE D3>
5

>  <DOPAMINE D4>
5

>  <DOPAMINE D5>
5

>  <Dopamine transporter>
5

>  <HISTAMINE H1>
5

>  <HISTAMINE H2>
5

>  <HISTAMINE H3>
5

>  <HISTAMINE H4>
5

>  <Muscarinic acetylcholine receptor M1>
5

>  <Muscarinic acetylcholine receptor M2>
5

>  <Muscarinic acetylcholine receptor M3>
5

>  <Muscarinic acetylcholine receptor M4>
5

>  <Muscarinic acetylcholine receptor M5>
5

>  <Norepinephrine transporter>
5

>  <Serotonin transporter>
5

$$$$
389011
  Marvin  02231216192D 0   1.00000     0.00000     0

 25 26  0  0  1  0  0  0  0  0999 V2000
   -2.9244    1.8604    0.0000 S   0  0  0  0  0  0  0  0  0
   -3.7494    1.8604    0.0000 O   0  0  0  0  0  0  0  0  0
   -2.0994    1.8604    0.0000 O   0  0  0  0  0  0  0  0  0
   -2.9244    2.6854    0.0000 C   0  0  0  0  0  0  0  0  0
   -3.6388    3.0979    0.0000 C   0  0  0  0  0  0  0  0  0
   -2.9244    1.0354    0.0000 C   0  0  0  0  0  0  0  0  0
   -2.2099    0.6229    0.0000 C   0  0  0  0  0  0  0  0  0
   -2.2099   -0.2021    0.0000 C   0  0  0  0  0  0  0  0  0
   -1.4954   -0.6146    0.0000 C   0  0  0  0  0  0  0  0  0
   -0.7810   -0.2021    0.0000 O   0  0  0  0  0  0  0  0  0
   -1.4954   -1.4396    0.0000 N   0  0  0  0  0  0  0  0  0
   -0.7810   -1.8521    0.0000 C   0  0  0  0  0  0  0  0  0
   -0.7810   -2.6771    0.0000 C   0  0  0  0  0  0  0  0  0
   -0.1135   -3.1620    0.0000 N   0  0  0  0  0  0  0  0  0
   -0.3685   -3.9466    0.0000 C   0  0  0  0  0  0  0  0  0
   -1.1935   -3.9466    0.0000 C   0  0  0  0  0  0  0  0  0
   -1.4484   -3.1620    0.0000 C   0  0  0  0  0  0  0  0  0
    0.6711   -2.9071    0.0000 C   0  0  0  0  0  0  0  0  0
    1.2842   -3.4591    0.0000 C   0  0  0  0  0  0  0  0  0
   -2.9244   -0.6146    0.0000 C   0  0  0  0  0  0  0  0  0
   -2.9244   -1.4396    0.0000 O   0  0  0  0  0  0  0  0  0
   -3.6388   -1.8521    0.0000 C   0  0  0  0  0  0  0  0  0
   -3.6388   -0.2021    0.0000 C   0  0  0  0  0  0  0  0  0
   -3.6388    0.6229    0.0000 C   0  0  0  0  0  0  0  0  0
   -4.3533    1.0354    0.0000 N   0  0  0  0  0  0  0  0  0
  1  2  2  0  0  0  0
  1  3  2  0  0  0  0
  1  4  1  0  0  0  0
  1  6  1  0  0  0  0
  4  5  1  0  0  0  0
  6  7  4  0  0  0  0
  6 24  4  0  0  0  0
  7  8  4  0  0  0  0
  8  9  1  0  0  0  0
  8 20  4  0  0  0  0
  9 10  2  0  0  0  0
  9 11  1  0  0  0  0
 11 12  1  0  0  0  0
 12 13  1  0  0  0  0
 13 14  1  0  0  0  0
 13 17  1  0  0  0  0
 14 15  1  0  0  0  0
 14 18  1  0  0  0  0
 15 16  1  0  0  0  0
 16 17  1  0  0  0  0
 18 19  1  0  0  0  0
 20 21  1  0  0  0  0
 20 23  4  0  0  0  0
 21 22  1  0  0  0  0
 23 24  4  0  0  0  0
 24 25  1  0  0  0  0
M  END
>  <Name_Molregno>
389011

>  <5-HT1A>
5

>  <5-HT1B>
5.76

>  <5-HT1D>
5.87

>  <5-HT1E>
5

>  <5-HT2A>
5.64

>  <5-HT2C>
5

>  <5-HT3>
5

>  <5-HT5>
5

>  <5-HT6>
5.38

>  <5-HT7>
7.47

>  <Alpha-1A>
5

>  <Alpha-1B>
5

>  <Alpha-2A>
5.95

>  <Alpha-2C>
5.81

>  <Beta-1>
5

>  <Beta-2>
5

>  <DOPAMINE D1>
5

>  <DOPAMINE D2>
8.71

>  <DOPAMINE D3>
8.51

>  <DOPAMINE D4>
5.63

>  <DOPAMINE D5>
5

>  <Dopamine transporter>
5

>  <HISTAMINE H1>
5

>  <HISTAMINE H2>
5

>  <HISTAMINE H4>
5

>  <Muscarinic acetylcholine receptor M1>
5

>  <Muscarinic acetylcholine receptor M2>
5

>  <Muscarinic acetylcholine receptor M3>
5

>  <Muscarinic acetylcholine receptor M4>
5

>  <Muscarinic acetylcholine receptor M5>
5

>  <Norepinephrine transporter>
5

>  <Serotonin transporter>
5

$$$$
429662
  Marvin  02231216192D 0   1.00000     0.00000     0

 20 22  0  0  0  0  0  0  0  0999 V2000
    2.1499    0.3508    0.0000 S   0  0  0  0  0  0  0  0  0
    1.4354   -0.0617    0.0000 C   0  0  0  0  0  0  0  0  0
    0.7210    0.3508    0.0000 N   0  0  0  0  0  0  0  0  0
    0.7210    1.1758    0.0000 C   0  0  0  0  0  0  0  0  0
    0.0065    1.5883    0.0000 C   0  0  0  0  0  0  0  0  0
    0.0065    2.4133    0.0000 C   0  0  0  0  0  0  0  0  0
    0.7210    2.8258    0.0000 C   0  0  0  0  0  0  0  0  0
    1.4354    2.4133    0.0000 C   0  0  0  0  0  0  0  0  0
    1.4354    1.5883    0.0000 C   0  0  0  0  0  0  0  0  0
    1.4354   -0.8867    0.0000 N   0  0  0  0  0  0  0  0  0
    2.1499   -1.2992    0.0000 C   0  0  0  0  0  0  0  0  0
    2.1499   -2.1242    0.0000 C   0  0  0  0  0  0  0  0  0
    1.4354   -2.5367    0.0000 C   0  0  0  0  0  0  0  0  0
    0.7210   -2.1242    0.0000 C   0  0  0  0  0  0  0  0  0
    0.7210   -1.2992    0.0000 C   0  0  0  0  0  0  0  0  0
    1.4354   -3.3617    0.0000 C   0  0  0  0  0  0  0  0  0
    2.1029   -3.8467    0.0000 N   0  0  0  0  0  0  0  0  0
    1.8479   -4.6313    0.0000 C   0  0  0  0  0  0  0  0  0
    1.0229   -4.6313    0.0000 N   0  0  0  0  0  0  0  0  0
    0.7680   -3.8467    0.0000 C   0  0  0  0  0  0  0  0  0
  1  2  2  0  0  0  0
  2  3  1  0  0  0  0
  2 10  1  0  0  0  0
  3  4  1  0  0  0  0
  4  5  1  0  0  0  0
  4  9  1  0  0  0  0
  5  6  1  0  0  0  0
  6  7  1  0  0  0  0
  7  8  1  0  0  0  0
  8  9  1  0  0  0  0
 10 11  1  0  0  0  0
 10 15  1  0  0  0  0
 11 12  1  0  0  0  0
 12 13  1  0  0  0  0
 13 14  1  0  0  0  0
 13 16  1  0  0  0  0
 14 15  1  0  0  0  0
 16 17  4  0  0  0  0
 16 20  4  0  0  0  0
 17 18  4  0  0  0  0
 18 19  4  0  0  0  0
 19 20  4  0  0  0  0
M  STY  1   1 DAT
M  SAL   1  1  17
M  SDT   1 MRV_IMPLICIT_H                                        
M  SDD   1     0.0000    0.0000    DR    ALL  0       0  
M  SED   1 IMPL_H1
M  END
>  <Name_Molregno>
429662

>  <Alpha-2A>
6.9

>  <Alpha-2C>
6.46

>  <HISTAMINE H1>
5

>  <HISTAMINE H2>
5

>  <HISTAMINE H3>
7.2

>  <HISTAMINE H4>
7.22

>  <Muscarinic acetylcholine receptor M3>
5

$$$$
437622
  Marvin  02231216192D 0   1.00000     0.00000     0

 29 31  0  0  1  0  0  0  0  0999 V2000
    4.6273    6.8992    0.0000 F   0  0  0  0  0  0  0  0  0
    4.6273    6.0742    0.0000 C   0  0  0  0  0  0  0  0  0
    5.3417    5.6617    0.0000 C   0  0  0  0  0  0  0  0  0
    5.3417    4.8367    0.0000 C   0  0  0  0  0  0  0  0  0
    4.6273    4.4242    0.0000 C   0  0  0  0  0  0  0  0  0
    3.9128    4.8367    0.0000 C   0  0  0  0  0  0  0  0  0
    3.9128    5.6617    0.0000 C   0  0  0  0  0  0  0  0  0
    4.6273    3.5992    0.0000 C   0  0  0  0  0  0  0  0  0
    5.3417    3.1867    0.0000 C   0  0  0  0  0  0  0  0  0
    5.3417    2.3617    0.0000 N   0  0  0  0  0  0  0  0  0
    6.0562    1.9492    0.0000 C   0  0  0  0  0  0  0  0  0
    6.0562    1.1242    0.0000 C   0  0  0  0  0  0  0  0  0
    5.3417    0.7117    0.0000 C   0  0  0  0  0  0  0  0  0
    4.6273    1.1242    0.0000 C   0  0  0  0  0  0  0  0  0
    4.6273    1.9492    0.0000 C   0  0  0  0  0  0  0  0  0
    5.3417   -0.1133    0.0000 C   0  0  0  0  0  0  0  0  0
    4.6273   -0.5258    0.0000 O   0  0  0  0  0  0  0  0  0
    6.0562   -0.5258    0.0000 C   0  0  0  0  0  0  0  0  0
    6.7707   -0.1133    0.0000 C   0  0  0  0  0  0  0  0  0
    7.4851   -0.5258    0.0000 C   0  0  0  0  0  0  0  0  0
    7.4851   -1.3508    0.0000 C   0  0  0  0  0  0  0  0  0
    6.7707   -1.7633    0.0000 C   0  0  0  0  0  0  0  0  0
    6.7707   -2.5883    0.0000 O   0  0  0  0  0  0  0  0  0
    7.4851   -3.0008    0.0000 C   0  0  0  0  0  0  0  0  0
    7.4851   -3.8258    0.0000 C   0  0  0  0  0  0  0  0  0
    8.1996   -4.2383    0.0000 F   0  0  0  0  0  0  0  0  0
    6.0562   -1.3508    0.0000 C   0  0  0  0  0  0  0  0  0
    5.3417   -1.7633    0.0000 O   0  0  0  0  0  0  0  0  0
    5.3417   -2.5883    0.0000 C   0  0  0  0  0  0  0  0  0
  1  2  1  0  0  0  0
  2  3  4  0  0  0  0
  2  7  4  0  0  0  0
  3  4  4  0  0  0  0
  4  5  4  0  0  0  0
  5  6  4  0  0  0  0
  5  8  1  0  0  0  0
  6  7  4  0  0  0  0
  8  9  1  0  0  0  0
  9 10  1  0  0  0  0
 10 11  1  0  0  0  0
 10 15  1  0  0  0  0
 11 12  1  0  0  0  0
 12 13  1  0  0  0  0
 13 14  1  0  0  0  0
 13 16  1  0  0  0  0
 14 15  1  0  0  0  0
 16 17  1  0  0  0  0
 16 18  1  0  0  0  0
 18 19  4  0  0  0  0
 18 27  4  0  0  0  0
 19 20  4  0  0  0  0
 20 21  4  0  0  0  0
 21 22  4  0  0  0  0
 22 23  1  0  0  0  0
 22 27  4  0  0  0  0
 23 24  1  0  0  0  0
 24 25  1  0  0  0  0
 25 26  1  0  0  0  0
 27 28  1  0  0  0  0
 28 29  1  0  0  0  0
M  END
>  <Name_Molregno>
437622

>  <5-HT1A>
5

>  <5-HT1B>
5.89

>  <5-HT1D>
6.06

>  <5-HT1E>
5

>  <5-HT2C>
7.22

>  <5-HT3>
5

>  <5-HT5>
5.09

>  <5-HT6>
5.41

>  <5-HT7>
7.09

>  <Alpha-1A>
6.47

>  <Alpha-1B>
6.4

>  <Alpha-2A>
5

>  <Alpha-2C>
6.83

>  <DOPAMINE D1>
5.74

>  <DOPAMINE D2>
5.29

>  <DOPAMINE D4>
6.31

>  <DOPAMINE D5>
5.13

>  <Dopamine transporter>
5

>  <HISTAMINE H1>
6.36

>  <HISTAMINE H2>
5.56

>  <HISTAMINE H3>
5

>  <Serotonin transporter>
5.55

$$$$
451337
  Marvin  02231216192D 0   1.00000     0.00000     0

 33 37  0  0  1  0  0  0  0  0999 V2000
    4.7376   -1.4397    0.0000 O   0  0  0  0  0  0  0  0  0
    5.2341   -0.7809    0.0000 C   0  0  0  0  0  0  0  0  0
    4.9119   -0.0215    0.0000 N   0  0  0  0  0  0  0  0  0
    5.4084    0.6374    0.0000 C   0  0  0  0  0  0  0  0  0
    4.0930    0.0792    0.0000 C   0  0  0  0  0  0  0  0  0
    3.7707    0.8386    0.0000 C   0  0  0  0  0  0  0  0  0
    2.9519    0.9392    0.0000 C   0  0  0  0  0  0  0  0  0
    2.6296    1.6987    0.0000 C   0  0  0  0  0  0  0  0  0
    1.8108    1.7993    0.0000 C   0  0  0  0  0  0  0  0  0
    1.3142    1.1405    0.0000 C   0  0  0  0  0  0  0  0  0
    1.6365    0.3810    0.0000 C   0  0  0  0  0  0  0  0  0
    1.1399   -0.2778    0.0000 C   0  0  0  0  0  0  0  0  0
    0.3211   -0.1772    0.0000 C   0  0  0  0  0  0  0  0  0
   -0.0012    0.5823    0.0000 C   0  0  0  0  0  0  0  0  0
   -0.7812    0.8509    0.0000 C   0  0  0  0  0  0  0  0  0
   -0.7667    1.6758    0.0000 C   0  0  0  0  0  0  0  0  0
    0.0222    1.9169    0.0000 C   0  0  0  0  0  0  0  0  0
    0.4954    1.2411    0.0000 C   0  0  0  0  0  0  0  0  0
   -1.2778    0.1921    0.0000 C   0  0  0  0  0  0  0  0  0
   -0.8046   -0.4837    0.0000 N   0  0  0  0  0  0  0  0  0
   -0.0157   -0.2426    0.0000 C   0  0  0  0  0  0  0  0  0
   -1.0733   -1.2638    0.0000 C   0  0  0  0  0  0  0  0  0
   -2.1026    0.2066    0.0000 C   0  0  0  0  0  0  0  0  0
    2.4553    0.2804    0.0000 C   0  0  0  0  0  0  0  0  0
    2.7776   -0.4790    0.0000 C   0  0  0  0  0  0  0  0  0
    3.5965   -0.5797    0.0000 C   0  0  0  0  0  0  0  0  0
    1.9588   -0.3784    0.0000 C   0  0  0  0  0  0  0  0  0
    6.0530   -0.8815    0.0000 C   0  0  0  0  0  0  0  0  0
    6.3753   -1.6410    0.0000 N   0  0  0  0  0  0  0  0  0
    7.1941   -1.7416    0.0000 C   0  0  0  0  0  0  0  0  0
    6.5495   -0.2227    0.0000 C   0  0  0  0  0  0  0  0  0
    6.2273    0.5368    0.0000 C   0  0  0  0  0  0  0  0  0
    7.3684   -0.3233    0.0000 C   0  0  0  0  0  0  0  0  0
  1  2  2  0  0  0  0
  2  3  1  0  0  0  0
  2 28  1  0  0  0  0
  3  4  1  0  0  0  0
  3  5  1  0  0  0  0
  5  6  1  0  0  0  0
  5 26  1  0  0  0  0
  6  7  1  0  0  0  0
  7  8  2  0  0  0  0
  7 24  1  0  0  0  0
  8  9  1  0  0  0  0
  9 10  1  0  0  0  0
 10 11  1  0  0  0  0
 10 18  1  0  0  0  0
 11 12  1  0  0  0  0
 11 24  1  0  0  0  0
 12 13  1  0  0  0  0
 13 14  1  0  0  0  0
 14 15  1  0  0  0  0
 14 18  1  0  0  0  0
 14 21  1  0  0  0  0
 15 16  1  0  0  0  0
 15 19  1  0  0  0  0
 16 17  1  0  0  0  0
 17 18  1  0  0  0  0
 19 20  1  0  0  0  0
 19 23  1  0  0  0  0
 20 21  1  0  0  0  0
 20 22  1  0  0  0  0
 24 25  1  0  0  0  0
 24 27  1  0  0  0  0
 25 26  1  0  0  0  0
 28 29  1  0  0  0  0
 28 31  1  0  0  0  0
 29 30  1  0  0  0  0
 31 32  1  0  0  0  0
 31 33  1  0  0  0  0
M  END
>  <Name_Molregno>
451337

>  <Alpha-2C>
7.11

>  <HISTAMINE H1>
5

>  <HISTAMINE H2>
5

>  <HISTAMINE H3>
9.68

>  <HISTAMINE H4>
5

$$$$
470836
  Marvin  02231216192D 0   1.00000     0.00000     0

 33 36  0  0  0  0  0  0  0  0999 V2000
    0.2813   -0.6889    0.0000 Cl  0  0  0  0  0  0  0  0  0
    1.0290   -1.0375    0.0000 C   0  0  0  0  0  0  0  0  0
    1.7048   -0.5643    0.0000 C   0  0  0  0  0  0  0  0  0
    2.4525   -0.9130    0.0000 C   0  0  0  0  0  0  0  0  0
    2.5244   -1.7348    0.0000 C   0  0  0  0  0  0  0  0  0
    1.8486   -2.2080    0.0000 C   0  0  0  0  0  0  0  0  0
    1.1009   -1.8594    0.0000 C   0  0  0  0  0  0  0  0  0
    3.2721   -2.0835    0.0000 C   0  0  0  0  0  0  0  0  0
    2.7989   -2.7593    0.0000 O   0  0  0  0  0  0  0  0  0
    3.4856   -1.2866    0.0000 C   0  0  0  0  0  0  0  0  0
    4.2825   -1.0731    0.0000 C   0  0  0  0  0  0  0  0  0
    4.8659   -1.6564    0.0000 N   0  0  0  0  0  0  0  0  0
    4.6523   -2.4533    0.0000 C   0  0  0  0  0  0  0  0  0
    3.8555   -2.6669    0.0000 C   0  0  0  0  0  0  0  0  0
    5.6628   -1.4429    0.0000 C   0  0  0  0  0  0  0  0  0
    5.8763   -0.6460    0.0000 C   0  0  0  0  0  0  0  0  0
    6.6732   -0.4325    0.0000 C   0  0  0  0  0  0  0  0  0
    6.8867   -1.2294    0.0000 C   0  0  0  0  0  0  0  0  0
    6.3033   -1.8128    0.0000 O   0  0  0  0  0  0  0  0  0
    7.6836   -1.4429    0.0000 N   0  0  0  0  0  0  0  0  0
    7.8971   -2.2398    0.0000 C   0  0  0  0  0  0  0  0  0
    7.4701   -0.2190    0.0000 C   0  0  0  0  0  0  0  0  0
    7.6836    0.5779    0.0000 C   0  0  0  0  0  0  0  0  0
    8.4805    0.7914    0.0000 C   0  0  0  0  0  0  0  0  0
    9.0638    0.2081    0.0000 C   0  0  0  0  0  0  0  0  0
    8.8503   -0.5888    0.0000 C   0  0  0  0  0  0  0  0  0
    8.0534   -0.8023    0.0000 C   0  0  0  0  0  0  0  0  0
    6.4596    0.3644    0.0000 C   0  0  0  0  0  0  0  0  0
    5.6628    0.5779    0.0000 C   0  0  0  0  0  0  0  0  0
    5.4492    1.3748    0.0000 C   0  0  0  0  0  0  0  0  0
    6.0326    1.9582    0.0000 C   0  0  0  0  0  0  0  0  0
    6.8295    1.7446    0.0000 C   0  0  0  0  0  0  0  0  0
    7.0430    0.9477    0.0000 C   0  0  0  0  0  0  0  0  0
  1  2  1  0  0  0  0
  2  3  4  0  0  0  0
  2  7  4  0  0  0  0
  3  4  4  0  0  0  0
  4  5  4  0  0  0  0
  5  6  4  0  0  0  0
  5  8  1  0  0  0  0
  6  7  4  0  0  0  0
  8  9  1  0  0  0  0
  8 10  1  0  0  0  0
  8 14  1  0  0  0  0
 10 11  1  0  0  0  0
 11 12  1  0  0  0  0
 12 13  1  0  0  0  0
 12 15  1  0  0  0  0
 13 14  1  0  0  0  0
 15 16  1  0  0  0  0
 16 17  1  0  0  0  0
 17 18  1  0  0  0  0
 17 22  1  0  0  0  0
 17 28  1  0  0  0  0
 18 19  2  0  0  0  0
 18 20  1  0  0  0  0
 20 21  1  0  0  0  0
 22 23  4  0  0  0  0
 22 27  4  0  0  0  0
 23 24  4  0  0  0  0
 24 25  4  0  0  0  0
 25 26  4  0  0  0  0
 26 27  4  0  0  0  0
 28 29  4  0  0  0  0
 28 33  4  0  0  0  0
 29 30  4  0  0  0  0
 30 31  4  0  0  0  0
 31 32  4  0  0  0  0
 32 33  4  0  0  0  0
M  END
>  <Name_Molregno>
470836

>  <HISTAMINE H1>
8.38

>  <HISTAMINE H2>
8.77

>  <HISTAMINE H3>
8.03

>  <Serotonin transporter>
8.21

$$$$
470977
  Marvin  02231216192D 0   1.00000     0.00000     0

 32 35  0  0  1  0  0  0  0  0999 V2000
    3.7862    5.6117    0.0000 Cl  0  0  0  0  0  0  0  0  0
    3.7862    4.7867    0.0000 C   0  0  0  0  0  0  0  0  0
    4.5007    4.3742    0.0000 C   0  0  0  0  0  0  0  0  0
    4.5007    3.5492    0.0000 C   0  0  0  0  0  0  0  0  0
    3.7862    3.1367    0.0000 C   0  0  0  0  0  0  0  0  0
    3.0717    3.5492    0.0000 C   0  0  0  0  0  0  0  0  0
    3.0717    4.3742    0.0000 C   0  0  0  0  0  0  0  0  0
    3.7862    2.3117    0.0000 C   0  0  0  0  0  0  0  0  0
    4.4536    1.8268    0.0000 N   0  0  0  0  0  0  0  0  0
    4.1987    1.0422    0.0000 N   0  0  0  0  0  0  0  0  0
    3.3737    1.0422    0.0000 C   0  0  0  0  0  0  0  0  0
    3.1188    1.8268    0.0000 C   0  0  0  0  0  0  0  0  0
    2.3341    2.0817    0.0000 C   0  0  0  0  0  0  0  0  0
    1.7211    1.5297    0.0000 C   0  0  0  0  0  0  0  0  0
    0.9364    1.7846    0.0000 C   0  0  0  0  0  0  0  0  0
    0.7649    2.5916    0.0000 C   0  0  0  0  0  0  0  0  0
    1.3780    3.1436    0.0000 C   0  0  0  0  0  0  0  0  0
    2.1626    2.8887    0.0000 C   0  0  0  0  0  0  0  0  0
    4.6836    0.3747    0.0000 C   0  0  0  0  0  0  0  0  0
    5.5041    0.4610    0.0000 N   0  0  0  0  0  0  0  0  0
    5.9890   -0.2065    0.0000 S   0  0  0  0  0  0  0  0  0
    5.3216   -0.6914    0.0000 O   0  0  0  0  0  0  0  0  0
    6.6565    0.2785    0.0000 O   0  0  0  0  0  0  0  0  0
    6.4740   -0.8739    0.0000 C   0  0  0  0  0  0  0  0  0
    7.2944   -0.7877    0.0000 C   0  0  0  0  0  0  0  0  0
    7.7794   -1.4551    0.0000 C   0  0  0  0  0  0  0  0  0
    7.4438   -2.2088    0.0000 C   0  0  0  0  0  0  0  0  0
    6.6233   -2.2950    0.0000 C   0  0  0  0  0  0  0  0  0
    6.1384   -1.6276    0.0000 C   0  0  0  0  0  0  0  0  0
    7.9287   -2.8762    0.0000 C   0  0  0  0  0  0  0  0  0
    8.4136   -3.5437    0.0000 N   0  0  0  0  0  0  0  0  0
    4.3481   -0.3789    0.0000 N   0  0  0  0  0  0  0  0  0
  1  2  1  0  0  0  0
  2  3  4  0  0  0  0
  2  7  4  0  0  0  0
  3  4  4  0  0  0  0
  4  5  4  0  0  0  0
  5  6  4  0  0  0  0
  5  8  1  0  0  0  0
  6  7  4  0  0  0  0
  8  9  2  0  0  0  0
  8 12  1  0  0  0  0
  9 10  1  0  0  0  0
 10 11  1  0  0  0  0
 10 19  1  0  0  0  0
 11 12  1  0  0  0  0
 12 13  1  0  0  0  0
 13 14  4  0  0  0  0
 13 18  4  0  0  0  0
 14 15  4  0  0  0  0
 15 16  4  0  0  0  0
 16 17  4  0  0  0  0
 17 18  4  0  0  0  0
 19 20  2  0  0  0  0
 19 32  1  0  0  0  0
 20 21  1  0  0  0  0
 21 22  2  0  0  0  0
 21 23  2  0  0  0  0
 21 24  1  0  0  0  0
 24 25  4  0  0  0  0
 24 29  4  0  0  0  0
 25 26  4  0  0  0  0
 26 27  4  0  0  0  0
 27 28  4  0  0  0  0
 27 30  1  0  0  0  0
 28 29  4  0  0  0  0
 30 31  3  0  0  0  0
M  END
>  <Name_Molregno>
470977

>  <5-HT2A>
5.11

>  <HISTAMINE H2>
5

>  <HISTAMINE H3>
5

$$$$
476356
  Marvin  02231216192D 0   1.00000     0.00000     0

 36 41  0  0  0  0  0  0  0  0999 V2000
   -0.2332    0.3819    0.0000 N   0  0  0  0  0  0  0  0  0
    0.3799   -0.1701    0.0000 C   0  0  0  0  0  0  0  0  0
    1.0944    0.2424    0.0000 C   0  0  0  0  0  0  0  0  0
    0.9229    1.0493    0.0000 N   0  0  0  0  0  0  0  0  0
    0.1024    1.1356    0.0000 C   0  0  0  0  0  0  0  0  0
   -0.3101    1.8500    0.0000 C   0  0  0  0  0  0  0  0  0
   -1.1351    1.8500    0.0000 C   0  0  0  0  0  0  0  0  0
   -1.5476    2.5645    0.0000 C   0  0  0  0  0  0  0  0  0
   -1.1351    3.2790    0.0000 C   0  0  0  0  0  0  0  0  0
   -0.3101    3.2790    0.0000 C   0  0  0  0  0  0  0  0  0
    0.1024    2.5645    0.0000 C   0  0  0  0  0  0  0  0  0
   -1.5476    3.9934    0.0000 C   0  0  0  0  0  0  0  0  0
   -1.9601    4.7079    0.0000 C   0  0  0  0  0  0  0  0  0
   -2.2621    3.5809    0.0000 C   0  0  0  0  0  0  0  0  0
   -0.8331    4.4059    0.0000 C   0  0  0  0  0  0  0  0  0
    1.8089   -0.1701    0.0000 C   0  0  0  0  0  0  0  0  0
    2.5233    0.2424    0.0000 N   0  0  0  0  0  0  0  0  0
    2.5233    1.0674    0.0000 C   0  0  0  0  0  0  0  0  0
    3.2378    1.4799    0.0000 C   0  0  0  0  0  0  0  0  0
    3.9523    1.0674    0.0000 N   0  0  0  0  0  0  0  0  0
    3.9523    0.2424    0.0000 C   0  0  0  0  0  0  0  0  0
    3.2378   -0.1701    0.0000 C   0  0  0  0  0  0  0  0  0
    4.6668    1.4799    0.0000 C   0  0  0  0  0  0  0  0  0
    5.3812    1.0674    0.0000 C   0  0  0  0  0  0  0  0  0
    6.0957    1.4799    0.0000 C   0  0  0  0  0  0  0  0  0
    6.8102    1.0674    0.0000 C   0  0  0  0  0  0  0  0  0
    7.5246    1.4799    0.0000 N   0  0  0  0  0  0  0  0  0
    8.2391    1.0674    0.0000 C   0  0  0  0  0  0  0  0  0
    8.2391    0.2424    0.0000 C   0  0  0  0  0  0  0  0  0
    7.5246   -0.1701    0.0000 N   0  0  0  0  0  0  0  0  0
    6.8102    0.2424    0.0000 C   0  0  0  0  0  0  0  0  0
    6.0957   -0.1701    0.0000 C   0  0  0  0  0  0  0  0  0
    5.3812    0.2424    0.0000 C   0  0  0  0  0  0  0  0  0
    1.8089   -0.9951    0.0000 C   0  0  0  0  0  0  0  0  0
    1.0944   -1.4076    0.0000 C   0  0  0  0  0  0  0  0  0
    0.3799   -0.9951    0.0000 C   0  0  0  0  0  0  0  0  0
  1  2  4  0  0  0  0
  1  5  4  0  0  0  0
  2  3  4  0  0  0  0
  2 36  4  0  0  0  0
  3  4  4  0  0  0  0
  3 16  4  0  0  0  0
  4  5  4  0  0  0  0
  5  6  1  0  0  0  0
  6  7  4  0  0  0  0
  6 11  4  0  0  0  0
  7  8  4  0  0  0  0
  8  9  4  0  0  0  0
  9 10  4  0  0  0  0
  9 12  1  0  0  0  0
 10 11  4  0  0  0  0
 12 13  1  0  0  0  0
 12 14  1  0  0  0  0
 12 15  1  0  0  0  0
 16 17  1  0  0  0  0
 16 34  4  0  0  0  0
 17 18  1  0  0  0  0
 17 22  1  0  0  0  0
 18 19  1  0  0  0  0
 19 20  1  0  0  0  0
 20 21  1  0  0  0  0
 20 23  1  0  0  0  0
 21 22  1  0  0  0  0
 23 24  1  0  0  0  0
 24 25  4  0  0  0  0
 24 33  4  0  0  0  0
 25 26  4  0  0  0  0
 26 27  4  0  0  0  0
 26 31  4  0  0  0  0
 27 28  4  0  0  0  0
 28 29  4  0  0  0  0
 29 30  4  0  0  0  0
 30 31  4  0  0  0  0
 31 32  4  0  0  0  0
 32 33  4  0  0  0  0
 34 35  4  0  0  0  0
 35 36  4  0  0  0  0
M  STY  1   1 DAT
M  SAL   1  1   1
M  SDT   1 MRV_IMPLICIT_H                                        
M  SDD   1     0.0000    0.0000    DR    ALL  0       0  
M  SED   1 IMPL_H1
M  END
>  <Name_Molregno>
476356

>  <HISTAMINE H2>
6.07

$$$$
498962
  Marvin  02231216192D 0   1.00000     0.00000     0

 29 31  0  0  0  0  0  0  0  0999 V2000
    4.6273    6.8992    0.0000 F   0  0  0  0  0  0  0  0  0
    4.6273    6.0742    0.0000 C   0  0  0  0  0  0  0  0  0
    5.3417    5.6617    0.0000 C   0  0  0  0  0  0  0  0  0
    5.3417    4.8367    0.0000 C   0  0  0  0  0  0  0  0  0
    4.6273    4.4242    0.0000 C   0  0  0  0  0  0  0  0  0
    3.9128    4.8367    0.0000 C   0  0  0  0  0  0  0  0  0
    3.9128    5.6617    0.0000 C   0  0  0  0  0  0  0  0  0
    4.6273    3.5992    0.0000 C   0  0  0  0  0  0  0  0  0
    5.3417    3.1867    0.0000 C   0  0  0  0  0  0  0  0  0
    5.3417    2.3617    0.0000 N   0  0  0  0  0  0  0  0  0
    6.0562    1.9492    0.0000 C   0  0  0  0  0  0  0  0  0
    6.0562    1.1242    0.0000 C   0  0  0  0  0  0  0  0  0
    5.3417    0.7117    0.0000 C   0  0  0  0  0  0  0  0  0
    4.6273    1.1242    0.0000 C   0  0  0  0  0  0  0  0  0
    4.6273    1.9492    0.0000 C   0  0  0  0  0  0  0  0  0
    5.3417   -0.1133    0.0000 C   0  0  0  0  0  0  0  0  0
    4.6273   -0.5258    0.0000 O   0  0  0  0  0  0  0  0  0
    6.0562   -0.5258    0.0000 C   0  0  0  0  0  0  0  0  0
    6.7707   -0.1133    0.0000 C   0  0  0  0  0  0  0  0  0
    7.4851   -0.5258    0.0000 C   0  0  0  0  0  0  0  0  0
    7.4851   -1.3508    0.0000 C   0  0  0  0  0  0  0  0  0
    6.7707   -1.7633    0.0000 C   0  0  0  0  0  0  0  0  0
    6.7707   -2.5883    0.0000 O   0  0  0  0  0  0  0  0  0
    7.4851   -3.0008    0.0000 C   0  0  0  0  0  0  0  0  0
    7.4851   -3.8258    0.0000 C   0  0  0  0  0  0  0  0  0
    8.1996   -4.2383    0.0000 F   0  0  0  0  0  0  0  0  0
    6.0562   -1.3508    0.0000 C   0  0  0  0  0  0  0  0  0
    5.3417   -1.7633    0.0000 O   0  0  0  0  0  0  0  0  0
    5.3417   -2.5883    0.0000 C   0  0  0  0  0  0  0  0  0
  1  2  1  0  0  0  0
  2  3  4  0  0  0  0
  2  7  4  0  0  0  0
  3  4  4  0  0  0  0
  4  5  4  0  0  0  0
  5  6  4  0  0  0  0
  5  8  1  0  0  0  0
  6  7  4  0  0  0  0
  8  9  1  0  0  0  0
  9 10  1  0  0  0  0
 10 11  1  0  0  0  0
 10 15  1  0  0  0  0
 11 12  1  0  0  0  0
 12 13  1  0  0  0  0
 13 14  1  0  0  0  0
 13 16  1  0  0  0  0
 14 15  1  0  0  0  0
 16 17  2  0  0  0  0
 16 18  1  0  0  0  0
 18 19  4  0  0  0  0
 18 27  4  0  0  0  0
 19 20  4  0  0  0  0
 20 21  4  0  0  0  0
 21 22  4  0  0  0  0
 22 23  1  0  0  0  0
 22 27  4  0  0  0  0
 23 24  1  0  0  0  0
 24 25  1  0  0  0  0
 25 26  1  0  0  0  0
 27 28  1  0  0  0  0
 28 29  1  0  0  0  0
M  END
>  <Name_Molregno>
498962

>  <5-HT1A>
5.77

>  <5-HT1B>
5.66

>  <5-HT1D>
6.15

>  <5-HT1E>
5

>  <5-HT2C>
6.89

>  <5-HT3>
5

>  <5-HT5>
5.8

>  <5-HT6>
5

>  <5-HT7>
6.68

>  <Alpha-1A>
6.84

>  <Alpha-1B>
6.26

>  <Alpha-2A>
6.06

>  <Alpha-2C>
6.48

>  <DOPAMINE D1>
5.85

>  <DOPAMINE D2>
5.42

>  <DOPAMINE D4>
6.76

>  <DOPAMINE D5>
5.13

>  <Dopamine transporter>
5

>  <HISTAMINE H1>
6.03

>  <HISTAMINE H2>
5.76

>  <HISTAMINE H3>
5

>  <Serotonin transporter>
5.51

$$$$
498964
  Marvin  02231216192D 0   1.00000     0.00000     0

 29 31  0  0  1  0  0  0  0  0999 V2000
    7.7806    5.8078    0.0000 F   0  0  0  0  0  0  0  0  0
    7.0662    5.3953    0.0000 C   0  0  0  0  0  0  0  0  0
    7.0662    4.5703    0.0000 C   0  0  0  0  0  0  0  0  0
    6.3517    4.1578    0.0000 O   0  0  0  0  0  0  0  0  0
    6.3517    3.3328    0.0000 C   0  0  0  0  0  0  0  0  0
    7.0662    2.9203    0.0000 C   0  0  0  0  0  0  0  0  0
    7.0662    2.0953    0.0000 C   0  0  0  0  0  0  0  0  0
    6.3517    1.6828    0.0000 C   0  0  0  0  0  0  0  0  0
    5.6372    2.0953    0.0000 C   0  0  0  0  0  0  0  0  0
    4.9227    1.6828    0.0000 C   0  0  0  0  0  0  0  0  0
    4.2083    2.0953    0.0000 O   0  0  0  0  0  0  0  0  0
    4.9227    0.8578    0.0000 C   0  0  0  0  0  0  0  0  0
    5.6372    0.4453    0.0000 C   0  0  0  0  0  0  0  0  0
    5.6372   -0.3797    0.0000 C   0  0  0  0  0  0  0  0  0
    4.9227   -0.7922    0.0000 N   0  0  0  0  0  0  0  0  0
    4.2083   -0.3797    0.0000 C   0  0  0  0  0  0  0  0  0
    4.2083    0.4453    0.0000 C   0  0  0  0  0  0  0  0  0
    4.9227   -1.6172    0.0000 C   0  0  0  0  0  0  0  0  0
    5.6372   -2.0297    0.0000 C   0  0  0  0  0  0  0  0  0
    5.6372   -2.8547    0.0000 C   0  0  0  0  0  0  0  0  0
    6.3517   -3.2672    0.0000 C   0  0  0  0  0  0  0  0  0
    6.3517   -4.0922    0.0000 C   0  0  0  0  0  0  0  0  0
    5.6372   -4.5047    0.0000 C   0  0  0  0  0  0  0  0  0
    4.9227   -4.0922    0.0000 C   0  0  0  0  0  0  0  0  0
    4.9227   -3.2672    0.0000 C   0  0  0  0  0  0  0  0  0
    5.6372   -5.3297    0.0000 C   0  0  0  0  0  0  0  0  0
    5.6372    2.9203    0.0000 C   0  0  0  0  0  0  0  0  0
    4.9227    3.3328    0.0000 O   0  0  0  0  0  0  0  0  0
    4.2083    2.9203    0.0000 C   0  0  0  0  0  0  0  0  0
  1  2  1  0  0  0  0
  2  3  1  0  0  0  0
  3  4  1  0  0  0  0
  4  5  1  0  0  0  0
  5  6  4  0  0  0  0
  5 27  4  0  0  0  0
  6  7  4  0  0  0  0
  7  8  4  0  0  0  0
  8  9  4  0  0  0  0
  9 10  1  0  0  0  0
  9 27  4  0  0  0  0
 10 11  1  0  0  0  0
 10 12  1  0  0  0  0
 12 13  1  0  0  0  0
 12 17  1  0  0  0  0
 13 14  1  0  0  0  0
 14 15  1  0  0  0  0
 15 16  1  0  0  0  0
 15 18  1  0  0  0  0
 16 17  1  0  0  0  0
 18 19  1  0  0  0  0
 19 20  1  0  0  0  0
 20 21  4  0  0  0  0
 20 25  4  0  0  0  0
 21 22  4  0  0  0  0
 22 23  4  0  0  0  0
 23 24  4  0  0  0  0
 23 26  1  0  0  0  0
 24 25  4  0  0  0  0
 27 28  1  0  0  0  0
 28 29  1  0  0  0  0
M  END
>  <Name_Molregno>
498964

>  <5-HT1A>
5

>  <5-HT1B>
5.31

>  <5-HT1D>
5.84

>  <5-HT1E>
5

>  <5-HT2C>
6.29

>  <5-HT3>
5

>  <5-HT5>
5

>  <5-HT6>
5

>  <5-HT7>
6.3

>  <Alpha-1B>
5

>  <Alpha-2A>
5

>  <Alpha-2C>
6.84

>  <DOPAMINE D1>
5.75

>  <DOPAMINE D2>
5

>  <DOPAMINE D4>
5.57

>  <Dopamine transporter>
5

>  <HISTAMINE H1>
6.36

>  <HISTAMINE H2>
5.94

>  <HISTAMINE H3>
5

>  <Serotonin transporter>
5.58

$$$$
499028
  Marvin  02231216192D 0   1.00000     0.00000     0

 29 31  0  0  0  0  0  0  0  0999 V2000
    7.7806    5.8078    0.0000 F   0  0  0  0  0  0  0  0  0
    7.0662    5.3953    0.0000 C   0  0  0  0  0  0  0  0  0
    7.0662    4.5703    0.0000 C   0  0  0  0  0  0  0  0  0
    6.3517    4.1578    0.0000 O   0  0  0  0  0  0  0  0  0
    6.3517    3.3328    0.0000 C   0  0  0  0  0  0  0  0  0
    7.0662    2.9203    0.0000 C   0  0  0  0  0  0  0  0  0
    7.0662    2.0953    0.0000 C   0  0  0  0  0  0  0  0  0
    6.3517    1.6828    0.0000 C   0  0  0  0  0  0  0  0  0
    5.6372    2.0953    0.0000 C   0  0  0  0  0  0  0  0  0
    4.9227    1.6828    0.0000 C   0  0  0  0  0  0  0  0  0
    4.2083    2.0953    0.0000 O   0  0  0  0  0  0  0  0  0
    4.9227    0.8578    0.0000 C   0  0  0  0  0  0  0  0  0
    5.6372    0.4453    0.0000 C   0  0  0  0  0  0  0  0  0
    5.6372   -0.3797    0.0000 C   0  0  0  0  0  0  0  0  0
    4.9227   -0.7922    0.0000 N   0  0  0  0  0  0  0  0  0
    4.2083   -0.3797    0.0000 C   0  0  0  0  0  0  0  0  0
    4.2083    0.4453    0.0000 C   0  0  0  0  0  0  0  0  0
    4.9227   -1.6172    0.0000 C   0  0  0  0  0  0  0  0  0
    5.6372   -2.0297    0.0000 C   0  0  0  0  0  0  0  0  0
    5.6372   -2.8547    0.0000 C   0  0  0  0  0  0  0  0  0
    6.3517   -3.2672    0.0000 C   0  0  0  0  0  0  0  0  0
    6.3517   -4.0922    0.0000 C   0  0  0  0  0  0  0  0  0
    5.6372   -4.5047    0.0000 C   0  0  0  0  0  0  0  0  0
    4.9227   -4.0922    0.0000 C   0  0  0  0  0  0  0  0  0
    4.9227   -3.2672    0.0000 C   0  0  0  0  0  0  0  0  0
    5.6372   -5.3297    0.0000 C   0  0  0  0  0  0  0  0  0
    5.6372    2.9203    0.0000 C   0  0  0  0  0  0  0  0  0
    4.9227    3.3328    0.0000 O   0  0  0  0  0  0  0  0  0
    4.2083    2.9203    0.0000 C   0  0  0  0  0  0  0  0  0
  1  2  1  0  0  0  0
  2  3  1  0  0  0  0
  3  4  1  0  0  0  0
  4  5  1  0  0  0  0
  5  6  4  0  0  0  0
  5 27  4  0  0  0  0
  6  7  4  0  0  0  0
  7  8  4  0  0  0  0
  8  9  4  0  0  0  0
  9 10  1  0  0  0  0
  9 27  4  0  0  0  0
 10 11  2  0  0  0  0
 10 12  1  0  0  0  0
 12 13  1  0  0  0  0
 12 17  1  0  0  0  0
 13 14  1  0  0  0  0
 14 15  1  0  0  0  0
 15 16  1  0  0  0  0
 15 18  1  0  0  0  0
 16 17  1  0  0  0  0
 18 19  1  0  0  0  0
 19 20  1  0  0  0  0
 20 21  4  0  0  0  0
 20 25  4  0  0  0  0
 21 22  4  0  0  0  0
 22 23  4  0  0  0  0
 23 24  4  0  0  0  0
 23 26  1  0  0  0  0
 24 25  4  0  0  0  0
 27 28  1  0  0  0  0
 28 29  1  0  0  0  0
M  END
>  <Name_Molregno>
499028

>  <5-HT1A>
5.73

>  <5-HT1B>
5.47

>  <5-HT1E>
5

>  <5-HT2C>
6.3

>  <5-HT3>
5

>  <5-HT5>
5.77

>  <5-HT6>
5

>  <5-HT7>
6.14

>  <Alpha-2C>
6.81

>  <DOPAMINE D1>
5.71

>  <DOPAMINE D2>
5

>  <DOPAMINE D4>
6.03

>  <HISTAMINE H1>
6.18

>  <HISTAMINE H2>
6.08

>  <HISTAMINE H3>
5.04

>  <Serotonin transporter>
6

$$$$
513010
  Marvin  02231216192D 0   1.00000     0.00000     0

 22 24  0  0  1  0  0  0  0  0999 V2000
   -0.2296   -0.4433    0.0000 O   0  0  0  0  0  0  0  0  0
    0.5954   -0.4441    0.0000 C   0  0  0  0  0  0  0  0  0
    1.0086    0.2700    0.0000 O   0  0  0  0  0  0  0  0  0
    1.0072   -1.1590    0.0000 C   0  0  0  0  0  0  0  0  0
    1.8322   -1.1598    0.0000 C   0  0  0  0  0  0  0  0  0
    2.2440   -1.8747    0.0000 C   0  0  0  0  0  0  0  0  0
    1.8308   -2.5887    0.0000 C   0  0  0  0  0  0  0  0  0
    1.0058   -2.5879    0.0000 C   0  0  0  0  0  0  0  0  0
    0.5940   -1.8730    0.0000 C   0  0  0  0  0  0  0  0  0
   -0.6414    0.2716    0.0000 C   0  0  0  0  0  0  0  0  0
   -0.7796    1.0890    0.0000 C   0  0  0  0  0  0  0  0  0
   -1.7084    1.0735    0.0000 C   0  0  0  0  0  0  0  0  0
   -2.2690    1.5134    0.0000 N   0  0  0  0  0  0  0  0  0
   -2.1293    0.7003    0.0000 C   0  0  0  0  0  0  0  0  0
   -2.6492   -0.0120    0.0000 C   0  0  0  0  0  0  0  0  0
   -2.0289    0.3649    0.0000 C   0  0  0  0  0  0  0  0  0
   -1.1576    0.7003    0.0000 C   0  0  0  0  0  0  0  0  0
   -1.4378   -0.0757    0.0000 C   0  0  0  0  0  0  0  0  0
   -2.2499   -0.2210    0.0000 O   0  0  0  0  0  0  0  0  0
   -2.5301   -0.9969    0.0000 C   0  0  0  0  0  0  0  0  0
   -0.9059   -0.7063    0.0000 O   0  0  0  0  0  0  0  0  0
   -2.6916    2.2219    0.0000 C   0  0  0  0  0  0  0  0  0
  1  2  1  0  0  0  0
  1 10  1  0  0  0  0
  2  3  2  0  0  0  0
  2  4  1  0  0  0  0
  4  5  4  0  0  0  0
  4  9  4  0  0  0  0
  5  6  4  0  0  0  0
  6  7  4  0  0  0  0
  7  8  4  0  0  0  0
  8  9  4  0  0  0  0
 10 11  1  0  0  0  0
 10 17  1  0  0  0  0
 11 12  1  0  0  0  0
 12 13  1  0  0  0  0
 12 16  1  0  0  0  0
 13 14  1  0  0  0  0
 13 22  1  0  0  0  0
 14 15  1  0  0  0  0
 14 17  1  0  0  0  0
 15 16  1  0  0  0  0
 17 18  1  0  0  0  0
 18 19  1  0  0  0  0
 18 21  2  0  0  0  0
 19 20  1  0  0  0  0
M  END
>  <Name_Molregno>
513010

>  <5-HT1A>
5

>  <5-HT1B>
5.47

>  <5-HT1D>
5

>  <5-HT1E>
5

>  <5-HT3>
5.31

>  <5-HT5>
5

>  <5-HT6>
5

>  <5-HT7>
5

>  <Alpha-1A>
5.68

>  <Alpha-1B>
5

>  <Alpha-2A>
5

>  <Alpha-2C>
5

>  <Beta-1>
5

>  <Beta-2>
5

>  <DOPAMINE D1>
5

>  <DOPAMINE D2>
5

>  <DOPAMINE D4>
5

>  <DOPAMINE D5>
5

>  <Dopamine transporter>
6.67

>  <HISTAMINE H1>
5.67

>  <HISTAMINE H2>
5

>  <HISTAMINE H4>
5

>  <Muscarinic acetylcholine receptor M1>
5

>  <Muscarinic acetylcholine receptor M2>
5

>  <Muscarinic acetylcholine receptor M3>
5

>  <Muscarinic acetylcholine receptor M4>
5

>  <Muscarinic acetylcholine receptor M5>
5

>  <Norepinephrine transporter>
5.76

>  <Serotonin transporter>
6.68

$$$$
515852
  Marvin  02231216192D 0   1.00000     0.00000     0

 24 28  0  0  1  0  0  0  0  0999 V2000
    3.5696   -0.3324    0.0000 O   0  0  0  0  0  0  0  0  0
    3.9434   -1.0678    0.0000 C   0  0  0  0  0  0  0  0  0
    3.3594   -1.6506    0.0000 C   0  0  0  0  0  0  0  0  0
    2.6247   -1.2753    0.0000 C   0  0  0  0  0  0  0  0  0
    2.7546   -0.4606    0.0000 C   0  0  0  0  0  0  0  0  0
    2.1140    0.0593    0.0000 C   0  0  0  0  0  0  0  0  0
    1.3435   -0.2355    0.0000 C   0  0  0  0  0  0  0  0  0
    1.2136   -1.0502    0.0000 C   0  0  0  0  0  0  0  0  0
    1.8542   -1.5701    0.0000 C   0  0  0  0  0  0  0  0  0
    1.7243   -2.3848    0.0000 N   0  0  0  0  0  0  0  0  0
    0.9537   -2.6797    0.0000 C   0  0  0  0  0  0  0  0  0
    0.3131   -2.1598    0.0000 N   0  0  0  0  0  0  0  0  0
    0.4431   -1.3451    0.0000 C   0  0  0  0  0  0  0  0  0
   -0.1975   -0.8252    0.0000 N   0  0  0  0  0  0  0  0  0
   -0.9680   -1.1201    0.0000 C   0  0  0  0  0  0  0  0  0
   -1.6086   -0.6002    0.0000 C   0  0  0  0  0  0  0  0  0
   -1.4787    0.2145    0.0000 N   0  0  0  0  0  0  0  0  0
   -0.7082    0.5094    0.0000 C   0  0  0  0  0  0  0  0  0
   -0.0676   -0.0105    0.0000 C   0  0  0  0  0  0  0  0  0
    0.8238   -3.4944    0.0000 N   0  0  0  0  0  0  0  0  0
    3.5721   -2.4477    0.0000 C   0  0  0  0  0  0  0  0  0
    4.3687   -2.6621    0.0000 C   0  0  0  0  0  0  0  0  0
    4.9527   -2.0793    0.0000 C   0  0  0  0  0  0  0  0  0
    4.7400   -1.2822    0.0000 C   0  0  0  0  0  0  0  0  0
  1  2  1  0  0  0  0
  1  5  1  0  0  0  0
  2  3  1  0  0  0  0
  2 24  1  0  0  0  0
  3  4  1  0  0  0  0
  3 21  1  0  0  0  0
  4  5  2  0  0  0  0
  4  9  1  0  0  0  0
  5  6  1  0  0  0  0
  6  7  1  0  0  0  0
  7  8  1  0  0  0  0
  8  9  4  0  0  0  0
  8 13  4  0  0  0  0
  9 10  4  0  0  0  0
 10 11  4  0  0  0  0
 11 12  4  0  0  0  0
 11 20  1  0  0  0  0
 12 13  4  0  0  0  0
 13 14  1  0  0  0  0
 14 15  1  0  0  0  0
 14 19  1  0  0  0  0
 15 16  1  0  0  0  0
 16 17  1  0  0  0  0
 17 18  1  0  0  0  0
 18 19  1  0  0  0  0
 21 22  1  0  0  0  0
 22 23  1  0  0  0  0
 23 24  1  0  0  0  0
M  END
>  <Name_Molregno>
515852

>  <5-HT1A>
9.18

>  <5-HT1B>
7.74

>  <5-HT2A>
8.89

>  <5-HT2C>
8.41

>  <5-HT3>
8.18

>  <5-HT5>
6.96

>  <5-HT6>
7.03

>  <5-HT7>
9.66

>  <Beta-1>
6.37

>  <Beta-2>
9.3

>  <DOPAMINE D1>
9.42

>  <DOPAMINE D2>
8.54

>  <DOPAMINE D3>
8.85

>  <DOPAMINE D5>
9.32

>  <Dopamine transporter>
8.05

>  <HISTAMINE H1>
7.05

>  <HISTAMINE H2>
5.91

>  <HISTAMINE H3>
6.03

>  <HISTAMINE H4>
8.24

>  <Muscarinic acetylcholine receptor M1>
7.6

>  <Muscarinic acetylcholine receptor M2>
7.44

>  <Muscarinic acetylcholine receptor M3>
9.38

>  <Muscarinic acetylcholine receptor M4>
9.18

>  <Muscarinic acetylcholine receptor M5>
9.38

>  <Norepinephrine transporter>
8.17

>  <Serotonin transporter>
8.49

$$$$
591110
  Marvin  02231216192D 0   1.00000     0.00000     0

 27 31  0  0  1  0  0  0  0  0999 V2000
    0.4188    1.2437    0.0000 O   0  0  0  0  0  0  0  0  0
   -0.3658    0.9887    0.0000 C   0  0  0  0  0  0  0  0  0
   -0.3658    0.1637    0.0000 C   0  0  0  0  0  0  0  0  0
    0.4188   -0.0912    0.0000 O   0  0  0  0  0  0  0  0  0
    0.9037    0.5762    0.0000 C   0  0  0  0  0  0  0  0  0
   -1.0803   -0.2488    0.0000 C   0  0  0  0  0  0  0  0  0
   -1.7947    0.1637    0.0000 C   0  0  0  0  0  0  0  0  0
   -2.5092   -0.2488    0.0000 C   0  0  0  0  0  0  0  0  0
   -3.2237    0.1637    0.0000 C   0  0  0  0  0  0  0  0  0
   -3.9382   -0.2488    0.0000 N   0  0  0  0  0  0  0  0  0
   -4.6526    0.1637    0.0000 C   0  0  0  0  0  0  0  0  0
   -4.6526    0.9887    0.0000 C   0  0  0  0  0  0  0  0  0
   -3.9382    1.4012    0.0000 C   0  0  0  0  0  0  0  0  0
   -3.9382    2.2262    0.0000 C   0  0  0  0  0  0  0  0  0
   -3.2237    2.6387    0.0000 C   0  0  0  0  0  0  0  0  0
   -3.2237    3.4637    0.0000 C   0  0  0  0  0  0  0  0  0
   -3.9382    3.8762    0.0000 O   0  0  0  0  0  0  0  0  0
   -2.5092    3.8762    0.0000 C   0  0  0  0  0  0  0  0  0
   -2.5092    2.2262    0.0000 C   0  0  0  0  0  0  0  0  0
   -2.5092    1.4012    0.0000 C   0  0  0  0  0  0  0  0  0
   -3.2237    0.9887    0.0000 C   0  0  0  0  0  0  0  0  0
   -1.7947    0.9887    0.0000 C   0  0  0  0  0  0  0  0  0
   -1.0803    1.4012    0.0000 C   0  0  0  0  0  0  0  0  0
   -1.7947    2.6387    0.0000 C   0  0  0  0  0  0  0  0  0
   -1.0803    2.2262    0.0000 O   0  0  0  0  0  0  0  0  0
   -1.7947    3.4637    0.0000 C   0  0  0  0  0  0  0  0  0
   -3.9382   -1.0738    0.0000 C   0  0  0  0  0  0  0  0  0
  1  2  1  0  0  0  0
  1  5  1  0  0  0  0
  2  3  4  0  0  0  0
  2 23  4  0  0  0  0
  3  4  1  0  0  0  0
  3  6  4  0  0  0  0
  4  5  1  0  0  0  0
  6  7  4  0  0  0  0
  7  8  1  0  0  0  0
  7 22  4  0  0  0  0
  8  9  1  0  0  0  0
  9 10  1  0  0  0  0
  9 21  1  0  0  0  0
 10 11  1  0  0  0  0
 10 27  1  0  0  0  0
 11 12  1  0  0  0  0
 12 13  1  0  0  0  0
 13 14  4  0  0  0  0
 13 21  4  0  0  0  0
 14 15  4  0  0  0  0
 15 16  1  0  0  0  0
 15 19  4  0  0  0  0
 16 17  2  0  0  0  0
 16 18  1  0  0  0  0
 19 20  4  0  0  0  0
 19 24  1  0  0  0  0
 20 21  4  0  0  0  0
 20 22  1  0  0  0  0
 22 23  4  0  0  0  0
 24 25  2  0  0  0  0
 24 26  1  0  0  0  0
M  END
>  <Name_Molregno>
591110

>  <5-HT1B>
7

>  <5-HT1D>
7.31

>  <5-HT1E>
5

>  <5-HT2A>
6.08

>  <5-HT2C>
5.97

>  <5-HT3>
5

>  <5-HT5>
5.65

>  <5-HT6>
6.59

>  <5-HT7>
7.17

>  <Alpha-1A>
8.7

>  <Alpha-1B>
5.92

>  <Alpha-2A>
5.89

>  <Alpha-2B>
6.6

>  <Alpha-2C>
6.74

>  <Beta-1>
5.07

>  <Beta-2>
5

>  <DOPAMINE D1>
6.05

>  <DOPAMINE D2>
6.07

>  <DOPAMINE D3>
6.51

>  <DOPAMINE D4>
6.58

>  <DOPAMINE D5>
5.62

>  <Dopamine transporter>
5

>  <HISTAMINE H1>
5

>  <HISTAMINE H2>
6.17

>  <HISTAMINE H3>
5

>  <HISTAMINE H4>
5

>  <Muscarinic acetylcholine receptor M1>
5

>  <Muscarinic acetylcholine receptor M2>
5

>  <Muscarinic acetylcholine receptor M3>
5

>  <Muscarinic acetylcholine receptor M4>
5

>  <Norepinephrine transporter>
5

>  <Serotonin transporter>
6.61

$$$$
594448
  Marvin  02231216192D 0   1.00000     0.00000     0

 24 27  0  0  1  0  0  0  0  0999 V2000
   -0.1249   -0.5370    0.0000 O   0  0  0  0  0  0  0  0  0
    0.6852   -0.6929    0.0000 C   0  0  0  0  0  0  0  0  0
   -0.3950    0.2426    0.0000 C   0  0  0  0  0  0  0  0  0
   -1.2051    0.3985    0.0000 C   0  0  0  0  0  0  0  0  0
   -1.4751    1.1780    0.0000 C   0  0  0  0  0  0  0  0  0
   -2.2853    1.3340    0.0000 C   0  0  0  0  0  0  0  0  0
   -2.8254    0.7103    0.0000 C   0  0  0  0  0  0  0  0  0
   -2.5553   -0.0692    0.0000 N   0  0  0  0  0  0  0  0  0
   -1.7452   -0.2251    0.0000 C   0  0  0  0  0  0  0  0  0
   -3.0954   -0.6929    0.0000 C   0  0  0  0  0  0  0  0  0
   -3.9055   -0.5370    0.0000 C   0  0  0  0  0  0  0  0  0
   -4.1756    0.2426    0.0000 C   0  0  0  0  0  0  0  0  0
   -4.9857    0.3985    0.0000 C   0  0  0  0  0  0  0  0  0
   -5.2558    1.1780    0.0000 C   0  0  0  0  0  0  0  0  0
   -6.0659    1.3340    0.0000 O   0  0  0  0  0  0  0  0  0
   -6.6060    0.7103    0.0000 C   0  0  0  0  0  0  0  0  0
   -4.7157    1.8017    0.0000 C   0  0  0  0  0  0  0  0  0
   -4.9857    2.5812    0.0000 O   0  0  0  0  0  0  0  0  0
   -3.9055    1.6458    0.0000 C   0  0  0  0  0  0  0  0  0
   -3.6355    0.8662    0.0000 C   0  0  0  0  0  0  0  0  0
   -0.9351    1.8017    0.0000 C   0  0  0  0  0  0  0  0  0
   -0.1249    1.6458    0.0000 C   0  0  0  0  0  0  0  0  0
    0.1451    0.8662    0.0000 C   0  0  0  0  0  0  0  0  0
    0.9553    0.7103    0.0000 O   0  0  0  0  0  0  0  0  0
  1  2  1  0  0  0  0
  1  3  1  0  0  0  0
  3  4  4  0  0  0  0
  3 23  4  0  0  0  0
  4  5  4  0  0  0  0
  4  9  1  0  0  0  0
  5  6  1  0  0  0  0
  5 21  4  0  0  0  0
  6  7  1  0  0  0  0
  7  8  1  0  0  0  0
  7 20  1  0  0  0  0
  8  9  1  0  0  0  0
  8 10  1  0  0  0  0
 10 11  1  0  0  0  0
 11 12  1  0  0  0  0
 12 13  4  0  0  0  0
 12 20  4  0  0  0  0
 13 14  4  0  0  0  0
 14 15  1  0  0  0  0
 14 17  4  0  0  0  0
 15 16  1  0  0  0  0
 17 18  1  0  0  0  0
 17 19  4  0  0  0  0
 19 20  4  0  0  0  0
 21 22  4  0  0  0  0
 22 23  4  0  0  0  0
 23 24  1  0  0  0  0
M  END
>  <Name_Molregno>
594448

>  <5-HT1A>
6.84

>  <5-HT1B>
5.16

>  <5-HT1D>
5

>  <5-HT1E>
5

>  <5-HT2A>
5

>  <5-HT3>
5

>  <5-HT5>
5

>  <5-HT6>
5

>  <5-HT7>
5

>  <Alpha-1A>
5

>  <Alpha-1B>
5

>  <Alpha-2A>
5

>  <Alpha-2B>
5.16

>  <Alpha-2C>
6.67

>  <Beta-1>
5

>  <Beta-2>
5

>  <DOPAMINE D1>
8.23

>  <DOPAMINE D2>
6.01

>  <DOPAMINE D4>
5.43

>  <DOPAMINE D5>
8.36

>  <Dopamine transporter>
5

>  <HISTAMINE H1>
5

>  <HISTAMINE H2>
5

>  <HISTAMINE H4>
5

>  <Muscarinic acetylcholine receptor M2>
5

>  <Muscarinic acetylcholine receptor M5>
5

>  <Norepinephrine transporter>
5

>  <Serotonin transporter>
5

$$$$
595595
  Marvin  02231216192D 0   1.00000     0.00000     0

 24 26  0  0  0  0  0  0  0  0999 V2000
    0.4034    0.5918    0.0000 Cl  0  0  0  0  0  0  0  0  0
    0.4034   -0.2332    0.0000 C   0  0  0  0  0  0  0  0  0
    1.1178   -0.6457    0.0000 C   0  0  0  0  0  0  0  0  0
    1.1178   -1.4707    0.0000 C   0  0  0  0  0  0  0  0  0
    0.4034   -1.8832    0.0000 C   0  0  0  0  0  0  0  0  0
   -0.3111   -1.4707    0.0000 C   0  0  0  0  0  0  0  0  0
   -1.0256   -1.8832    0.0000 Cl  0  0  0  0  0  0  0  0  0
   -0.3111   -0.6457    0.0000 C   0  0  0  0  0  0  0  0  0
   -1.0256   -0.2332    0.0000 C   0  0  0  0  0  0  0  0  0
   -1.0256    0.5918    0.0000 N   0  0  0  0  0  0  0  0  0
   -1.7401    1.0043    0.0000 C   0  0  0  0  0  0  0  0  0
   -2.4545    0.5918    0.0000 N   0  0  0  0  0  0  0  0  0
   -3.1690    1.0043    0.0000 C   0  0  0  0  0  0  0  0  0
   -3.1690    1.8293    0.0000 N   0  0  0  0  0  0  0  0  0
   -2.4545    2.2418    0.0000 C   0  0  0  0  0  0  0  0  0
   -2.4545    3.0668    0.0000 N   0  0  0  0  0  0  0  0  0
   -3.1690    3.4793    0.0000 C   0  0  0  0  0  0  0  0  0
   -3.1690    4.3043    0.0000 C   0  0  0  0  0  0  0  0  0
   -2.4545    4.7168    0.0000 N   0  0  0  0  0  0  0  0  0
   -1.7401    4.3043    0.0000 C   0  0  0  0  0  0  0  0  0
   -1.7401    3.4793    0.0000 C   0  0  0  0  0  0  0  0  0
   -2.4545    5.5418    0.0000 C   0  0  0  0  0  0  0  0  0
   -1.7401    1.8293    0.0000 C   0  0  0  0  0  0  0  0  0
   -3.8835    0.5918    0.0000 N   0  0  0  0  0  0  0  0  0
  1  2  1  0  0  0  0
  2  3  4  0  0  0  0
  2  8  4  0  0  0  0
  3  4  4  0  0  0  0
  4  5  4  0  0  0  0
  5  6  4  0  0  0  0
  6  7  1  0  0  0  0
  6  8  4  0  0  0  0
  8  9  1  0  0  0  0
  9 10  1  0  0  0  0
 10 11  1  0  0  0  0
 11 12  4  0  0  0  0
 11 23  4  0  0  0  0
 12 13  4  0  0  0  0
 13 14  4  0  0  0  0
 13 24  1  0  0  0  0
 14 15  4  0  0  0  0
 15 16  1  0  0  0  0
 15 23  4  0  0  0  0
 16 17  1  0  0  0  0
 16 21  1  0  0  0  0
 17 18  1  0  0  0  0
 18 19  1  0  0  0  0
 19 20  1  0  0  0  0
 19 22  1  0  0  0  0
 20 21  1  0  0  0  0
M  END
>  <Name_Molregno>
595595

>  <HISTAMINE H1>
6

>  <HISTAMINE H2>
6

>  <HISTAMINE H3>
6.29

>  <HISTAMINE H4>
7.93

$$$$
595768
  Marvin  02231216192D 0   1.00000     0.00000     0

 23 25  0  0  0  0  0  0  0  0999 V2000
    4.8973   -1.8913    0.0000 Cl  0  0  0  0  0  0  0  0  0
    4.8973   -2.7163    0.0000 C   0  0  0  0  0  0  0  0  0
    5.6117   -3.1288    0.0000 C   0  0  0  0  0  0  0  0  0
    5.6117   -3.9538    0.0000 C   0  0  0  0  0  0  0  0  0
    4.8973   -4.3663    0.0000 C   0  0  0  0  0  0  0  0  0
    4.1828   -3.9538    0.0000 C   0  0  0  0  0  0  0  0  0
    4.1828   -3.1288    0.0000 C   0  0  0  0  0  0  0  0  0
    3.4683   -2.7163    0.0000 C   0  0  0  0  0  0  0  0  0
    3.4683   -1.8913    0.0000 N   0  0  0  0  0  0  0  0  0
    2.7539   -1.4788    0.0000 C   0  0  0  0  0  0  0  0  0
    2.0394   -1.8913    0.0000 N   0  0  0  0  0  0  0  0  0
    1.3249   -1.4788    0.0000 C   0  0  0  0  0  0  0  0  0
    1.3249   -0.6538    0.0000 N   0  0  0  0  0  0  0  0  0
    2.0394   -0.2413    0.0000 C   0  0  0  0  0  0  0  0  0
    2.0394    0.5837    0.0000 N   0  0  0  0  0  0  0  0  0
    1.3249    0.9962    0.0000 C   0  0  0  0  0  0  0  0  0
    1.3249    1.8212    0.0000 C   0  0  0  0  0  0  0  0  0
    2.0394    2.2337    0.0000 N   0  0  0  0  0  0  0  0  0
    2.7539    1.8212    0.0000 C   0  0  0  0  0  0  0  0  0
    2.7539    0.9962    0.0000 C   0  0  0  0  0  0  0  0  0
    2.0394    3.0587    0.0000 C   0  0  0  0  0  0  0  0  0
    2.7539   -0.6538    0.0000 C   0  0  0  0  0  0  0  0  0
    0.6104   -1.8913    0.0000 N   0  0  0  0  0  0  0  0  0
  1  2  1  0  0  0  0
  2  3  4  0  0  0  0
  2  7  4  0  0  0  0
  3  4  4  0  0  0  0
  4  5  4  0  0  0  0
  5  6  4  0  0  0  0
  6  7  4  0  0  0  0
  7  8  1  0  0  0  0
  8  9  1  0  0  0  0
  9 10  1  0  0  0  0
 10 11  4  0  0  0  0
 10 22  4  0  0  0  0
 11 12  4  0  0  0  0
 12 13  4  0  0  0  0
 12 23  1  0  0  0  0
 13 14  4  0  0  0  0
 14 15  1  0  0  0  0
 14 22  4  0  0  0  0
 15 16  1  0  0  0  0
 15 20  1  0  0  0  0
 16 17  1  0  0  0  0
 17 18  1  0  0  0  0
 18 19  1  0  0  0  0
 18 21  1  0  0  0  0
 19 20  1  0  0  0  0
M  END
>  <Name_Molregno>
595768

>  <HISTAMINE H1>
6

>  <HISTAMINE H2>
6

>  <HISTAMINE H3>
6.46

>  <HISTAMINE H4>
7.75

$$$$
595783
  Marvin  02231216192D 0   1.00000     0.00000     0

 23 25  0  0  0  0  0  0  0  0999 V2000
    1.4919    3.0883    0.0000 N   0  0  0  0  0  0  0  0  0
    1.4919    2.2633    0.0000 C   0  0  0  0  0  0  0  0  0
    2.2064    1.8508    0.0000 N   0  0  0  0  0  0  0  0  0
    2.9209    2.2633    0.0000 C   0  0  0  0  0  0  0  0  0
    3.6353    1.8508    0.0000 C   0  0  0  0  0  0  0  0  0
    3.6353    1.0258    0.0000 N   0  0  0  0  0  0  0  0  0
    2.9209    0.6133    0.0000 C   0  0  0  0  0  0  0  0  0
    2.2064    1.0258    0.0000 C   0  0  0  0  0  0  0  0  0
    4.3498    0.6133    0.0000 C   0  0  0  0  0  0  0  0  0
    0.7775    1.8508    0.0000 C   0  0  0  0  0  0  0  0  0
    0.0630    2.2633    0.0000 C   0  0  0  0  0  0  0  0  0
    0.0630    3.0883    0.0000 N   0  0  0  0  0  0  0  0  0
    0.7775    3.5008    0.0000 C   0  0  0  0  0  0  0  0  0
    0.7775    4.3258    0.0000 N   0  0  0  0  0  0  0  0  0
   -0.6515    1.8508    0.0000 N   0  0  0  0  0  0  0  0  0
   -0.6515    1.0258    0.0000 C   0  0  0  0  0  0  0  0  0
   -1.3659    0.6133    0.0000 C   0  0  0  0  0  0  0  0  0
   -1.3659   -0.2117    0.0000 C   0  0  0  0  0  0  0  0  0
   -2.0804   -0.6242    0.0000 C   0  0  0  0  0  0  0  0  0
   -2.7949   -0.2117    0.0000 C   0  0  0  0  0  0  0  0  0
   -2.7949    0.6133    0.0000 C   0  0  0  0  0  0  0  0  0
   -2.0804    1.0258    0.0000 C   0  0  0  0  0  0  0  0  0
   -2.0804    1.8508    0.0000 C   0  0  0  0  0  0  0  0  0
  1  2  4  0  0  0  0
  1 13  4  0  0  0  0
  2  3  1  0  0  0  0
  2 10  4  0  0  0  0
  3  4  1  0  0  0  0
  3  8  1  0  0  0  0
  4  5  1  0  0  0  0
  5  6  1  0  0  0  0
  6  7  1  0  0  0  0
  6  9  1  0  0  0  0
  7  8  1  0  0  0  0
 10 11  4  0  0  0  0
 11 12  4  0  0  0  0
 11 15  1  0  0  0  0
 12 13  4  0  0  0  0
 13 14  1  0  0  0  0
 15 16  1  0  0  0  0
 16 17  1  0  0  0  0
 17 18  4  0  0  0  0
 17 22  4  0  0  0  0
 18 19  4  0  0  0  0
 19 20  4  0  0  0  0
 20 21  4  0  0  0  0
 21 22  4  0  0  0  0
 22 23  1  0  0  0  0
M  END
>  <Name_Molregno>
595783

>  <HISTAMINE H1>
6

>  <HISTAMINE H2>
6

>  <HISTAMINE H3>
6.35

>  <HISTAMINE H4>
7.62

$$$$
595785
  Marvin  02231216192D 0   1.00000     0.00000     0

 23 25  0  0  0  0  0  0  0  0999 V2000
    5.4481    5.5471    0.0000 F   0  0  0  0  0  0  0  0  0
    5.4481    4.7221    0.0000 C   0  0  0  0  0  0  0  0  0
    6.1626    4.3096    0.0000 C   0  0  0  0  0  0  0  0  0
    6.1626    3.4846    0.0000 C   0  0  0  0  0  0  0  0  0
    5.4481    3.0721    0.0000 C   0  0  0  0  0  0  0  0  0
    4.7336    3.4846    0.0000 C   0  0  0  0  0  0  0  0  0
    4.7336    4.3096    0.0000 C   0  0  0  0  0  0  0  0  0
    5.4481    2.2471    0.0000 C   0  0  0  0  0  0  0  0  0
    4.7336    1.8346    0.0000 N   0  0  0  0  0  0  0  0  0
    4.7336    1.0096    0.0000 C   0  0  0  0  0  0  0  0  0
    5.4481    0.5971    0.0000 N   0  0  0  0  0  0  0  0  0
    5.4481   -0.2279    0.0000 C   0  0  0  0  0  0  0  0  0
    4.7336   -0.6404    0.0000 N   0  0  0  0  0  0  0  0  0
    4.0191   -0.2279    0.0000 C   0  0  0  0  0  0  0  0  0
    3.3047   -0.6404    0.0000 N   0  0  0  0  0  0  0  0  0
    3.3047   -1.4654    0.0000 C   0  0  0  0  0  0  0  0  0
    2.5902   -1.8779    0.0000 C   0  0  0  0  0  0  0  0  0
    1.8757   -1.4654    0.0000 N   0  0  0  0  0  0  0  0  0
    1.8757   -0.6404    0.0000 C   0  0  0  0  0  0  0  0  0
    2.5902   -0.2279    0.0000 C   0  0  0  0  0  0  0  0  0
    1.1613   -1.8779    0.0000 C   0  0  0  0  0  0  0  0  0
    4.0191    0.5971    0.0000 C   0  0  0  0  0  0  0  0  0
    6.1626   -0.6404    0.0000 N   0  0  0  0  0  0  0  0  0
  1  2  1  0  0  0  0
  2  3  4  0  0  0  0
  2  7  4  0  0  0  0
  3  4  4  0  0  0  0
  4  5  4  0  0  0  0
  5  6  4  0  0  0  0
  5  8  1  0  0  0  0
  6  7  4  0  0  0  0
  8  9  1  0  0  0  0
  9 10  1  0  0  0  0
 10 11  4  0  0  0  0
 10 22  4  0  0  0  0
 11 12  4  0  0  0  0
 12 13  4  0  0  0  0
 12 23  1  0  0  0  0
 13 14  4  0  0  0  0
 14 15  1  0  0  0  0
 14 22  4  0  0  0  0
 15 16  1  0  0  0  0
 15 20  1  0  0  0  0
 16 17  1  0  0  0  0
 17 18  1  0  0  0  0
 18 19  1  0  0  0  0
 18 21  1  0  0  0  0
 19 20  1  0  0  0  0
M  END
>  <Name_Molregno>
595785

>  <HISTAMINE H1>
6

>  <HISTAMINE H2>
6

>  <HISTAMINE H3>
6.49

>  <HISTAMINE H4>
7.36

$$$$
617531
  Marvin  02231216192D 0   1.00000     0.00000     0

 24 25  0  0  0  0  0  0  0  0999 V2000
   -0.4782   -0.4611    0.0000 S   0  0  0  0  0  0  0  0  0
    0.2363   -0.0486    0.0000 C   0  0  0  0  0  0  0  0  0
    0.9508   -0.4611    0.0000 C   0  0  0  0  0  0  0  0  0
    1.6652   -0.0486    0.0000 N   0  0  0  0  0  0  0  0  0
    2.3797   -0.4611    0.0000 C   0  0  0  0  0  0  0  0  0
    2.3797   -1.2861    0.0000 N   0  0  0  0  0  0  0  0  0
    1.6652   -1.6986    0.0000 C   0  0  0  0  0  0  0  0  0
    0.9508   -2.1111    0.0000 N   0  0  0  0  0  0  0  0  0
    3.0942   -0.0486    0.0000 N   0  0  0  0  0  0  0  0  0
    3.8087   -0.4611    0.0000 C   0  0  0  0  0  0  0  0  0
    4.5231   -0.0486    0.0000 C   0  0  0  0  0  0  0  0  0
    5.2376   -0.4611    0.0000 C   0  0  0  0  0  0  0  0  0
    5.9521   -0.0486    0.0000 C   0  0  0  0  0  0  0  0  0
    6.6665   -0.4611    0.0000 C   0  0  0  0  0  0  0  0  0
    7.4202   -0.1256    0.0000 N   0  0  0  0  0  0  0  0  0
    7.9722   -0.7387    0.0000 C   0  0  0  0  0  0  0  0  0
    7.5597   -1.4531    0.0000 N   0  0  0  0  0  0  0  0  0
    6.7528   -1.2816    0.0000 C   0  0  0  0  0  0  0  0  0
   -1.1926   -0.0486    0.0000 C   0  0  0  0  0  0  0  0  0
   -1.9071   -0.4611    0.0000 C   0  0  0  0  0  0  0  0  0
   -2.6216   -0.0486    0.0000 C   0  0  0  0  0  0  0  0  0
   -2.6216    0.7764    0.0000 C   0  0  0  0  0  0  0  0  0
   -1.9071    1.1889    0.0000 C   0  0  0  0  0  0  0  0  0
   -1.1926    0.7764    0.0000 C   0  0  0  0  0  0  0  0  0
  1  2  1  0  0  0  0
  1 19  1  0  0  0  0
  2  3  1  0  0  0  0
  3  4  1  0  0  0  0
  4  5  1  0  0  0  0
  5  6  2  0  0  0  0
  5  9  1  0  0  0  0
  6  7  1  0  0  0  0
  7  8  3  0  0  0  0
  9 10  1  0  0  0  0
 10 11  1  0  0  0  0
 11 12  1  0  0  0  0
 12 13  1  0  0  0  0
 13 14  1  0  0  0  0
 14 15  4  0  0  0  0
 14 18  4  0  0  0  0
 15 16  4  0  0  0  0
 16 17  4  0  0  0  0
 17 18  4  0  0  0  0
 19 20  4  0  0  0  0
 19 24  4  0  0  0  0
 20 21  4  0  0  0  0
 21 22  4  0  0  0  0
 22 23  4  0  0  0  0
 23 24  4  0  0  0  0
M  STY  1   1 DAT
M  SAL   1  1  17
M  SDT   1 MRV_IMPLICIT_H                                        
M  SDD   1     0.0000    0.0000    DR    ALL  0       0  
M  SED   1 IMPL_H1
M  END
>  <Name_Molregno>
617531

>  <HISTAMINE H1>
4.59

>  <HISTAMINE H2>
5.39

>  <HISTAMINE H3>
6.28

>  <HISTAMINE H4>
7.24

$$$$
627260
  Marvin  02231216192D 0   1.00000     0.00000     0

 18 19  0  0  0  0  0  0  0  0999 V2000
   -1.5728   -0.4149    0.0000 S   0  0  0  0  0  0  0  0  0
   -1.5728   -1.2399    0.0000 C   0  0  0  0  0  0  0  0  0
   -2.2872   -1.6524    0.0000 C   0  0  0  0  0  0  0  0  0
   -2.2872   -2.4774    0.0000 C   0  0  0  0  0  0  0  0  0
   -1.6198   -2.9624    0.0000 N   0  0  0  0  0  0  0  0  0
   -1.8747   -3.7470    0.0000 C   0  0  0  0  0  0  0  0  0
   -2.6997   -3.7470    0.0000 N   0  0  0  0  0  0  0  0  0
   -2.9547   -2.9624    0.0000 C   0  0  0  0  0  0  0  0  0
   -0.8583   -0.0024    0.0000 C   0  0  0  0  0  0  0  0  0
   -0.8583    0.8226    0.0000 C   0  0  0  0  0  0  0  0  0
   -0.1438    1.2351    0.0000 C   0  0  0  0  0  0  0  0  0
    0.5707    0.8226    0.0000 C   0  0  0  0  0  0  0  0  0
    0.5707   -0.0024    0.0000 C   0  0  0  0  0  0  0  0  0
   -0.1438   -0.4149    0.0000 C   0  0  0  0  0  0  0  0  0
    1.2851    1.2351    0.0000 C   0  0  0  0  0  0  0  0  0
    1.9996    1.6476    0.0000 C   0  0  0  0  0  0  0  0  0
    1.6976    0.5206    0.0000 C   0  0  0  0  0  0  0  0  0
    0.8726    1.9495    0.0000 C   0  0  0  0  0  0  0  0  0
  1  2  1  0  0  0  0
  1  9  1  0  0  0  0
  2  3  1  0  0  0  0
  3  4  1  0  0  0  0
  4  5  4  0  0  0  0
  4  8  4  0  0  0  0
  5  6  4  0  0  0  0
  6  7  4  0  0  0  0
  7  8  4  0  0  0  0
  9 10  4  0  0  0  0
  9 14  4  0  0  0  0
 10 11  4  0  0  0  0
 11 12  4  0  0  0  0
 12 13  4  0  0  0  0
 12 15  1  0  0  0  0
 13 14  4  0  0  0  0
 15 16  1  0  0  0  0
 15 17  1  0  0  0  0
 15 18  1  0  0  0  0
M  STY  1   1 DAT
M  SAL   1  1   7
M  SDT   1 MRV_IMPLICIT_H                                        
M  SDD   1     0.0000    0.0000    DR    ALL  0       0  
M  SED   1 IMPL_H1
M  END
>  <Name_Molregno>
627260

>  <HISTAMINE H1>
6

>  <HISTAMINE H2>
6

>  <HISTAMINE H3>
9.57

>  <HISTAMINE H4>
8.96

$$$$
650522
  Marvin  02231216192D 0   1.00000     0.00000     0

 22 24  0  0  0  0  0  0  0  0999 V2000
    0.5933    2.6213    0.0000 F   0  0  0  0  0  0  0  0  0
    1.3078    2.2088    0.0000 C   0  0  0  0  0  0  0  0  0
    0.8953    1.4943    0.0000 F   0  0  0  0  0  0  0  0  0
    1.7203    2.9232    0.0000 F   0  0  0  0  0  0  0  0  0
    2.0222    1.7963    0.0000 C   0  0  0  0  0  0  0  0  0
    2.7367    2.2088    0.0000 C   0  0  0  0  0  0  0  0  0
    3.4512    1.7963    0.0000 C   0  0  0  0  0  0  0  0  0
    3.4512    0.9713    0.0000 C   0  0  0  0  0  0  0  0  0
    4.1657    0.5588    0.0000 N   0  0  0  0  0  0  0  0  0
    4.8801    0.9713    0.0000 C   0  0  0  0  0  0  0  0  0
    5.5946    0.5588    0.0000 C   0  0  0  0  0  0  0  0  0
    5.5946   -0.2662    0.0000 C   0  0  0  0  0  0  0  0  0
    4.8801   -0.6787    0.0000 C   0  0  0  0  0  0  0  0  0
    4.1657   -0.2662    0.0000 C   0  0  0  0  0  0  0  0  0
    6.3091   -0.6787    0.0000 C   0  0  0  0  0  0  0  0  0
    6.3091   -1.5037    0.0000 C   0  0  0  0  0  0  0  0  0
    6.9765   -1.9887    0.0000 N   0  0  0  0  0  0  0  0  0
    6.7216   -2.7733    0.0000 C   0  0  0  0  0  0  0  0  0
    5.8966   -2.7733    0.0000 N   0  0  0  0  0  0  0  0  0
    5.6416   -1.9887    0.0000 C   0  0  0  0  0  0  0  0  0
    2.7367    0.5588    0.0000 C   0  0  0  0  0  0  0  0  0
    2.0222    0.9713    0.0000 C   0  0  0  0  0  0  0  0  0
  1  2  1  0  0  0  0
  2  3  1  0  0  0  0
  2  4  1  0  0  0  0
  2  5  1  0  0  0  0
  5  6  4  0  0  0  0
  5 22  4  0  0  0  0
  6  7  4  0  0  0  0
  7  8  4  0  0  0  0
  8  9  1  0  0  0  0
  8 21  4  0  0  0  0
  9 10  1  0  0  0  0
  9 14  1  0  0  0  0
 10 11  1  0  0  0  0
 11 12  1  0  0  0  0
 12 13  1  0  0  0  0
 12 15  1  0  0  0  0
 13 14  1  0  0  0  0
 15 16  1  0  0  0  0
 16 17  4  0  0  0  0
 16 20  4  0  0  0  0
 17 18  4  0  0  0  0
 18 19  4  0  0  0  0
 19 20  4  0  0  0  0
 21 22  4  0  0  0  0
M  STY  1   1 DAT
M  SAL   1  1  19
M  SDT   1 MRV_IMPLICIT_H                                        
M  SDD   1     0.0000    0.0000    DR    ALL  0       0  
M  SED   1 IMPL_H1
M  END
>  <Name_Molregno>
650522

>  <HISTAMINE H1>
6

>  <HISTAMINE H2>
6

>  <HISTAMINE H3>
8.74

>  <HISTAMINE H4>
6.67

$$$$
650960
  Marvin  02231216192D 0   1.00000     0.00000     0

 20 22  0  0  0  0  0  0  0  0999 V2000
   -6.5038    2.4469    0.0000 O   0  0  0  0  0  0  0  0  0
   -7.2183    2.0344    0.0000 C   0  0  0  0  0  0  0  0  0
   -5.7893    2.0344    0.0000 C   0  0  0  0  0  0  0  0  0
   -5.0749    2.4469    0.0000 C   0  0  0  0  0  0  0  0  0
   -4.3604    2.0344    0.0000 C   0  0  0  0  0  0  0  0  0
   -4.3604    1.2094    0.0000 C   0  0  0  0  0  0  0  0  0
   -3.6459    0.7969    0.0000 N   0  0  0  0  0  0  0  0  0
   -2.9314    1.2094    0.0000 C   0  0  0  0  0  0  0  0  0
   -2.2170    0.7969    0.0000 C   0  0  0  0  0  0  0  0  0
   -2.2170   -0.0281    0.0000 C   0  0  0  0  0  0  0  0  0
   -2.9314   -0.4406    0.0000 C   0  0  0  0  0  0  0  0  0
   -3.6459   -0.0281    0.0000 C   0  0  0  0  0  0  0  0  0
   -1.5025   -0.4406    0.0000 C   0  0  0  0  0  0  0  0  0
   -1.5025   -1.2656    0.0000 C   0  0  0  0  0  0  0  0  0
   -0.8351   -1.7505    0.0000 N   0  0  0  0  0  0  0  0  0
   -1.0900   -2.5352    0.0000 C   0  0  0  0  0  0  0  0  0
   -1.9150   -2.5352    0.0000 N   0  0  0  0  0  0  0  0  0
   -2.1699   -1.7505    0.0000 C   0  0  0  0  0  0  0  0  0
   -5.0749    0.7969    0.0000 C   0  0  0  0  0  0  0  0  0
   -5.7893    1.2094    0.0000 C   0  0  0  0  0  0  0  0  0
  1  2  1  0  0  0  0
  1  3  1  0  0  0  0
  3  4  4  0  0  0  0
  3 20  4  0  0  0  0
  4  5  4  0  0  0  0
  5  6  4  0  0  0  0
  6  7  1  0  0  0  0
  6 19  4  0  0  0  0
  7  8  1  0  0  0  0
  7 12  1  0  0  0  0
  8  9  1  0  0  0  0
  9 10  1  0  0  0  0
 10 11  1  0  0  0  0
 10 13  1  0  0  0  0
 11 12  1  0  0  0  0
 13 14  1  0  0  0  0
 14 15  4  0  0  0  0
 14 18  4  0  0  0  0
 15 16  4  0  0  0  0
 16 17  4  0  0  0  0
 17 18  4  0  0  0  0
 19 20  4  0  0  0  0
M  STY  1   1 DAT
M  SAL   1  1  17
M  SDT   1 MRV_IMPLICIT_H                                        
M  SDD   1     0.0000    0.0000    DR    ALL  0       0  
M  SED   1 IMPL_H1
M  END
>  <Name_Molregno>
650960

>  <HISTAMINE H1>
6

>  <HISTAMINE H2>
6

>  <HISTAMINE H3>
8.27

>  <HISTAMINE H4>
5.51

$$$$
9-OH-risperidone
  Marvin  02231216192D 0   1.00000     0.00000     0

 31 35  0  0  1  0  0  0  0  0999 V2000
    1.7758   -2.6889    0.0000 F   0  0  0  0  0  0  0  0  0
    2.0308   -1.9043    0.0000 C   0  0  0  0  0  0  0  0  0
    1.4788   -1.2912    0.0000 C   0  0  0  0  0  0  0  0  0
    1.7337   -0.5066    0.0000 C   0  0  0  0  0  0  0  0  0
    1.3212    0.2079    0.0000 O   0  0  0  0  0  0  0  0  0
    1.8732    0.8210    0.0000 N   0  0  0  0  0  0  0  0  0
    2.6269    0.4854    0.0000 C   0  0  0  0  0  0  0  0  0
    2.5407   -0.3350    0.0000 C   0  0  0  0  0  0  0  0  0
    3.0927   -0.9481    0.0000 C   0  0  0  0  0  0  0  0  0
    2.8378   -1.7327    0.0000 C   0  0  0  0  0  0  0  0  0
    3.3414    0.8979    0.0000 C   0  0  0  0  0  0  0  0  0
    3.3414    1.7229    0.0000 C   0  0  0  0  0  0  0  0  0
    4.0558    2.1354    0.0000 C   0  0  0  0  0  0  0  0  0
    4.7703    1.7229    0.0000 N   0  0  0  0  0  0  0  0  0
    4.7703    0.8979    0.0000 C   0  0  0  0  0  0  0  0  0
    4.0558    0.4854    0.0000 C   0  0  0  0  0  0  0  0  0
    5.4848    2.1354    0.0000 C   0  0  0  0  0  0  0  0  0
    6.1993    1.7229    0.0000 C   0  0  0  0  0  0  0  0  0
    6.9137    2.1354    0.0000 C   0  0  0  0  0  0  0  0  0
    7.6282    1.7229    0.0000 C   0  0  0  0  0  0  0  0  0
    7.6282    0.8979    0.0000 O   0  0  0  0  0  0  0  0  0
    8.3427    2.1354    0.0000 N   0  0  0  0  0  0  0  0  0
    8.3427    2.9604    0.0000 C   0  0  0  0  0  0  0  0  0
    7.6282    3.3729    0.0000 N   0  0  0  0  0  0  0  0  0
    6.9137    2.9604    0.0000 C   0  0  0  0  0  0  0  0  0
    6.1993    3.3729    0.0000 C   0  0  0  0  0  0  0  0  0
    9.0571    3.3729    0.0000 C   0  0  0  0  0  0  0  0  0
    9.0571    4.1979    0.0000 O   0  0  0  0  0  0  0  0  0
    9.7716    2.9604    0.0000 C   0  0  0  0  0  0  0  0  0
    9.7716    2.1354    0.0000 C   0  0  0  0  0  0  0  0  0
    9.0571    1.7229    0.0000 C   0  0  0  0  0  0  0  0  0
  1  2  1  0  0  0  0
  2  3  4  0  0  0  0
  2 10  4  0  0  0  0
  3  4  4  0  0  0  0
  4  5  4  0  0  0  0
  4  8  4  0  0  0  0
  5  6  4  0  0  0  0
  6  7  4  0  0  0  0
  7  8  4  0  0  0  0
  7 11  1  0  0  0  0
  8  9  4  0  0  0  0
  9 10  4  0  0  0  0
 11 12  1  0  0  0  0
 11 16  1  0  0  0  0
 12 13  1  0  0  0  0
 13 14  1  0  0  0  0
 14 15  1  0  0  0  0
 14 17  1  0  0  0  0
 15 16  1  0  0  0  0
 17 18  1  0  0  0  0
 18 19  1  0  0  0  0
 19 20  1  0  0  0  0
 19 25  2  0  0  0  0
 20 21  2  0  0  0  0
 20 22  1  0  0  0  0
 22 23  1  0  0  0  0
 22 31  1  0  0  0  0
 23 24  2  0  0  0  0
 23 27  1  0  0  0  0
 24 25  1  0  0  0  0
 25 26  1  0  0  0  0
 27 28  1  0  0  0  0
 27 29  1  0  0  0  0
 29 30  1  0  0  0  0
 30 31  1  0  0  0  0
M  END
>  <Name_Molregno>
9-OH-risperidone

>  <5-HT1A>
6.24

>  <5-HT1B>
7.51

>  <5-HT1D>
7.44

>  <5-HT1E>
5.49

>  <5-HT2A>
9

>  <5-HT2C>
7.32

>  <5-HT3>
5

>  <5-HT5>
6.56

>  <5-HT6>
5.62

>  <5-HT7>
8.57

>  <Alpha-1A>
8.6

>  <Alpha-1B>
9.15

>  <Alpha-2A>
7.92

>  <Alpha-2B>
7.63

>  <Alpha-2C>
8.2

>  <Beta-1>
5.15

>  <Beta-2>
5.15

>  <DOPAMINE D1>
7.39

>  <DOPAMINE D2>
8.61

>  <DOPAMINE D3>
9.07

>  <DOPAMINE D4>
7.4

>  <DOPAMINE D5>
7.54

>  <Dopamine transporter>
5

>  <HISTAMINE H1>
8.07

>  <HISTAMINE H2>
6.92

>  <HISTAMINE H4>
5.06

>  <Muscarinic acetylcholine receptor M1>
5

>  <Muscarinic acetylcholine receptor M2>
5

>  <Muscarinic acetylcholine receptor M3>
5

>  <Muscarinic acetylcholine receptor M4>
5

>  <Muscarinic acetylcholine receptor M5>
5

>  <Norepinephrine transporter>
5

>  <Serotonin transporter>
5.71

$$$$
Acetylsalicylic-acid
  Marvin  02231216192D 0   1.00000     0.00000     0

 13 13  0  0  0  0  0  0  0  0999 V2000
    0.0203    0.5019    0.0000 O   0  0  0  0  0  0  0  0  0
    0.7347    0.0894    0.0000 C   0  0  0  0  0  0  0  0  0
    1.4492    0.5019    0.0000 O   0  0  0  0  0  0  0  0  0
    0.7347   -0.7356    0.0000 C   0  0  0  0  0  0  0  0  0
   -0.6942    0.0894    0.0000 C   0  0  0  0  0  0  0  0  0
   -0.6942   -0.7356    0.0000 C   0  0  0  0  0  0  0  0  0
   -1.4087   -1.1481    0.0000 C   0  0  0  0  0  0  0  0  0
   -2.1232   -0.7356    0.0000 C   0  0  0  0  0  0  0  0  0
   -2.1232    0.0894    0.0000 C   0  0  0  0  0  0  0  0  0
   -1.4087    0.5019    0.0000 C   0  0  0  0  0  0  0  0  0
   -1.4087    1.3269    0.0000 C   0  0  0  0  0  0  0  0  0
   -2.1232    1.7394    0.0000 O   0  0  0  0  0  0  0  0  0
   -0.6942    1.7394    0.0000 O   0  0  0  0  0  0  0  0  0
  1  2  1  0  0  0  0
  1  5  1  0  0  0  0
  2  3  2  0  0  0  0
  2  4  1  0  0  0  0
  5  6  4  0  0  0  0
  5 10  4  0  0  0  0
  6  7  4  0  0  0  0
  7  8  4  0  0  0  0
  8  9  4  0  0  0  0
  9 10  4  0  0  0  0
 10 11  1  0  0  0  0
 11 12  1  0  0  0  0
 11 13  2  0  0  0  0
M  END
>  <Name_Molregno>
Acetylsalicylic-acid

>  <5-HT1A>
5

>  <5-HT1B>
5

>  <5-HT1D>
5

>  <5-HT2A>
5

>  <5-HT3>
5

>  <5-HT5>
5

>  <5-HT6>
5

>  <5-HT7>
5

>  <Alpha-1A>
5

>  <Alpha-1B>
5

>  <Alpha-2A>
5

>  <Alpha-2B>
5

>  <Alpha-2C>
5

>  <DOPAMINE D1>
5

>  <DOPAMINE D2>
5

>  <DOPAMINE D4>
5

>  <DOPAMINE D5>
5

>  <HISTAMINE H1>
5

>  <HISTAMINE H2>
5

>  <Muscarinic acetylcholine receptor M2>
5

>  <Muscarinic acetylcholine receptor M5>
5

$$$$
ARIPIPRAZOLE
  Marvin  02231216192D 0   1.00000     0.00000     0

 30 33  0  0  0  0  0  0  0  0999 V2000
   -8.7485    0.0493    0.0000 Cl  0  0  0  0  0  0  0  0  0
   -8.7485   -0.7757    0.0000 C   0  0  0  0  0  0  0  0  0
   -8.0340   -1.1882    0.0000 C   0  0  0  0  0  0  0  0  0
   -7.3195   -0.7757    0.0000 N   0  0  0  0  0  0  0  0  0
   -7.3195    0.0493    0.0000 C   0  0  0  0  0  0  0  0  0
   -6.6051    0.4618    0.0000 C   0  0  0  0  0  0  0  0  0
   -5.8906    0.0493    0.0000 N   0  0  0  0  0  0  0  0  0
   -5.8906   -0.7757    0.0000 C   0  0  0  0  0  0  0  0  0
   -6.6051   -1.1882    0.0000 C   0  0  0  0  0  0  0  0  0
   -5.1761    0.4618    0.0000 C   0  0  0  0  0  0  0  0  0
   -4.4616    0.0493    0.0000 C   0  0  0  0  0  0  0  0  0
   -3.7472    0.4618    0.0000 C   0  0  0  0  0  0  0  0  0
   -3.0327    0.0493    0.0000 C   0  0  0  0  0  0  0  0  0
   -2.3182    0.4618    0.0000 O   0  0  0  0  0  0  0  0  0
   -1.6038    0.0493    0.0000 C   0  0  0  0  0  0  0  0  0
   -0.8893    0.4618    0.0000 C   0  0  0  0  0  0  0  0  0
   -0.1748    0.0493    0.0000 C   0  0  0  0  0  0  0  0  0
    0.5397    0.4618    0.0000 N   0  0  0  0  0  0  0  0  0
    1.2541    0.0493    0.0000 C   0  0  0  0  0  0  0  0  0
    1.9686    0.4618    0.0000 O   0  0  0  0  0  0  0  0  0
    1.2541   -0.7757    0.0000 C   0  0  0  0  0  0  0  0  0
    0.5397   -1.1882    0.0000 C   0  0  0  0  0  0  0  0  0
   -0.1748   -0.7757    0.0000 C   0  0  0  0  0  0  0  0  0
   -0.8893   -1.1882    0.0000 C   0  0  0  0  0  0  0  0  0
   -1.6038   -0.7757    0.0000 C   0  0  0  0  0  0  0  0  0
   -8.0340   -2.0132    0.0000 C   0  0  0  0  0  0  0  0  0
   -8.7485   -2.4257    0.0000 C   0  0  0  0  0  0  0  0  0
   -9.4629   -2.0132    0.0000 C   0  0  0  0  0  0  0  0  0
   -9.4629   -1.1882    0.0000 C   0  0  0  0  0  0  0  0  0
  -10.1774   -0.7757    0.0000 Cl  0  0  0  0  0  0  0  0  0
  1  2  1  0  0  0  0
  2  3  4  0  0  0  0
  2 29  4  0  0  0  0
  3  4  1  0  0  0  0
  3 26  4  0  0  0  0
  4  5  1  0  0  0  0
  4  9  1  0  0  0  0
  5  6  1  0  0  0  0
  6  7  1  0  0  0  0
  7  8  1  0  0  0  0
  7 10  1  0  0  0  0
  8  9  1  0  0  0  0
 10 11  1  0  0  0  0
 11 12  1  0  0  0  0
 12 13  1  0  0  0  0
 13 14  1  0  0  0  0
 14 15  1  0  0  0  0
 15 16  4  0  0  0  0
 15 25  4  0  0  0  0
 16 17  4  0  0  0  0
 17 18  1  0  0  0  0
 17 23  4  0  0  0  0
 18 19  1  0  0  0  0
 19 20  2  0  0  0  0
 19 21  1  0  0  0  0
 21 22  1  0  0  0  0
 22 23  1  0  0  0  0
 23 24  4  0  0  0  0
 24 25  4  0  0  0  0
 26 27  4  0  0  0  0
 27 28  4  0  0  0  0
 28 29  4  0  0  0  0
 29 30  1  0  0  0  0
M  END
>  <Name_Molregno>
ARIPIPRAZOLE

>  <5-HT1A>
8.21

>  <5-HT1B>
6.08

>  <5-HT1D>
7.18

>  <5-HT1E>
5.1

>  <5-HT2A>
7.85

>  <5-HT2C>
7.48

>  <5-HT3>
6.25

>  <5-HT5>
5.91

>  <5-HT6>
6.32

>  <5-HT7>
7.81

>  <Alpha-1A>
7.59

>  <Alpha-1B>
7.46

>  <Alpha-2A>
7.13

>  <Alpha-2B>
6.99

>  <Alpha-2C>
7.42

>  <Beta-1>
6.85

>  <Beta-2>
6.79

>  <DOPAMINE D1>
6.06

>  <DOPAMINE D2>
8.72

>  <DOPAMINE D3>
8.45

>  <DOPAMINE D4>
6.51

>  <DOPAMINE D5>
5.69

>  <Dopamine transporter>
5.49

>  <HISTAMINE H1>
7.56

>  <HISTAMINE H2>
5

>  <HISTAMINE H4>
5

>  <Muscarinic acetylcholine receptor M1>
5.17

>  <Muscarinic acetylcholine receptor M2>
5.45

>  <Muscarinic acetylcholine receptor M3>
5.33

>  <Muscarinic acetylcholine receptor M4>
5.82

>  <Muscarinic acetylcholine receptor M5>
5.63

>  <Norepinephrine transporter>
5.68

>  <Serotonin transporter>
6.48

$$$$
Cathinone
  Marvin  02231216192D 0   1.00000     0.00000     0

 11 11  0  0  1  0  0  0  0  0999 V2000
    1.9974    0.2298    0.0000 O   0  0  0  0  0  0  0  0  0
    1.2829   -0.1827    0.0000 C   0  0  0  0  0  0  0  0  0
    0.5684    0.2298    0.0000 C   0  0  0  0  0  0  0  0  0
    0.5684    1.0548    0.0000 N   0  0  0  0  0  0  0  0  0
   -0.1461   -0.1827    0.0000 C   0  0  0  0  0  0  0  0  0
    1.2829   -1.0077    0.0000 C   0  0  0  0  0  0  0  0  0
    1.9974   -1.4202    0.0000 C   0  0  0  0  0  0  0  0  0
    1.9974   -2.2452    0.0000 C   0  0  0  0  0  0  0  0  0
    1.2829   -2.6577    0.0000 C   0  0  0  0  0  0  0  0  0
    0.5684   -2.2452    0.0000 C   0  0  0  0  0  0  0  0  0
    0.5684   -1.4202    0.0000 C   0  0  0  0  0  0  0  0  0
  1  2  2  0  0  0  0
  2  3  1  0  0  0  0
  2  6  1  0  0  0  0
  3  4  1  0  0  0  0
  3  5  1  0  0  0  0
  6  7  4  0  0  0  0
  6 11  4  0  0  0  0
  7  8  4  0  0  0  0
  8  9  4  0  0  0  0
  9 10  4  0  0  0  0
 10 11  4  0  0  0  0
M  END
>  <Name_Molregno>
Cathinone

>  <5-HT1A>
5

>  <5-HT1B>
5

>  <5-HT1D>
5

>  <5-HT1E>
5

>  <5-HT3>
5

>  <5-HT5>
5

>  <5-HT6>
5

>  <5-HT7>
5.57

>  <Alpha-1A>
5

>  <Alpha-1B>
5

>  <Alpha-2A>
5.17

>  <Alpha-2B>
6.04

>  <Alpha-2C>
6.12

>  <Beta-1>
5

>  <Beta-2>
5

>  <DOPAMINE D1>
5

>  <DOPAMINE D2>
5

>  <DOPAMINE D4>
5

>  <DOPAMINE D5>
5

>  <Dopamine transporter>
6.37

>  <HISTAMINE H1>
5

>  <HISTAMINE H2>
5

>  <HISTAMINE H4>
5

>  <Muscarinic acetylcholine receptor M1>
5

>  <Muscarinic acetylcholine receptor M2>
5

>  <Muscarinic acetylcholine receptor M3>
5

>  <Muscarinic acetylcholine receptor M4>
5

>  <Muscarinic acetylcholine receptor M5>
5

>  <Norepinephrine transporter>
6.76

>  <Serotonin transporter>
5.32

$$$$
CELECOXIB
  Marvin  02231216192D 0   1.00000     0.00000     0

 26 28  0  0  0  0  0  0  0  0999 V2000
   -2.2304    2.3034    0.0000 S   0  0  0  0  0  0  0  0  0
   -2.2304    3.1284    0.0000 O   0  0  0  0  0  0  0  0  0
   -3.0554    2.3034    0.0000 O   0  0  0  0  0  0  0  0  0
   -1.4054    2.3034    0.0000 N   0  0  0  0  0  0  0  0  0
   -2.2304    1.4784    0.0000 C   0  0  0  0  0  0  0  0  0
   -1.5159    1.0659    0.0000 C   0  0  0  0  0  0  0  0  0
   -1.5159    0.2409    0.0000 C   0  0  0  0  0  0  0  0  0
   -2.2304   -0.1716    0.0000 C   0  0  0  0  0  0  0  0  0
   -2.2304   -0.9966    0.0000 N   0  0  0  0  0  0  0  0  0
   -1.5629   -1.4815    0.0000 N   0  0  0  0  0  0  0  0  0
   -1.8179   -2.2662    0.0000 C   0  0  0  0  0  0  0  0  0
   -2.6429   -2.2662    0.0000 C   0  0  0  0  0  0  0  0  0
   -2.8978   -1.4815    0.0000 C   0  0  0  0  0  0  0  0  0
   -3.6824   -1.2266    0.0000 C   0  0  0  0  0  0  0  0  0
   -4.2955   -1.7786    0.0000 C   0  0  0  0  0  0  0  0  0
   -5.0802   -1.5237    0.0000 C   0  0  0  0  0  0  0  0  0
   -5.2517   -0.7167    0.0000 C   0  0  0  0  0  0  0  0  0
   -4.6386   -0.1647    0.0000 C   0  0  0  0  0  0  0  0  0
   -3.8540   -0.4196    0.0000 C   0  0  0  0  0  0  0  0  0
   -6.0363   -0.4618    0.0000 C   0  0  0  0  0  0  0  0  0
   -1.3330   -2.9336    0.0000 C   0  0  0  0  0  0  0  0  0
   -0.8480   -3.6010    0.0000 F   0  0  0  0  0  0  0  0  0
   -2.0004   -3.4185    0.0000 F   0  0  0  0  0  0  0  0  0
   -0.6655   -2.4487    0.0000 F   0  0  0  0  0  0  0  0  0
   -2.9448    0.2409    0.0000 C   0  0  0  0  0  0  0  0  0
   -2.9448    1.0659    0.0000 C   0  0  0  0  0  0  0  0  0
  1  2  2  0  0  0  0
  1  3  2  0  0  0  0
  1  4  1  0  0  0  0
  1  5  1  0  0  0  0
  5  6  4  0  0  0  0
  5 26  4  0  0  0  0
  6  7  4  0  0  0  0
  7  8  4  0  0  0  0
  8  9  1  0  0  0  0
  8 25  4  0  0  0  0
  9 10  4  0  0  0  0
  9 13  4  0  0  0  0
 10 11  4  0  0  0  0
 11 12  4  0  0  0  0
 11 21  1  0  0  0  0
 12 13  4  0  0  0  0
 13 14  1  0  0  0  0
 14 15  4  0  0  0  0
 14 19  4  0  0  0  0
 15 16  4  0  0  0  0
 16 17  4  0  0  0  0
 17 18  4  0  0  0  0
 17 20  1  0  0  0  0
 18 19  4  0  0  0  0
 21 22  1  0  0  0  0
 21 23  1  0  0  0  0
 21 24  1  0  0  0  0
 25 26  4  0  0  0  0
M  END
>  <Name_Molregno>
CELECOXIB

>  <5-HT1A>
5

>  <5-HT1B>
5

>  <5-HT1D>
5

>  <5-HT1E>
5

>  <5-HT2A>
5

>  <5-HT3>
5

>  <5-HT6>
5

>  <5-HT7>
5

>  <Alpha-1A>
5

>  <Alpha-1B>
5

>  <Alpha-2A>
5

>  <Alpha-2B>
5

>  <Alpha-2C>
5

>  <DOPAMINE D1>
5

>  <DOPAMINE D2>
5

>  <DOPAMINE D4>
5

>  <DOPAMINE D5>
5

>  <Dopamine transporter>
6.18

>  <HISTAMINE H1>
5

>  <HISTAMINE H2>
5

>  <Muscarinic acetylcholine receptor M2>
5

>  <Muscarinic acetylcholine receptor M5>
5

>  <Norepinephrine transporter>
5

>  <Serotonin transporter>
5

$$$$
CHLORPROMAZINE
  Marvin  02231216192D 0   1.00000     0.00000     0

 21 23  0  0  0  0  0  0  0  0999 V2000
   -1.3730   -3.5598    0.0000 Cl  0  0  0  0  0  0  0  0  0
   -2.0875   -3.1473    0.0000 C   0  0  0  0  0  0  0  0  0
   -2.0875   -2.3223    0.0000 C   0  0  0  0  0  0  0  0  0
   -2.8019   -1.9098    0.0000 C   0  0  0  0  0  0  0  0  0
   -2.8019   -1.0848    0.0000 N   0  0  0  0  0  0  0  0  0
   -3.5164   -0.6723    0.0000 C   0  0  0  0  0  0  0  0  0
   -4.2309   -1.0848    0.0000 C   0  0  0  0  0  0  0  0  0
   -4.2309   -1.9098    0.0000 S   0  0  0  0  0  0  0  0  0
   -3.5164   -2.3223    0.0000 C   0  0  0  0  0  0  0  0  0
   -3.5164   -3.1473    0.0000 C   0  0  0  0  0  0  0  0  0
   -2.8019   -3.5598    0.0000 C   0  0  0  0  0  0  0  0  0
   -4.9453   -0.6723    0.0000 C   0  0  0  0  0  0  0  0  0
   -4.9453    0.1527    0.0000 C   0  0  0  0  0  0  0  0  0
   -4.2309    0.5652    0.0000 C   0  0  0  0  0  0  0  0  0
   -3.5164    0.1527    0.0000 C   0  0  0  0  0  0  0  0  0
   -2.0875   -0.6723    0.0000 C   0  0  0  0  0  0  0  0  0
   -1.3730   -1.0848    0.0000 C   0  0  0  0  0  0  0  0  0
   -0.6585   -0.6723    0.0000 C   0  0  0  0  0  0  0  0  0
    0.0560   -1.0848    0.0000 N   0  0  0  0  0  0  0  0  0
    0.7704   -0.6723    0.0000 C   0  0  0  0  0  0  0  0  0
    0.0560   -1.9098    0.0000 C   0  0  0  0  0  0  0  0  0
  1  2  1  0  0  0  0
  2  3  4  0  0  0  0
  2 11  4  0  0  0  0
  3  4  4  0  0  0  0
  4  5  1  0  0  0  0
  4  9  4  0  0  0  0
  5  6  1  0  0  0  0
  5 16  1  0  0  0  0
  6  7  4  0  0  0  0
  6 15  4  0  0  0  0
  7  8  1  0  0  0  0
  7 12  4  0  0  0  0
  8  9  1  0  0  0  0
  9 10  4  0  0  0  0
 10 11  4  0  0  0  0
 12 13  4  0  0  0  0
 13 14  4  0  0  0  0
 14 15  4  0  0  0  0
 16 17  1  0  0  0  0
 17 18  1  0  0  0  0
 18 19  1  0  0  0  0
 19 20  1  0  0  0  0
 19 21  1  0  0  0  0
M  END
>  <Name_Molregno>
CHLORPROMAZINE

>  <5-HT1A>
5.98

>  <5-HT1B>
5.83

>  <5-HT1D>
6.34

>  <5-HT1E>
6.46

>  <5-HT2A>
8.36

>  <5-HT2C>
7.74

>  <5-HT3>
6.01

>  <5-HT5>
6.93

>  <5-HT6>
7.59

>  <5-HT7>
7.54

>  <Alpha-1A>
9.55

>  <Alpha-1B>
9.09

>  <Alpha-2A>
6.71

>  <Alpha-2B>
7.81

>  <Alpha-2C>
7.36

>  <Beta-1>
5

>  <Beta-2>
5

>  <DOPAMINE D1>
7.1

>  <DOPAMINE D2>
8.51

>  <DOPAMINE D3>
8.58

>  <DOPAMINE D4>
8.03

>  <DOPAMINE D5>
6.82

>  <Dopamine transporter>
5

>  <HISTAMINE H1>
8.47

>  <HISTAMINE H2>
6.76

>  <HISTAMINE H3>
6

>  <HISTAMINE H4>
6.3

>  <Muscarinic acetylcholine receptor M1>
7.36

>  <Muscarinic acetylcholine receptor M2>
6.67

>  <Muscarinic acetylcholine receptor M3>
7.25

>  <Muscarinic acetylcholine receptor M4>
7.11

>  <Muscarinic acetylcholine receptor M5>
7.5

>  <Norepinephrine transporter>
5.61

>  <Serotonin transporter>
6.54

$$$$
cis-Thiothixene
  Marvin  02231216192D 0   1.00000     0.00000     0

 30 33  0  0  0  0  0  0  0  0999 V2000
    1.0940   -3.6931    0.0000 S   0  0  0  0  0  0  0  0  0
    1.8085   -3.2806    0.0000 C   0  0  0  0  0  0  0  0  0
    1.8085   -2.4556    0.0000 C   0  0  0  0  0  0  0  0  0
    2.5230   -2.0431    0.0000 C   0  0  0  0  0  0  0  0  0
    3.2375   -2.4556    0.0000 C   0  0  0  0  0  0  0  0  0
    3.9519   -2.0431    0.0000 S   0  0  0  0  0  0  0  0  0
    3.5394   -1.3286    0.0000 O   0  0  0  0  0  0  0  0  0
    4.3644   -2.7575    0.0000 O   0  0  0  0  0  0  0  0  0
    4.6664   -1.6306    0.0000 N   0  0  0  0  0  0  0  0  0
    5.3809   -2.0431    0.0000 C   0  0  0  0  0  0  0  0  0
    4.6664   -0.8056    0.0000 C   0  0  0  0  0  0  0  0  0
    3.2375   -3.2806    0.0000 C   0  0  0  0  0  0  0  0  0
    2.5230   -3.6931    0.0000 C   0  0  0  0  0  0  0  0  0
    1.0940   -2.0431    0.0000 C   0  0  0  0  0  0  0  0  0
    0.3796   -2.4556    0.0000 C   0  0  0  0  0  0  0  0  0
    0.3796   -3.2806    0.0000 C   0  0  0  0  0  0  0  0  0
   -0.3349   -3.6931    0.0000 C   0  0  0  0  0  0  0  0  0
   -1.0494   -3.2806    0.0000 C   0  0  0  0  0  0  0  0  0
   -1.0494   -2.4556    0.0000 C   0  0  0  0  0  0  0  0  0
   -0.3349   -2.0431    0.0000 C   0  0  0  0  0  0  0  0  0
    1.0940   -1.2181    0.0000 C   0  0  0  0  0  0  0  0  0
    0.3796   -0.8056    0.0000 C   0  0  0  0  0  0  0  0  0
   -0.3349   -1.2181    0.0000 C   0  0  0  0  0  0  0  0  0
   -1.0494   -0.8056    0.0000 N   0  0  0  0  0  0  0  0  0
   -1.7638   -1.2181    0.0000 C   0  0  0  0  0  0  0  0  0
   -2.4783   -0.8056    0.0000 C   0  0  0  0  0  0  0  0  0
   -2.4783    0.0194    0.0000 N   0  0  0  0  0  0  0  0  0
   -1.7638    0.4319    0.0000 C   0  0  0  0  0  0  0  0  0
   -1.0494    0.0194    0.0000 C   0  0  0  0  0  0  0  0  0
   -3.1928    0.4319    0.0000 C   0  0  0  0  0  0  0  0  0
  1  2  1  0  0  0  0
  1 16  1  0  0  0  0
  2  3  4  0  0  0  0
  2 13  4  0  0  0  0
  3  4  4  0  0  0  0
  3 14  1  0  0  0  0
  4  5  4  0  0  0  0
  5  6  1  0  0  0  0
  5 12  4  0  0  0  0
  6  7  2  0  0  0  0
  6  8  2  0  0  0  0
  6  9  1  0  0  0  0
  9 10  1  0  0  0  0
  9 11  1  0  0  0  0
 12 13  4  0  0  0  0
 14 15  1  0  0  0  0
 14 21  2  0  0  0  0
 15 16  4  0  0  0  0
 15 20  4  0  0  0  0
 16 17  4  0  0  0  0
 17 18  4  0  0  0  0
 18 19  4  0  0  0  0
 19 20  4  0  0  0  0
 21 22  1  0  0  0  0
 22 23  1  0  0  0  0
 23 24  1  0  0  0  0
 24 25  1  0  0  0  0
 24 29  1  0  0  0  0
 25 26  1  0  0  0  0
 26 27  1  0  0  0  0
 27 28  1  0  0  0  0
 27 30  1  0  0  0  0
 28 29  1  0  0  0  0
M  END
>  <Name_Molregno>
cis-Thiothixene

>  <5-HT1A>
6.39

>  <5-HT1B>
6.82

>  <5-HT1D>
6.18

>  <5-HT1E>
5

>  <5-HT2A>
7.42

>  <5-HT2C>
5.87

>  <5-HT3>
5.73

>  <5-HT5>
6.44

>  <5-HT6>
6.62

>  <5-HT7>
7.82

>  <Alpha-1A>
7.94

>  <Alpha-1B>
7.46

>  <Alpha-2A>
7.1

>  <Alpha-2B>
7.3

>  <Alpha-2C>
7.28

>  <Beta-1>
5

>  <Beta-2>
5

>  <DOPAMINE D1>
7.29

>  <DOPAMINE D2>
9.56

>  <DOPAMINE D3>
9.41

>  <DOPAMINE D4>
6.86

>  <DOPAMINE D5>
6.58

>  <Dopamine transporter>
5

>  <HISTAMINE H1>
8.23

>  <HISTAMINE H2>
6.39

>  <HISTAMINE H4>
5

>  <Muscarinic acetylcholine receptor M1>
5.3

>  <Muscarinic acetylcholine receptor M2>
5.34

>  <Muscarinic acetylcholine receptor M3>
5.27

>  <Muscarinic acetylcholine receptor M4>
5.4

>  <Muscarinic acetylcholine receptor M5>
5.32

>  <Norepinephrine transporter>
5

>  <Serotonin transporter>
5.41

$$$$
Clobenpropit
  Marvin  02231216192D 0   1.00000     0.00000     0

 20 21  0  0  0  0  0  0  0  0999 V2000
    0.2554    0.9207    0.0000 Cl  0  0  0  0  0  0  0  0  0
    0.9699    1.3332    0.0000 C   0  0  0  0  0  0  0  0  0
    0.9699    2.1582    0.0000 C   0  0  0  0  0  0  0  0  0
    1.6844    2.5707    0.0000 C   0  0  0  0  0  0  0  0  0
    2.3988    2.1582    0.0000 C   0  0  0  0  0  0  0  0  0
    2.3988    1.3332    0.0000 C   0  0  0  0  0  0  0  0  0
    1.6844    0.9207    0.0000 C   0  0  0  0  0  0  0  0  0
    3.1133    2.5707    0.0000 C   0  0  0  0  0  0  0  0  0
    3.8278    2.1582    0.0000 N   0  0  0  0  0  0  0  0  0
    3.8278    1.3332    0.0000 C   0  0  0  0  0  0  0  0  0
    4.5422    0.9207    0.0000 S   0  0  0  0  0  0  0  0  0
    5.2567    1.3332    0.0000 C   0  0  0  0  0  0  0  0  0
    5.9712    0.9207    0.0000 C   0  0  0  0  0  0  0  0  0
    6.6857    1.3332    0.0000 C   0  0  0  0  0  0  0  0  0
    7.4001    0.9207    0.0000 C   0  0  0  0  0  0  0  0  0
    8.1538    1.2562    0.0000 N   0  0  0  0  0  0  0  0  0
    8.7058    0.6431    0.0000 C   0  0  0  0  0  0  0  0  0
    8.2933   -0.0713    0.0000 N   0  0  0  0  0  0  0  0  0
    7.4864    0.1002    0.0000 C   0  0  0  0  0  0  0  0  0
    3.1133    0.9207    0.0000 N   0  0  0  0  0  0  0  0  0
  1  2  1  0  0  0  0
  2  3  4  0  0  0  0
  2  7  4  0  0  0  0
  3  4  4  0  0  0  0
  4  5  4  0  0  0  0
  5  6  4  0  0  0  0
  5  8  1  0  0  0  0
  6  7  4  0  0  0  0
  8  9  1  0  0  0  0
  9 10  2  0  0  0  0
 10 11  1  0  0  0  0
 10 20  1  0  0  0  0
 11 12  1  0  0  0  0
 12 13  1  0  0  0  0
 13 14  1  0  0  0  0
 14 15  1  0  0  0  0
 15 16  4  0  0  0  0
 15 19  4  0  0  0  0
 16 17  4  0  0  0  0
 17 18  4  0  0  0  0
 18 19  4  0  0  0  0
M  STY  1   1 DAT
M  SAL   1  1  16
M  SDT   1 MRV_IMPLICIT_H                                        
M  SDD   1     0.0000    0.0000    DR    ALL  0       0  
M  SED   1 IMPL_H1
M  END
>  <Name_Molregno>
Clobenpropit

>  <Alpha-2A>
7.76

>  <Alpha-2C>
7.8

>  <HISTAMINE H1>
5.56

>  <HISTAMINE H2>
5.24

>  <HISTAMINE H3>
8.4

>  <HISTAMINE H4>
7.64

$$$$
CLOZAPINE
  Marvin  02231216192D 0   1.00000     0.00000     0

 23 26  0  0  0  0  0  0  0  0999 V2000
   -0.5622   -2.2603    0.0000 Cl  0  0  0  0  0  0  0  0  0
    0.2262   -2.5035    0.0000 C   0  0  0  0  0  0  0  0  0
    0.8309   -1.9424    0.0000 C   0  0  0  0  0  0  0  0  0
    1.6193   -2.1855    0.0000 C   0  0  0  0  0  0  0  0  0
    2.1337   -1.5405    0.0000 N   0  0  0  0  0  0  0  0  0
    2.9587   -1.5405    0.0000 C   0  0  0  0  0  0  0  0  0
    3.3166   -0.7972    0.0000 N   0  0  0  0  0  0  0  0  0
    2.8519   -0.1156    0.0000 C   0  0  0  0  0  0  0  0  0
    3.2098    0.6277    0.0000 C   0  0  0  0  0  0  0  0  0
    4.0325    0.6894    0.0000 N   0  0  0  0  0  0  0  0  0
    4.4973    0.0077    0.0000 C   0  0  0  0  0  0  0  0  0
    4.1393   -0.7356    0.0000 C   0  0  0  0  0  0  0  0  0
    4.3905    1.4327    0.0000 C   0  0  0  0  0  0  0  0  0
    3.4730   -2.1855    0.0000 C   0  0  0  0  0  0  0  0  0
    3.2895   -2.9898    0.0000 C   0  0  0  0  0  0  0  0  0
    2.5462   -3.3478    0.0000 N   0  0  0  0  0  0  0  0  0
    1.8029   -2.9898    0.0000 C   0  0  0  0  0  0  0  0  0
    1.1981   -3.5510    0.0000 C   0  0  0  0  0  0  0  0  0
    0.4098   -3.3078    0.0000 C   0  0  0  0  0  0  0  0  0
    3.8942   -3.5510    0.0000 C   0  0  0  0  0  0  0  0  0
    4.6826   -3.3078    0.0000 C   0  0  0  0  0  0  0  0  0
    4.8662   -2.5035    0.0000 C   0  0  0  0  0  0  0  0  0
    4.2614   -1.9424    0.0000 C   0  0  0  0  0  0  0  0  0
  1  2  1  0  0  0  0
  2  3  4  0  0  0  0
  2 19  4  0  0  0  0
  3  4  4  0  0  0  0
  4  5  1  0  0  0  0
  4 17  4  0  0  0  0
  5  6  1  0  0  0  0
  6  7  1  0  0  0  0
  6 14  2  0  0  0  0
  7  8  1  0  0  0  0
  7 12  1  0  0  0  0
  8  9  1  0  0  0  0
  9 10  1  0  0  0  0
 10 11  1  0  0  0  0
 10 13  1  0  0  0  0
 11 12  1  0  0  0  0
 14 15  1  0  0  0  0
 14 23  1  0  0  0  0
 15 16  2  0  0  0  0
 15 20  1  0  0  0  0
 16 17  1  0  0  0  0
 17 18  4  0  0  0  0
 18 19  4  0  0  0  0
 20 21  2  0  0  0  0
 21 22  1  0  0  0  0
 22 23  2  0  0  0  0
M  END
>  <Name_Molregno>
CLOZAPINE

>  <5-HT1A>
6.88

>  <5-HT1B>
6.33

>  <5-HT1D>
6.27

>  <5-HT1E>
6.19

>  <5-HT2A>
8.22

>  <5-HT2C>
8

>  <5-HT3>
6.62

>  <5-HT5>
5.41

>  <5-HT6>
7.9

>  <5-HT7>
8.05

>  <Alpha-1A>
8.8

>  <Alpha-1B>
8.15

>  <Alpha-2A>
7.15

>  <Alpha-2B>
7.61

>  <Alpha-2C>
7.88

>  <Beta-1>
5.15

>  <Beta-2>
5.39

>  <DOPAMINE D1>
6.69

>  <DOPAMINE D2>
6.9

>  <DOPAMINE D3>
6.62

>  <DOPAMINE D4>
7.62

>  <DOPAMINE D5>
6.62

>  <Dopamine transporter>
5

>  <HISTAMINE H1>
8.81

>  <HISTAMINE H2>
6.82

>  <HISTAMINE H3>
5.25

>  <HISTAMINE H4>
6.15

>  <Muscarinic acetylcholine receptor M1>
8.26

>  <Muscarinic acetylcholine receptor M2>
7.17

>  <Muscarinic acetylcholine receptor M3>
7.59

>  <Muscarinic acetylcholine receptor M4>
7.85

>  <Muscarinic acetylcholine receptor M5>
7.79

>  <Norepinephrine transporter>
5.5

>  <Serotonin transporter>
5.73

$$$$
D-cystine
  Marvin  02231216192D 0   1.00000     0.00000     0

 14 13  0  0  1  0  0  0  0  0999 V2000
    0.5597    0.5534    0.0000 S   0  0  0  0  0  0  0  0  0
   -0.1548    0.1409    0.0000 S   0  0  0  0  0  0  0  0  0
   -0.8693    0.5534    0.0000 C   0  0  0  0  0  0  0  0  0
   -1.5838    0.1409    0.0000 C   0  0  0  0  0  0  0  0  0
   -1.5838   -0.6841    0.0000 N   0  0  0  0  0  0  0  0  0
   -2.2982    0.5534    0.0000 C   0  0  0  0  0  0  0  0  0
   -3.0127    0.1409    0.0000 O   0  0  0  0  0  0  0  0  0
   -2.2982    1.3784    0.0000 O   0  0  0  0  0  0  0  0  0
    1.2741    0.1409    0.0000 C   0  0  0  0  0  0  0  0  0
    1.9886    0.5534    0.0000 C   0  0  0  0  0  0  0  0  0
    1.9886    1.3784    0.0000 N   0  0  0  0  0  0  0  0  0
    2.7031    0.1409    0.0000 C   0  0  0  0  0  0  0  0  0
    3.4175    0.5534    0.0000 O   0  0  0  0  0  0  0  0  0
    2.7031   -0.6841    0.0000 O   0  0  0  0  0  0  0  0  0
  1  2  1  0  0  0  0
  1  9  1  0  0  0  0
  2  3  1  0  0  0  0
  3  4  1  0  0  0  0
  4  5  1  0  0  0  0
  4  6  1  0  0  0  0
  6  7  1  0  0  0  0
  6  8  2  0  0  0  0
  9 10  1  0  0  0  0
 10 11  1  0  0  0  0
 10 12  1  0  0  0  0
 12 13  1  0  0  0  0
 12 14  2  0  0  0  0
M  END
>  <Name_Molregno>
D-cystine

>  <5-HT1A>
5

>  <5-HT1B>
5

>  <5-HT1D>
5

>  <5-HT3>
5

>  <5-HT5>
5

>  <5-HT6>
5

>  <5-HT7>
5

>  <Alpha-1A>
5

>  <Alpha-1B>
5

>  <Alpha-2A>
5

>  <Alpha-2B>
5

>  <Alpha-2C>
5

>  <DOPAMINE D1>
5

>  <DOPAMINE D2>
5

>  <DOPAMINE D3>
5

>  <DOPAMINE D5>
5

>  <Dopamine transporter>
5

>  <HISTAMINE H1>
5

>  <HISTAMINE H2>
5

>  <HISTAMINE H4>
5

>  <Muscarinic acetylcholine receptor M1>
5

>  <Muscarinic acetylcholine receptor M2>
5

>  <Muscarinic acetylcholine receptor M3>
5

>  <Muscarinic acetylcholine receptor M4>
5

>  <Muscarinic acetylcholine receptor M5>
5

>  <Norepinephrine transporter>
5

>  <Serotonin transporter>
5

$$$$
d-Fenfluramine
  Marvin  02231216192D 0   1.00000     0.00000     0

 16 16  0  0  1  0  0  0  0  0999 V2000
   -5.1694    0.5172    0.0000 F   0  0  0  0  0  0  0  0  0
   -4.4549    0.1047    0.0000 C   0  0  0  0  0  0  0  0  0
   -4.8674   -0.6097    0.0000 F   0  0  0  0  0  0  0  0  0
   -4.0424    0.8192    0.0000 F   0  0  0  0  0  0  0  0  0
   -3.7405   -0.3078    0.0000 C   0  0  0  0  0  0  0  0  0
   -3.0260    0.1047    0.0000 C   0  0  0  0  0  0  0  0  0
   -2.3115   -0.3078    0.0000 C   0  0  0  0  0  0  0  0  0
   -2.3115   -1.1328    0.0000 C   0  0  0  0  0  0  0  0  0
   -3.0260   -1.5453    0.0000 C   0  0  0  0  0  0  0  0  0
   -3.7405   -1.1328    0.0000 C   0  0  0  0  0  0  0  0  0
   -1.5971    0.1047    0.0000 C   0  0  0  0  0  0  0  0  0
   -0.8826   -0.3078    0.0000 C   0  0  0  0  0  0  0  0  0
   -0.1681    0.1047    0.0000 N   0  0  0  0  0  0  0  0  0
    0.5464   -0.3078    0.0000 C   0  0  0  0  0  0  0  0  0
    1.2608    0.1047    0.0000 C   0  0  0  0  0  0  0  0  0
   -0.8826   -1.1328    0.0000 C   0  0  0  0  0  0  0  0  0
  1  2  1  0  0  0  0
  2  3  1  0  0  0  0
  2  4  1  0  0  0  0
  2  5  1  0  0  0  0
  5  6  4  0  0  0  0
  5 10  4  0  0  0  0
  6  7  4  0  0  0  0
  7  8  4  0  0  0  0
  7 11  1  0  0  0  0
  8  9  4  0  0  0  0
  9 10  4  0  0  0  0
 11 12  1  0  0  0  0
 12 13  1  0  0  0  0
 12 16  1  0  0  0  0
 13 14  1  0  0  0  0
 14 15  1  0  0  0  0
M  END
>  <Name_Molregno>
d-Fenfluramine

>  <5-HT1A>
6.11

>  <5-HT1B>
5.67

>  <5-HT1D>
5.79

>  <5-HT1E>
5

>  <5-HT2A>
5.92

>  <5-HT2C>
6.27

>  <5-HT3>
5

>  <5-HT5>
5

>  <5-HT6>
5.01

>  <5-HT7>
5.17

>  <Alpha-1A>
5.52

>  <Alpha-1B>
5.62

>  <Alpha-2A>
6.26

>  <Alpha-2B>
6.65

>  <Alpha-2C>
6.68

>  <Beta-1>
5.67

>  <Beta-2>
5.07

>  <DOPAMINE D1>
5

>  <DOPAMINE D2>
5

>  <DOPAMINE D4>
5

>  <DOPAMINE D5>
5

>  <Dopamine transporter>
5

>  <HISTAMINE H1>
5

>  <HISTAMINE H2>
5

>  <Muscarinic acetylcholine receptor M1>
5.61

>  <Muscarinic acetylcholine receptor M2>
5.39

>  <Muscarinic acetylcholine receptor M3>
5.22

>  <Muscarinic acetylcholine receptor M4>
5.1

>  <Muscarinic acetylcholine receptor M5>
5

>  <Norepinephrine transporter>
5

>  <Serotonin transporter>
6.18

$$$$
Diclofenac
  Marvin  02231216192D 0   1.00000     0.00000     0

 19 20  0  0  0  0  0  0  0  0999 V2000
    1.8639   -0.1839    0.0000 Cl  0  0  0  0  0  0  0  0  0
    1.8639   -1.0089    0.0000 C   0  0  0  0  0  0  0  0  0
    2.5784   -1.4214    0.0000 C   0  0  0  0  0  0  0  0  0
    2.5784   -2.2464    0.0000 C   0  0  0  0  0  0  0  0  0
    1.8639   -2.6589    0.0000 C   0  0  0  0  0  0  0  0  0
    1.1494   -2.2464    0.0000 C   0  0  0  0  0  0  0  0  0
    0.4350   -2.6589    0.0000 Cl  0  0  0  0  0  0  0  0  0
    1.1494   -1.4214    0.0000 C   0  0  0  0  0  0  0  0  0
    0.4350   -1.0089    0.0000 N   0  0  0  0  0  0  0  0  0
   -0.2795   -1.4214    0.0000 C   0  0  0  0  0  0  0  0  0
   -0.2795   -2.2464    0.0000 C   0  0  0  0  0  0  0  0  0
   -0.9940   -2.6589    0.0000 C   0  0  0  0  0  0  0  0  0
   -1.7085   -2.2464    0.0000 C   0  0  0  0  0  0  0  0  0
   -1.7085   -1.4214    0.0000 C   0  0  0  0  0  0  0  0  0
   -0.9940   -1.0089    0.0000 C   0  0  0  0  0  0  0  0  0
   -0.9940   -0.1839    0.0000 C   0  0  0  0  0  0  0  0  0
   -0.2795    0.2286    0.0000 C   0  0  0  0  0  0  0  0  0
   -0.2795    1.0536    0.0000 O   0  0  0  0  0  0  0  0  0
    0.4350   -0.1839    0.0000 O   0  0  0  0  0  0  0  0  0
  1  2  1  0  0  0  0
  2  3  4  0  0  0  0
  2  8  4  0  0  0  0
  3  4  4  0  0  0  0
  4  5  4  0  0  0  0
  5  6  4  0  0  0  0
  6  7  1  0  0  0  0
  6  8  4  0  0  0  0
  8  9  1  0  0  0  0
  9 10  1  0  0  0  0
 10 11  4  0  0  0  0
 10 15  4  0  0  0  0
 11 12  4  0  0  0  0
 12 13  4  0  0  0  0
 13 14  4  0  0  0  0
 14 15  4  0  0  0  0
 15 16  1  0  0  0  0
 16 17  1  0  0  0  0
 17 18  1  0  0  0  0
 17 19  2  0  0  0  0
M  END
>  <Name_Molregno>
Diclofenac

>  <5-HT1A>
5

>  <5-HT1B>
5

>  <5-HT1D>
5

>  <5-HT1E>
5

>  <5-HT2A>
5

>  <5-HT3>
5

>  <5-HT5>
5

>  <5-HT6>
5

>  <5-HT7>
5

>  <Alpha-1A>
5

>  <Alpha-1B>
5

>  <Alpha-2A>
5

>  <Alpha-2B>
5

>  <Alpha-2C>
5

>  <DOPAMINE D1>
5

>  <DOPAMINE D2>
5

>  <DOPAMINE D4>
5

>  <DOPAMINE D5>
5

>  <HISTAMINE H1>
5

>  <HISTAMINE H2>
5

>  <Muscarinic acetylcholine receptor M2>
5

>  <Muscarinic acetylcholine receptor M5>
5

$$$$
DL-homocysteine
  Marvin  02231216192D 0   1.00000     0.00000     0

  8  7  0  0  1  0  0  0  0  0999 V2000
   -0.0519    0.0021    0.0000 S   0  0  0  0  0  0  0  0  0
    0.6626    0.4146    0.0000 C   0  0  0  0  0  0  0  0  0
    1.3770    0.0021    0.0000 C   0  0  0  0  0  0  0  0  0
    2.0915    0.4146    0.0000 C   0  0  0  0  0  0  0  0  0
    2.0915    1.2396    0.0000 N   0  0  0  0  0  0  0  0  0
    2.8060    0.0021    0.0000 C   0  0  0  0  0  0  0  0  0
    3.5205    0.4146    0.0000 O   0  0  0  0  0  0  0  0  0
    2.8060   -0.8229    0.0000 O   0  0  0  0  0  0  0  0  0
  1  2  1  0  0  0  0
  2  3  1  0  0  0  0
  3  4  1  0  0  0  0
  4  5  1  0  0  0  0
  4  6  1  0  0  0  0
  6  7  1  0  0  0  0
  6  8  2  0  0  0  0
M  END
>  <Name_Molregno>
DL-homocysteine

>  <5-HT1A>
5

>  <5-HT1B>
5

>  <5-HT1D>
5

>  <5-HT3>
5

>  <5-HT5>
5

>  <5-HT6>
5

>  <5-HT7>
5

>  <Alpha-1A>
5

>  <Alpha-1B>
5

>  <Alpha-2A>
5

>  <Alpha-2B>
5

>  <Alpha-2C>
5

>  <DOPAMINE D1>
5

>  <DOPAMINE D2>
5

>  <DOPAMINE D3>
5

>  <DOPAMINE D5>
5

>  <Dopamine transporter>
5

>  <HISTAMINE H1>
5

>  <HISTAMINE H2>
5

>  <HISTAMINE H4>
5

>  <Muscarinic acetylcholine receptor M1>
5

>  <Muscarinic acetylcholine receptor M2>
5

>  <Muscarinic acetylcholine receptor M3>
5

>  <Muscarinic acetylcholine receptor M4>
5

>  <Muscarinic acetylcholine receptor M5>
5

>  <Norepinephrine transporter>
5

>  <Serotonin transporter>
5

$$$$
D-methionine
  Marvin  02231216192D 0   1.00000     0.00000     0

  9  8  0  0  1  0  0  0  0  0999 V2000
   -0.3763    1.2394    0.0000 S   0  0  0  0  0  0  0  0  0
    0.3381    0.8269    0.0000 C   0  0  0  0  0  0  0  0  0
    1.0526    1.2394    0.0000 C   0  0  0  0  0  0  0  0  0
    1.7671    0.8269    0.0000 C   0  0  0  0  0  0  0  0  0
    1.7671    0.0019    0.0000 N   0  0  0  0  0  0  0  0  0
    2.4816    1.2394    0.0000 C   0  0  0  0  0  0  0  0  0
    3.1960    0.8269    0.0000 O   0  0  0  0  0  0  0  0  0
    2.4816    2.0644    0.0000 O   0  0  0  0  0  0  0  0  0
   -1.0908    0.8269    0.0000 C   0  0  0  0  0  0  0  0  0
  1  2  1  0  0  0  0
  1  9  1  0  0  0  0
  2  3  1  0  0  0  0
  3  4  1  0  0  0  0
  4  5  1  0  0  0  0
  4  6  1  0  0  0  0
  6  7  1  0  0  0  0
  6  8  2  0  0  0  0
M  END
>  <Name_Molregno>
D-methionine

>  <5-HT1A>
5

>  <5-HT1B>
5

>  <5-HT1D>
5

>  <5-HT3>
5

>  <5-HT5>
5

>  <5-HT6>
5

>  <5-HT7>
5

>  <Alpha-1A>
5

>  <Alpha-1B>
5

>  <Alpha-2A>
5

>  <Alpha-2B>
5

>  <Alpha-2C>
5

>  <DOPAMINE D1>
5

>  <DOPAMINE D2>
5

>  <DOPAMINE D3>
5

>  <DOPAMINE D5>
5

>  <Dopamine transporter>
5

>  <HISTAMINE H1>
5

>  <HISTAMINE H2>
5

>  <HISTAMINE H4>
5

>  <Muscarinic acetylcholine receptor M1>
5

>  <Muscarinic acetylcholine receptor M2>
5

>  <Muscarinic acetylcholine receptor M3>
5

>  <Muscarinic acetylcholine receptor M4>
5

>  <Muscarinic acetylcholine receptor M5>
5

>  <Norepinephrine transporter>
5

>  <Serotonin transporter>
5

$$$$
Ephedrine
  Marvin  02231216192D 0   1.00000     0.00000     0

 12 12  0  0  1  0  0  0  0  0999 V2000
    1.9192   -0.0549    0.0000 O   0  0  0  0  0  0  0  0  0
    1.2047   -0.4674    0.0000 C   0  0  0  0  0  0  0  0  0
    0.4903   -0.0549    0.0000 C   0  0  0  0  0  0  0  0  0
    0.4903    0.7701    0.0000 N   0  0  0  0  0  0  0  0  0
   -0.2242    1.1826    0.0000 C   0  0  0  0  0  0  0  0  0
   -0.2242   -0.4674    0.0000 C   0  0  0  0  0  0  0  0  0
    1.2047   -1.2924    0.0000 C   0  0  0  0  0  0  0  0  0
    1.9192   -1.7049    0.0000 C   0  0  0  0  0  0  0  0  0
    1.9192   -2.5299    0.0000 C   0  0  0  0  0  0  0  0  0
    1.2047   -2.9424    0.0000 C   0  0  0  0  0  0  0  0  0
    0.4903   -2.5299    0.0000 C   0  0  0  0  0  0  0  0  0
    0.4903   -1.7049    0.0000 C   0  0  0  0  0  0  0  0  0
  1  2  1  0  0  0  0
  2  3  1  0  0  0  0
  2  7  1  0  0  0  0
  3  4  1  0  0  0  0
  3  6  1  0  0  0  0
  4  5  1  0  0  0  0
  7  8  4  0  0  0  0
  7 12  4  0  0  0  0
  8  9  4  0  0  0  0
  9 10  4  0  0  0  0
 10 11  4  0  0  0  0
 11 12  4  0  0  0  0
M  END
>  <Name_Molregno>
Ephedrine

>  <5-HT1A>
5

>  <5-HT1B>
5

>  <5-HT1D>
5

>  <5-HT1E>
5

>  <5-HT3>
5

>  <5-HT5>
5

>  <5-HT6>
5

>  <5-HT7>
5.33

>  <Alpha-1A>
5

>  <Alpha-1B>
5

>  <Alpha-2A>
5.17

>  <Alpha-2B>
5.48

>  <Alpha-2C>
5.51

>  <Beta-1>
5

>  <Beta-2>
5

>  <DOPAMINE D1>
5

>  <DOPAMINE D2>
5

>  <DOPAMINE D4>
5

>  <DOPAMINE D5>
5

>  <Dopamine transporter>
5.38

>  <HISTAMINE H1>
5

>  <HISTAMINE H2>
5

>  <HISTAMINE H4>
5

>  <Muscarinic acetylcholine receptor M1>
5

>  <Muscarinic acetylcholine receptor M2>
5

>  <Muscarinic acetylcholine receptor M3>
5

>  <Muscarinic acetylcholine receptor M4>
5

>  <Muscarinic acetylcholine receptor M5>
5

>  <Norepinephrine transporter>
5.79

>  <Serotonin transporter>
5

$$$$
ERGOTAMINE
  Marvin  02231216192D 0   1.00000     0.00000     0

 43 50  0  0  1  0  0  0  0  0999 V2000
   -2.1239   -1.0172    0.0000 O   0  0  0  0  0  0  0  0  0
   -1.3035   -1.1045    0.0000 C   0  0  0  0  0  0  0  0  0
   -1.3025   -0.2795    0.0000 N   0  0  0  0  0  0  0  0  0
   -0.5876    0.1322    0.0000 C   0  0  0  0  0  0  0  0  0
    0.1264   -0.2812    0.0000 O   0  0  0  0  0  0  0  0  0
   -0.5866    0.9572    0.0000 C   0  0  0  0  0  0  0  0  0
    0.1284    1.3688    0.0000 C   0  0  0  0  0  0  0  0  0
    0.1294    2.1938    0.0000 C   0  0  0  0  0  0  0  0  0
   -0.5846    2.6072    0.0000 C   0  0  0  0  0  0  0  0  0
   -1.2996    2.1955    0.0000 N   0  0  0  0  0  0  0  0  0
   -1.3006    1.3705    0.0000 C   0  0  0  0  0  0  0  0  0
   -2.0136    2.6089    0.0000 C   0  0  0  0  0  0  0  0  0
   -0.5831    3.4313    0.0000 C   0  0  0  0  0  0  0  0  0
    0.1294    3.8438    0.0000 C   0  0  0  0  0  0  0  0  0
    0.8419    3.4313    0.0000 C   0  0  0  0  0  0  0  0  0
    0.8419    2.6063    0.0000 C   0  0  0  0  0  0  0  0  0
    1.5597    2.1938    0.0000 C   0  0  0  0  0  0  0  0  0
    2.2722    2.6063    0.0000 C   0  0  0  0  0  0  0  0  0
    2.2722    3.4313    0.0000 C   0  0  0  0  0  0  0  0  0
    1.5597    3.8438    0.0000 C   0  0  0  0  0  0  0  0  0
    1.2544    4.7010    0.0000 N   0  0  0  0  0  0  0  0  0
    0.4294    4.7010    0.0000 C   0  0  0  0  0  0  0  0  0
   -0.4830   -1.0192    0.0000 C   0  0  0  0  0  0  0  0  0
   -1.1330   -1.9116    0.0000 C   0  0  0  0  0  0  0  0  0
   -0.3797   -2.2481    0.0000 O   0  0  0  0  0  0  0  0  0
   -1.8479   -2.3233    0.0000 N   0  0  0  0  0  0  0  0  0
   -2.0204   -3.1301    0.0000 C   0  0  0  0  0  0  0  0  0
   -1.4080   -3.6828    0.0000 C   0  0  0  0  0  0  0  0  0
   -1.5805   -4.4896    0.0000 C   0  0  0  0  0  0  0  0  0
   -0.9681   -5.0424    0.0000 C   0  0  0  0  0  0  0  0  0
   -1.1406   -5.8491    0.0000 C   0  0  0  0  0  0  0  0  0
   -1.9255   -6.1031    0.0000 C   0  0  0  0  0  0  0  0  0
   -2.5379   -5.5504    0.0000 C   0  0  0  0  0  0  0  0  0
   -2.3654   -4.7436    0.0000 C   0  0  0  0  0  0  0  0  0
   -2.8054   -3.3841    0.0000 C   0  0  0  0  0  0  0  0  0
   -2.9779   -4.1908    0.0000 O   0  0  0  0  0  0  0  0  0
   -3.4178   -2.8313    0.0000 N   0  0  0  0  0  0  0  0  0
   -3.2453   -2.0245    0.0000 C   0  0  0  0  0  0  0  0  0
   -3.9593   -1.6112    0.0000 C   0  0  0  0  0  0  0  0  0
   -4.5730   -2.1625    0.0000 C   0  0  0  0  0  0  0  0  0
   -4.2384   -2.9165    0.0000 C   0  0  0  0  0  0  0  0  0
   -2.4604   -1.7705    0.0000 C   0  0  0  0  0  0  0  0  0
   -3.0117   -1.1568    0.0000 O   0  0  0  0  0  0  0  0  0
  1  2  1  0  0  0  0
  1 42  1  0  0  0  0
  2  3  1  0  0  0  0
  2 23  1  0  0  0  0
  2 24  1  0  0  0  0
  3  4  1  0  0  0  0
  4  5  2  0  0  0  0
  4  6  1  0  0  0  0
  6  7  1  0  0  0  0
  6 11  1  0  0  0  0
  7  8  2  0  0  0  0
  8  9  1  0  0  0  0
  8 16  1  0  0  0  0
  9 10  1  0  0  0  0
  9 13  1  0  0  0  0
 10 11  1  0  0  0  0
 10 12  1  0  0  0  0
 13 14  1  0  0  0  0
 14 15  4  0  0  0  0
 14 22  4  0  0  0  0
 15 16  4  0  0  0  0
 15 20  4  0  0  0  0
 16 17  4  0  0  0  0
 17 18  4  0  0  0  0
 18 19  4  0  0  0  0
 19 20  4  0  0  0  0
 20 21  4  0  0  0  0
 21 22  4  0  0  0  0
 24 25  2  0  0  0  0
 24 26  1  0  0  0  0
 26 27  1  0  0  0  0
 26 42  1  0  0  0  0
 27 28  1  0  0  0  0
 27 35  1  0  0  0  0
 28 29  1  0  0  0  0
 29 30  4  0  0  0  0
 29 34  4  0  0  0  0
 30 31  4  0  0  0  0
 31 32  4  0  0  0  0
 32 33  4  0  0  0  0
 33 34  4  0  0  0  0
 35 36  2  0  0  0  0
 35 37  1  0  0  0  0
 37 38  1  0  0  0  0
 37 41  1  0  0  0  0
 38 39  1  0  0  0  0
 38 42  1  0  0  0  0
 39 40  1  0  0  0  0
 40 41  1  0  0  0  0
 42 43  1  0  0  0  0
M  STY  1   1 DAT
M  SAL   1  1  21
M  SDT   1 MRV_IMPLICIT_H                                        
M  SDD   1     0.0000    0.0000    DR    ALL  0       0  
M  SED   1 IMPL_H1
M  END
>  <Name_Molregno>
ERGOTAMINE

>  <5-HT1A>
9.77

>  <5-HT1B>
8.33

>  <5-HT1D>
9

>  <5-HT1E>
6.58

>  <5-HT2A>
9.1

>  <5-HT2C>
8.37

>  <5-HT3>
5

>  <5-HT6>
7.92

>  <5-HT7>
5.89

>  <Alpha-1A>
5

>  <Alpha-1B>
5

>  <Alpha-2A>
6.97

>  <Alpha-2B>
7.05

>  <Alpha-2C>
5

>  <Beta-1>
5

>  <Beta-2>
5

>  <DOPAMINE D1>
5

>  <DOPAMINE D2>
5

>  <DOPAMINE D4>
5

>  <DOPAMINE D5>
6.77

>  <Dopamine transporter>
5

>  <HISTAMINE H1>
5

>  <HISTAMINE H2>
5

>  <Muscarinic acetylcholine receptor M1>
6.06

>  <Muscarinic acetylcholine receptor M2>
6.04

>  <Muscarinic acetylcholine receptor M3>
5

>  <Muscarinic acetylcholine receptor M4>
5

>  <Muscarinic acetylcholine receptor M5>
5

>  <Norepinephrine transporter>
5

>  <Serotonin transporter>
5

$$$$
ETORICOXIB
  Marvin  02231216192D 0   1.00000     0.00000     0

 24 26  0  0  0  0  0  0  0  0999 V2000
    1.3103    1.0543    0.0000 Cl  0  0  0  0  0  0  0  0  0
    1.3103    0.2293    0.0000 C   0  0  0  0  0  0  0  0  0
    2.0248   -0.1832    0.0000 C   0  0  0  0  0  0  0  0  0
    2.0248   -1.0082    0.0000 C   0  0  0  0  0  0  0  0  0
    1.3103   -1.4207    0.0000 C   0  0  0  0  0  0  0  0  0
    0.5958   -1.0082    0.0000 N   0  0  0  0  0  0  0  0  0
    0.5958   -0.1832    0.0000 C   0  0  0  0  0  0  0  0  0
    1.3103   -2.2457    0.0000 C   0  0  0  0  0  0  0  0  0
    2.0248   -2.6582    0.0000 C   0  0  0  0  0  0  0  0  0
    2.0248   -3.4832    0.0000 C   0  0  0  0  0  0  0  0  0
    1.3103   -3.8957    0.0000 C   0  0  0  0  0  0  0  0  0
    0.5958   -3.4832    0.0000 N   0  0  0  0  0  0  0  0  0
    0.5958   -2.6582    0.0000 C   0  0  0  0  0  0  0  0  0
    1.3103   -4.7207    0.0000 C   0  0  0  0  0  0  0  0  0
    2.7392   -1.4207    0.0000 C   0  0  0  0  0  0  0  0  0
    3.4537   -1.0082    0.0000 C   0  0  0  0  0  0  0  0  0
    4.1682   -1.4207    0.0000 C   0  0  0  0  0  0  0  0  0
    4.1682   -2.2457    0.0000 C   0  0  0  0  0  0  0  0  0
    4.8826   -2.6582    0.0000 S   0  0  0  0  0  0  0  0  0
    5.5971   -3.0707    0.0000 O   0  0  0  0  0  0  0  0  0
    4.4701   -3.3727    0.0000 O   0  0  0  0  0  0  0  0  0
    5.2951   -1.9437    0.0000 C   0  0  0  0  0  0  0  0  0
    3.4537   -2.6582    0.0000 C   0  0  0  0  0  0  0  0  0
    2.7392   -2.2457    0.0000 C   0  0  0  0  0  0  0  0  0
  1  2  1  0  0  0  0
  2  3  4  0  0  0  0
  2  7  4  0  0  0  0
  3  4  4  0  0  0  0
  4  5  4  0  0  0  0
  4 15  1  0  0  0  0
  5  6  4  0  0  0  0
  5  8  1  0  0  0  0
  6  7  4  0  0  0  0
  8  9  4  0  0  0  0
  8 13  4  0  0  0  0
  9 10  4  0  0  0  0
 10 11  4  0  0  0  0
 11 12  4  0  0  0  0
 11 14  1  0  0  0  0
 12 13  4  0  0  0  0
 15 16  4  0  0  0  0
 15 24  4  0  0  0  0
 16 17  4  0  0  0  0
 17 18  4  0  0  0  0
 18 19  1  0  0  0  0
 18 23  4  0  0  0  0
 19 20  2  0  0  0  0
 19 21  2  0  0  0  0
 19 22  1  0  0  0  0
 23 24  4  0  0  0  0
M  END
>  <Name_Molregno>
ETORICOXIB

>  <5-HT1A>
5

>  <5-HT1B>
5

>  <5-HT1D>
5

>  <5-HT1E>
5

>  <5-HT2A>
5

>  <5-HT3>
5

>  <5-HT6>
5

>  <5-HT7>
5

>  <Alpha-1A>
5

>  <Alpha-1B>
5

>  <Alpha-2A>
5

>  <Alpha-2B>
5

>  <Alpha-2C>
5

>  <DOPAMINE D1>
5

>  <DOPAMINE D2>
5

>  <DOPAMINE D5>
5

>  <Dopamine transporter>
5

>  <HISTAMINE H2>
5

>  <HISTAMINE H4>
5

>  <Muscarinic acetylcholine receptor M1>
5

>  <Norepinephrine transporter>
5

>  <Serotonin transporter>
5

$$$$
FLUPHENAZINE
  Marvin  02231216192D 0   1.00000     0.00000     0

 38 41  0  0  0  0  0  0  0  0999 V2000
   -7.1492   -1.5262    0.0000 S   0  0  0  0  0  0  0  0  0
   -7.1492   -2.3512    0.0000 C   0  0  0  0  0  0  0  0  0
   -6.4348   -2.7637    0.0000 C   0  0  0  0  0  0  0  0  0
   -5.7203   -2.3512    0.0000 N   0  0  0  0  0  0  0  0  0
   -5.7203   -1.5262    0.0000 C   0  0  0  0  0  0  0  0  0
   -6.4348   -1.1137    0.0000 C   0  0  0  0  0  0  0  0  0
   -6.4348   -0.2887    0.0000 C   0  0  0  0  0  0  0  0  0
   -5.7203    0.1238    0.0000 C   0  0  0  0  0  0  0  0  0
   -5.0058   -0.2887    0.0000 C   0  0  0  0  0  0  0  0  0
   -5.0058   -1.1137    0.0000 C   0  0  0  0  0  0  0  0  0
   -5.0058   -2.7637    0.0000 C   0  0  0  0  0  0  0  0  0
   -4.2914   -2.3512    0.0000 C   0  0  0  0  0  0  0  0  0
   -3.5769   -2.7637    0.0000 C   0  0  0  0  0  0  0  0  0
   -2.8624   -2.3512    0.0000 N   0  0  0  0  0  0  0  0  0
   -2.8624   -1.5262    0.0000 C   0  0  0  0  0  0  0  0  0
   -2.1479   -1.1137    0.0000 C   0  0  0  0  0  0  0  0  0
   -1.4335   -1.5262    0.0000 N   0  0  0  0  0  0  0  0  0
   -1.4335   -2.3512    0.0000 C   0  0  0  0  0  0  0  0  0
   -2.1479   -2.7637    0.0000 C   0  0  0  0  0  0  0  0  0
   -0.7190   -1.1137    0.0000 C   0  0  0  0  0  0  0  0  0
   -0.0045   -1.5262    0.0000 C   0  0  0  0  0  0  0  0  0
    0.7099   -1.1137    0.0000 O   0  0  0  0  0  0  0  0  0
    1.4244   -1.5262    0.0000 C   0  0  0  0  0  0  0  0  0
    1.4244   -2.3512    0.0000 O   0  0  0  0  0  0  0  0  0
    2.1389   -1.1137    0.0000 C   0  0  0  0  0  0  0  0  0
    2.8534   -1.5262    0.0000 C   0  0  0  0  0  0  0  0  0
    3.5678   -1.1137    0.0000 C   0  0  0  0  0  0  0  0  0
    4.2823   -1.5262    0.0000 C   0  0  0  0  0  0  0  0  0
    4.9968   -1.1137    0.0000 C   0  0  0  0  0  0  0  0  0
    5.7112   -1.5262    0.0000 C   0  0  0  0  0  0  0  0  0
   -6.4348   -3.5887    0.0000 C   0  0  0  0  0  0  0  0  0
   -7.1492   -4.0012    0.0000 C   0  0  0  0  0  0  0  0  0
   -7.8637   -3.5887    0.0000 C   0  0  0  0  0  0  0  0  0
   -7.8637   -2.7637    0.0000 C   0  0  0  0  0  0  0  0  0
   -7.1492   -4.8262    0.0000 C   0  0  0  0  0  0  0  0  0
   -7.1492   -5.6512    0.0000 F   0  0  0  0  0  0  0  0  0
   -7.9742   -4.8262    0.0000 F   0  0  0  0  0  0  0  0  0
   -6.3242   -4.8262    0.0000 F   0  0  0  0  0  0  0  0  0
  1  2  1  0  0  0  0
  1  6  1  0  0  0  0
  2  3  4  0  0  0  0
  2 34  4  0  0  0  0
  3  4  1  0  0  0  0
  3 31  4  0  0  0  0
  4  5  1  0  0  0  0
  4 11  1  0  0  0  0
  5  6  4  0  0  0  0
  5 10  4  0  0  0  0
  6  7  4  0  0  0  0
  7  8  4  0  0  0  0
  8  9  4  0  0  0  0
  9 10  4  0  0  0  0
 11 12  1  0  0  0  0
 12 13  1  0  0  0  0
 13 14  1  0  0  0  0
 14 15  1  0  0  0  0
 14 19  1  0  0  0  0
 15 16  1  0  0  0  0
 16 17  1  0  0  0  0
 17 18  1  0  0  0  0
 17 20  1  0  0  0  0
 18 19  1  0  0  0  0
 20 21  1  0  0  0  0
 21 22  1  0  0  0  0
 22 23  1  0  0  0  0
 23 24  2  0  0  0  0
 23 25  1  0  0  0  0
 25 26  1  0  0  0  0
 26 27  1  0  0  0  0
 27 28  1  0  0  0  0
 28 29  1  0  0  0  0
 29 30  1  0  0  0  0
 31 32  4  0  0  0  0
 32 33  4  0  0  0  0
 32 35  1  0  0  0  0
 33 34  4  0  0  0  0
 35 36  1  0  0  0  0
 35 37  1  0  0  0  0
 35 38  1  0  0  0  0
M  END
>  <Name_Molregno>
FLUPHENAZINE

>  <5-HT1A>
6.41

>  <5-HT1B>
6.48

>  <5-HT1D>
6.48

>  <5-HT1E>
6.27

>  <5-HT2A>
7.87

>  <5-HT2C>
6.05

>  <5-HT3>
5

>  <5-HT5>
6.84

>  <5-HT6>
7.46

>  <5-HT7>
8.1

>  <Alpha-1A>
8.19

>  <Alpha-1B>
7.89

>  <Alpha-2A>
6.5

>  <Alpha-2B>
7.09

>  <Alpha-2C>
7.54

>  <Beta-1>
5

>  <Beta-2>
5

>  <DOPAMINE D1>
7.55

>  <DOPAMINE D2>
9.22

>  <DOPAMINE D3>
9.33

>  <DOPAMINE D4>
7.52

>  <DOPAMINE D5>
7.82

>  <Dopamine transporter>
5

>  <HISTAMINE H1>
7.72

>  <HISTAMINE H2>
6.25

>  <HISTAMINE H3>
6

>  <HISTAMINE H4>
5

>  <Muscarinic acetylcholine receptor M1>
5.96

>  <Muscarinic acetylcholine receptor M2>
5.14

>  <Muscarinic acetylcholine receptor M3>
5.84

>  <Muscarinic acetylcholine receptor M4>
5.27

>  <Muscarinic acetylcholine receptor M5>
6.45

>  <Norepinephrine transporter>
5.51

>  <Serotonin transporter>
5.23

$$$$
HALOPERIDOL
  Marvin  02231216192D 0   1.00000     0.00000     0

 26 28  0  0  0  0  0  0  0  0999 V2000
    1.7138    2.6466    0.0000 Cl  0  0  0  0  0  0  0  0  0
    1.9960    1.8714    0.0000 C   0  0  0  0  0  0  0  0  0
    2.8084    1.7281    0.0000 C   0  0  0  0  0  0  0  0  0
    3.0906    0.9529    0.0000 C   0  0  0  0  0  0  0  0  0
    2.5603    0.3209    0.0000 C   0  0  0  0  0  0  0  0  0
    1.7478    0.4642    0.0000 C   0  0  0  0  0  0  0  0  0
    1.4657    1.2394    0.0000 C   0  0  0  0  0  0  0  0  0
    2.8425   -0.4543    0.0000 C   0  0  0  0  0  0  0  0  0
    2.0300   -0.5976    0.0000 O   0  0  0  0  0  0  0  0  0
    3.5569   -0.0418    0.0000 C   0  0  0  0  0  0  0  0  0
    4.2714   -0.4543    0.0000 C   0  0  0  0  0  0  0  0  0
    4.2714   -1.2793    0.0000 N   0  0  0  0  0  0  0  0  0
    3.5569   -1.6918    0.0000 C   0  0  0  0  0  0  0  0  0
    2.8425   -1.2793    0.0000 C   0  0  0  0  0  0  0  0  0
    4.9859   -1.6918    0.0000 C   0  0  0  0  0  0  0  0  0
    5.7003   -1.2793    0.0000 C   0  0  0  0  0  0  0  0  0
    6.4148   -1.6918    0.0000 C   0  0  0  0  0  0  0  0  0
    7.1293   -1.2793    0.0000 C   0  0  0  0  0  0  0  0  0
    7.1293   -0.4543    0.0000 O   0  0  0  0  0  0  0  0  0
    7.8438   -1.6918    0.0000 C   0  0  0  0  0  0  0  0  0
    8.5582   -1.2793    0.0000 C   0  0  0  0  0  0  0  0  0
    9.2727   -1.6918    0.0000 C   0  0  0  0  0  0  0  0  0
    9.2727   -2.5168    0.0000 C   0  0  0  0  0  0  0  0  0
    9.9872   -2.9293    0.0000 F   0  0  0  0  0  0  0  0  0
    8.5582   -2.9293    0.0000 C   0  0  0  0  0  0  0  0  0
    7.8438   -2.5168    0.0000 C   0  0  0  0  0  0  0  0  0
  1  2  1  0  0  0  0
  2  3  4  0  0  0  0
  2  7  4  0  0  0  0
  3  4  4  0  0  0  0
  4  5  4  0  0  0  0
  5  6  4  0  0  0  0
  5  8  1  0  0  0  0
  6  7  4  0  0  0  0
  8  9  1  0  0  0  0
  8 10  1  0  0  0  0
  8 14  1  0  0  0  0
 10 11  1  0  0  0  0
 11 12  1  0  0  0  0
 12 13  1  0  0  0  0
 12 15  1  0  0  0  0
 13 14  1  0  0  0  0
 15 16  1  0  0  0  0
 16 17  1  0  0  0  0
 17 18  1  0  0  0  0
 18 19  2  0  0  0  0
 18 20  1  0  0  0  0
 20 21  4  0  0  0  0
 20 26  4  0  0  0  0
 21 22  4  0  0  0  0
 22 23  4  0  0  0  0
 23 24  1  0  0  0  0
 23 25  4  0  0  0  0
 25 26  4  0  0  0  0
M  END
>  <Name_Molregno>
HALOPERIDOL

>  <5-HT1A>
5.67

>  <5-HT1B>
6.63

>  <5-HT1D>
5.56

>  <5-HT1E>
5.15

>  <5-HT2A>
7.01

>  <5-HT2C>
5.24

>  <5-HT3>
5

>  <5-HT5>
5.65

>  <5-HT6>
5.28

>  <5-HT7>
6.32

>  <Alpha-1A>
7.92

>  <Alpha-1B>
8.1

>  <Alpha-2A>
6.04

>  <Alpha-2B>
6.32

>  <Alpha-2C>
6.34

>  <Beta-1>
5

>  <Beta-2>
5.15

>  <DOPAMINE D1>
7.22

>  <DOPAMINE D2>
8.75

>  <DOPAMINE D3>
8.33

>  <DOPAMINE D4>
8.29

>  <DOPAMINE D5>
7.03

>  <Dopamine transporter>
5

>  <HISTAMINE H1>
6.04

>  <HISTAMINE H2>
6

>  <HISTAMINE H4>
5

>  <Muscarinic acetylcholine receptor M1>
5.4

>  <Muscarinic acetylcholine receptor M2>
5

>  <Muscarinic acetylcholine receptor M3>
5

>  <Muscarinic acetylcholine receptor M4>
5

>  <Muscarinic acetylcholine receptor M5>
5.59

>  <Norepinephrine transporter>
5.68

>  <Serotonin transporter>
5.74

$$$$
HISTAMINE
  Marvin  02231216192D 0   1.00000     0.00000     0

  8  8  0  0  0  0  0  0  0  0999 V2000
    1.0236   -1.0521    0.0000 N   0  0  0  0  0  0  0  0  0
    0.7687   -1.8367    0.0000 C   0  0  0  0  0  0  0  0  0
   -0.0563   -1.8367    0.0000 N   0  0  0  0  0  0  0  0  0
   -0.3113   -1.0521    0.0000 C   0  0  0  0  0  0  0  0  0
    0.3562   -0.5672    0.0000 C   0  0  0  0  0  0  0  0  0
    0.3562    0.2578    0.0000 C   0  0  0  0  0  0  0  0  0
    1.0706    0.6703    0.0000 C   0  0  0  0  0  0  0  0  0
    1.0706    1.4953    0.0000 N   0  0  0  0  0  0  0  0  0
  1  2  4  0  0  0  0
  1  5  4  0  0  0  0
  2  3  4  0  0  0  0
  3  4  4  0  0  0  0
  4  5  4  0  0  0  0
  5  6  1  0  0  0  0
  6  7  1  0  0  0  0
  7  8  1  0  0  0  0
M  STY  1   1 DAT
M  SAL   1  1   1
M  SDT   1 MRV_IMPLICIT_H                                        
M  SDD   1     0.0000    0.0000    DR    ALL  0       0  
M  SED   1 IMPL_H1
M  END
>  <Name_Molregno>
HISTAMINE

>  <5-HT2A>
5

>  <5-HT3>
5

>  <5-HT7>
5

>  <HISTAMINE H1>
5.5

>  <HISTAMINE H2>
5

>  <HISTAMINE H3>
7.87

>  <HISTAMINE H4>
7.46

$$$$
ibuprofen
  Marvin  02231216192D 0   1.00000     0.00000     0

 15 15  0  0  1  0  0  0  0  0999 V2000
    3.0591   -3.4943    0.0000 O   0  0  0  0  0  0  0  0  0
    3.0591   -2.6693    0.0000 C   0  0  0  0  0  0  0  0  0
    3.7735   -2.2568    0.0000 O   0  0  0  0  0  0  0  0  0
    2.3446   -2.2568    0.0000 C   0  0  0  0  0  0  0  0  0
    1.6301   -2.6693    0.0000 C   0  0  0  0  0  0  0  0  0
    2.3446   -1.4318    0.0000 C   0  0  0  0  0  0  0  0  0
    1.6301   -1.0193    0.0000 C   0  0  0  0  0  0  0  0  0
    1.6301   -0.1943    0.0000 C   0  0  0  0  0  0  0  0  0
    2.3446    0.2182    0.0000 C   0  0  0  0  0  0  0  0  0
    3.0591   -0.1943    0.0000 C   0  0  0  0  0  0  0  0  0
    3.0591   -1.0193    0.0000 C   0  0  0  0  0  0  0  0  0
    2.3446    1.0432    0.0000 C   0  0  0  0  0  0  0  0  0
    3.0591    1.4557    0.0000 C   0  0  0  0  0  0  0  0  0
    3.0591    2.2807    0.0000 C   0  0  0  0  0  0  0  0  0
    3.7735    1.0432    0.0000 C   0  0  0  0  0  0  0  0  0
  1  2  1  0  0  0  0
  2  3  2  0  0  0  0
  2  4  1  0  0  0  0
  4  5  1  0  0  0  0
  4  6  1  0  0  0  0
  6  7  4  0  0  0  0
  6 11  4  0  0  0  0
  7  8  4  0  0  0  0
  8  9  4  0  0  0  0
  9 10  4  0  0  0  0
  9 12  1  0  0  0  0
 10 11  4  0  0  0  0
 12 13  1  0  0  0  0
 13 14  1  0  0  0  0
 13 15  1  0  0  0  0
M  END
>  <Name_Molregno>
ibuprofen

>  <5-HT1A>
5

>  <5-HT1B>
5

>  <5-HT1D>
5

>  <5-HT1E>
5

>  <5-HT2A>
5

>  <5-HT3>
5

>  <5-HT6>
5

>  <5-HT7>
5

>  <Alpha-1A>
5

>  <Alpha-1B>
5

>  <Alpha-2A>
5

>  <Alpha-2B>
5

>  <Alpha-2C>
5

>  <DOPAMINE D1>
5

>  <DOPAMINE D2>
5

>  <DOPAMINE D4>
5

>  <DOPAMINE D5>
5

>  <Dopamine transporter>
5

>  <HISTAMINE H1>
5

>  <HISTAMINE H2>
5

>  <Muscarinic acetylcholine receptor M2>
5

>  <Muscarinic acetylcholine receptor M5>
5

>  <Norepinephrine transporter>
5

>  <Serotonin transporter>
5

$$$$
Ketorolac
  Marvin  02231216192D 0   1.00000     0.00000     0

 19 21  0  0  1  0  0  0  0  0999 V2000
    1.4450    2.2138    0.0000 O   0  0  0  0  0  0  0  0  0
    2.2520    2.0422    0.0000 C   0  0  0  0  0  0  0  0  0
    2.8040    2.6553    0.0000 O   0  0  0  0  0  0  0  0  0
    2.5069    1.2576    0.0000 C   0  0  0  0  0  0  0  0  0
    2.0220    0.5902    0.0000 C   0  0  0  0  0  0  0  0  0
    2.5069   -0.0773    0.0000 C   0  0  0  0  0  0  0  0  0
    3.2915    0.1777    0.0000 N   0  0  0  0  0  0  0  0  0
    3.2915    1.0027    0.0000 C   0  0  0  0  0  0  0  0  0
    4.0761    1.2576    0.0000 C   0  0  0  0  0  0  0  0  0
    4.5611    0.5902    0.0000 C   0  0  0  0  0  0  0  0  0
    4.0761   -0.0773    0.0000 C   0  0  0  0  0  0  0  0  0
    4.3311   -0.8619    0.0000 C   0  0  0  0  0  0  0  0  0
    5.1381   -1.0334    0.0000 O   0  0  0  0  0  0  0  0  0
    3.7791   -1.4750    0.0000 C   0  0  0  0  0  0  0  0  0
    4.0340   -2.2596    0.0000 C   0  0  0  0  0  0  0  0  0
    3.4820   -2.8727    0.0000 C   0  0  0  0  0  0  0  0  0
    2.6750   -2.7012    0.0000 C   0  0  0  0  0  0  0  0  0
    2.4201   -1.9166    0.0000 C   0  0  0  0  0  0  0  0  0
    2.9721   -1.3035    0.0000 C   0  0  0  0  0  0  0  0  0
  1  2  1  0  0  0  0
  2  3  2  0  0  0  0
  2  4  1  0  0  0  0
  4  5  1  0  0  0  0
  4  8  1  0  0  0  0
  5  6  1  0  0  0  0
  6  7  1  0  0  0  0
  7  8  4  0  0  0  0
  7 11  4  0  0  0  0
  8  9  4  0  0  0  0
  9 10  4  0  0  0  0
 10 11  4  0  0  0  0
 11 12  1  0  0  0  0
 12 13  2  0  0  0  0
 12 14  1  0  0  0  0
 14 15  4  0  0  0  0
 14 19  4  0  0  0  0
 15 16  4  0  0  0  0
 16 17  4  0  0  0  0
 17 18  4  0  0  0  0
 18 19  4  0  0  0  0
M  END
>  <Name_Molregno>
Ketorolac

>  <5-HT1A>
5

>  <5-HT1B>
5

>  <5-HT1D>
5

>  <5-HT1E>
5

>  <5-HT2A>
5

>  <5-HT3>
5

>  <5-HT5>
5

>  <5-HT6>
5

>  <5-HT7>
5

>  <Alpha-1A>
5

>  <Alpha-1B>
5

>  <Alpha-2A>
5

>  <Alpha-2B>
5

>  <Alpha-2C>
5

>  <DOPAMINE D1>
5

>  <DOPAMINE D2>
5

>  <DOPAMINE D4>
5

>  <DOPAMINE D5>
5

>  <Dopamine transporter>
5

>  <HISTAMINE H1>
5

>  <HISTAMINE H2>
5

>  <Muscarinic acetylcholine receptor M2>
5

>  <Muscarinic acetylcholine receptor M5>
5

>  <Norepinephrine transporter>
5

>  <Serotonin transporter>
5

$$$$
L-cysteic-acid
  Marvin  02231216192D 0   1.00000     0.00000     0

 10  9  0  0  1  0  0  0  0  0999 V2000
   -1.9749    0.1579    0.0000 S   0  0  0  0  0  0  0  0  0
   -2.6894    0.5704    0.0000 O   0  0  0  0  0  0  0  0  0
   -2.3874   -0.5565    0.0000 O   0  0  0  0  0  0  0  0  0
   -1.5624    0.8724    0.0000 O   0  0  0  0  0  0  0  0  0
   -1.2605   -0.2546    0.0000 C   0  0  0  0  0  0  0  0  0
   -0.5460    0.1579    0.0000 C   0  0  0  0  0  0  0  0  0
   -0.5460    0.9829    0.0000 N   0  0  0  0  0  0  0  0  0
    0.1685   -0.2546    0.0000 C   0  0  0  0  0  0  0  0  0
    0.8829    0.1579    0.0000 O   0  0  0  0  0  0  0  0  0
    0.1685   -1.0796    0.0000 O   0  0  0  0  0  0  0  0  0
  1  2  2  0  0  0  0
  1  3  2  0  0  0  0
  1  4  1  0  0  0  0
  1  5  1  0  0  0  0
  5  6  1  0  0  0  0
  6  7  1  0  0  0  0
  6  8  1  0  0  0  0
  8  9  1  0  0  0  0
  8 10  2  0  0  0  0
M  END
>  <Name_Molregno>
L-cysteic-acid

>  <5-HT1A>
5

>  <5-HT1B>
5

>  <5-HT1D>
5

>  <5-HT3>
5

>  <5-HT5>
5

>  <5-HT6>
5

>  <5-HT7>
5

>  <Alpha-1A>
5

>  <Alpha-1B>
5

>  <Alpha-2A>
5

>  <Alpha-2C>
5

>  <DOPAMINE D1>
5

>  <DOPAMINE D2>
5

>  <DOPAMINE D3>
5

>  <DOPAMINE D5>
5

>  <Dopamine transporter>
5

>  <HISTAMINE H1>
5

>  <HISTAMINE H2>
5

>  <HISTAMINE H4>
5

>  <Muscarinic acetylcholine receptor M1>
5

>  <Muscarinic acetylcholine receptor M2>
5

>  <Muscarinic acetylcholine receptor M3>
5

>  <Muscarinic acetylcholine receptor M4>
5

>  <Muscarinic acetylcholine receptor M5>
5

>  <Norepinephrine transporter>
5

>  <Serotonin transporter>
5

$$$$
L-cysteine
  Marvin  02231216192D 0   1.00000     0.00000     0

  7  6  0  0  1  0  0  0  0  0999 V2000
    1.5580    2.1190    0.0000 S   0  0  0  0  0  0  0  0  0
    1.1455    1.4045    0.0000 C   0  0  0  0  0  0  0  0  0
    1.5580    0.6901    0.0000 C   0  0  0  0  0  0  0  0  0
    2.3830    0.6901    0.0000 N   0  0  0  0  0  0  0  0  0
    1.1455   -0.0244    0.0000 C   0  0  0  0  0  0  0  0  0
    1.5580   -0.7389    0.0000 O   0  0  0  0  0  0  0  0  0
    0.3205   -0.0244    0.0000 O   0  0  0  0  0  0  0  0  0
  1  2  1  0  0  0  0
  2  3  1  0  0  0  0
  3  4  1  0  0  0  0
  3  5  1  0  0  0  0
  5  6  1  0  0  0  0
  5  7  2  0  0  0  0
M  END
>  <Name_Molregno>
L-cysteine

>  <5-HT1A>
5

>  <5-HT1B>
5

>  <5-HT1D>
5

>  <5-HT3>
5

>  <5-HT5>
5

>  <5-HT6>
5

>  <5-HT7>
5

>  <Alpha-1A>
5

>  <Alpha-1B>
5

>  <Alpha-2A>
5

>  <Alpha-2B>
5

>  <Alpha-2C>
5

>  <DOPAMINE D1>
5

>  <DOPAMINE D2>
5

>  <DOPAMINE D3>
5

>  <DOPAMINE D5>
5

>  <Dopamine transporter>
5

>  <HISTAMINE H1>
5

>  <HISTAMINE H2>
5

>  <HISTAMINE H4>
5

>  <Muscarinic acetylcholine receptor M1>
5

>  <Muscarinic acetylcholine receptor M2>
5

>  <Muscarinic acetylcholine receptor M3>
5

>  <Muscarinic acetylcholine receptor M4>
5

>  <Muscarinic acetylcholine receptor M5>
5

>  <Norepinephrine transporter>
5

>  <Serotonin transporter>
5

$$$$
L-cysteine-sulfinic-acid
  Marvin  02231216192D 0   1.00000     0.00000     0

  9  8  0  0  1  0  0  0  0  0999 V2000
   -2.0945    0.5537    0.0000 S   0  0  0  0  0  0  0  0  0
   -2.8090    0.1412    0.0000 O   0  0  0  0  0  0  0  0  0
   -2.0945    1.3787    0.0000 O   0  0  0  0  0  0  0  0  0
   -1.3800    0.1412    0.0000 C   0  0  0  0  0  0  0  0  0
   -0.6656    0.5537    0.0000 C   0  0  0  0  0  0  0  0  0
   -0.6656    1.3787    0.0000 N   0  0  0  0  0  0  0  0  0
    0.0489    0.1412    0.0000 C   0  0  0  0  0  0  0  0  0
    0.7634    0.5537    0.0000 O   0  0  0  0  0  0  0  0  0
    0.0489   -0.6838    0.0000 O   0  0  0  0  0  0  0  0  0
  1  2  2  0  0  0  0
  1  3  1  0  0  0  0
  1  4  1  0  0  0  0
  4  5  1  0  0  0  0
  5  6  1  0  0  0  0
  5  7  1  0  0  0  0
  7  8  1  0  0  0  0
  7  9  2  0  0  0  0
M  END
>  <Name_Molregno>
L-cysteine-sulfinic-acid

>  <5-HT1A>
5

>  <5-HT1B>
5

>  <5-HT1D>
5

>  <5-HT3>
5

>  <5-HT5>
5

>  <5-HT6>
5

>  <5-HT7>
5

>  <Alpha-1A>
5

>  <Alpha-1B>
5

>  <Alpha-2A>
5

>  <Alpha-2B>
5

>  <Alpha-2C>
5

>  <DOPAMINE D1>
5

>  <DOPAMINE D2>
5

>  <DOPAMINE D3>
5

>  <DOPAMINE D5>
5

>  <Dopamine transporter>
5

>  <HISTAMINE H1>
5

>  <HISTAMINE H2>
5

>  <HISTAMINE H4>
5

>  <Muscarinic acetylcholine receptor M1>
5

>  <Muscarinic acetylcholine receptor M2>
5

>  <Muscarinic acetylcholine receptor M3>
5

>  <Muscarinic acetylcholine receptor M4>
5

>  <Muscarinic acetylcholine receptor M5>
5

>  <Norepinephrine transporter>
5

>  <Serotonin transporter>
5

$$$$
L-homocysteine-thiolactone
  Marvin  02231216192D 0   1.00000     0.00000     0

  7  7  0  0  1  0  0  0  0  0999 V2000
    1.4299   -0.7189    0.0000 S   0  0  0  0  0  0  0  0  0
    1.1749   -1.5035    0.0000 C   0  0  0  0  0  0  0  0  0
    0.3499   -1.5035    0.0000 C   0  0  0  0  0  0  0  0  0
    0.0950   -0.7189    0.0000 C   0  0  0  0  0  0  0  0  0
   -0.6896   -0.4639    0.0000 N   0  0  0  0  0  0  0  0  0
    0.7624   -0.2339    0.0000 C   0  0  0  0  0  0  0  0  0
    0.7624    0.5911    0.0000 O   0  0  0  0  0  0  0  0  0
  1  2  1  0  0  0  0
  1  6  1  0  0  0  0
  2  3  1  0  0  0  0
  3  4  1  0  0  0  0
  4  5  1  0  0  0  0
  4  6  1  0  0  0  0
  6  7  2  0  0  0  0
M  END
>  <Name_Molregno>
L-homocysteine-thiolactone

>  <5-HT1A>
5

>  <5-HT3>
5

>  <5-HT5>
5

>  <5-HT6>
5

>  <5-HT7>
5

>  <Alpha-1A>
5

>  <Alpha-1B>
5

>  <Alpha-2A>
5

>  <Alpha-2B>
5

>  <Alpha-2C>
5

>  <DOPAMINE D1>
5

>  <DOPAMINE D2>
5

>  <DOPAMINE D5>
5

>  <Dopamine transporter>
5

>  <HISTAMINE H1>
5

>  <HISTAMINE H2>
5

>  <HISTAMINE H4>
5

>  <Muscarinic acetylcholine receptor M1>
5

>  <Muscarinic acetylcholine receptor M2>
5

>  <Muscarinic acetylcholine receptor M3>
5

>  <Muscarinic acetylcholine receptor M4>
5

>  <Muscarinic acetylcholine receptor M5>
5

>  <Norepinephrine transporter>
5

>  <Serotonin transporter>
5

$$$$
LOXAPINE
  Marvin  02231216192D 0   1.00000     0.00000     0

 23 26  0  0  0  0  0  0  0  0999 V2000
    3.9671    1.6854    0.0000 Cl  0  0  0  0  0  0  0  0  0
    3.1788    1.4422    0.0000 C   0  0  0  0  0  0  0  0  0
    2.5740    2.0033    0.0000 C   0  0  0  0  0  0  0  0  0
    1.7856    1.7602    0.0000 C   0  0  0  0  0  0  0  0  0
    1.6021    0.9558    0.0000 C   0  0  0  0  0  0  0  0  0
    0.8588    0.5979    0.0000 O   0  0  0  0  0  0  0  0  0
    0.1155    0.9558    0.0000 C   0  0  0  0  0  0  0  0  0
   -0.0681    1.7602    0.0000 C   0  0  0  0  0  0  0  0  0
    0.4463    2.4052    0.0000 N   0  0  0  0  0  0  0  0  0
    1.2713    2.4052    0.0000 C   0  0  0  0  0  0  0  0  0
    1.6292    3.1485    0.0000 N   0  0  0  0  0  0  0  0  0
    1.1645    3.8301    0.0000 C   0  0  0  0  0  0  0  0  0
    1.5224    4.5734    0.0000 C   0  0  0  0  0  0  0  0  0
    2.3451    4.6351    0.0000 N   0  0  0  0  0  0  0  0  0
    2.8099    3.9534    0.0000 C   0  0  0  0  0  0  0  0  0
    2.4519    3.2101    0.0000 C   0  0  0  0  0  0  0  0  0
    2.7031    5.3784    0.0000 C   0  0  0  0  0  0  0  0  0
   -0.8565    2.0033    0.0000 C   0  0  0  0  0  0  0  0  0
   -1.4612    1.4422    0.0000 C   0  0  0  0  0  0  0  0  0
   -1.2776    0.6379    0.0000 C   0  0  0  0  0  0  0  0  0
   -0.4893    0.3947    0.0000 C   0  0  0  0  0  0  0  0  0
    2.2068    0.3947    0.0000 C   0  0  0  0  0  0  0  0  0
    2.9952    0.6379    0.0000 C   0  0  0  0  0  0  0  0  0
  1  2  1  0  0  0  0
  2  3  4  0  0  0  0
  2 23  4  0  0  0  0
  3  4  4  0  0  0  0
  4  5  4  0  0  0  0
  4 10  1  0  0  0  0
  5  6  1  0  0  0  0
  5 22  4  0  0  0  0
  6  7  1  0  0  0  0
  7  8  4  0  0  0  0
  7 21  4  0  0  0  0
  8  9  1  0  0  0  0
  8 18  4  0  0  0  0
  9 10  2  0  0  0  0
 10 11  1  0  0  0  0
 11 12  1  0  0  0  0
 11 16  1  0  0  0  0
 12 13  1  0  0  0  0
 13 14  1  0  0  0  0
 14 15  1  0  0  0  0
 14 17  1  0  0  0  0
 15 16  1  0  0  0  0
 18 19  4  0  0  0  0
 19 20  4  0  0  0  0
 20 21  4  0  0  0  0
 22 23  4  0  0  0  0
M  END
>  <Name_Molregno>
LOXAPINE

>  <5-HT1A>
5.59

>  <5-HT1B>
6.41

>  <5-HT1D>
5.46

>  <5-HT1E>
5.85

>  <5-HT2A>
8.43

>  <5-HT2C>
7.9

>  <5-HT3>
6.72

>  <5-HT5>
6.11

>  <5-HT6>
7.46

>  <5-HT7>
7.06

>  <Alpha-1A>
7.51

>  <Alpha-1B>
7.28

>  <Alpha-2A>
6.82

>  <Alpha-2B>
6.97

>  <Alpha-2C>
7.1

>  <Beta-1>
5

>  <Beta-2>
5

>  <DOPAMINE D1>
7.27

>  <DOPAMINE D2>
7.74

>  <DOPAMINE D3>
7.64

>  <DOPAMINE D4>
8.04

>  <DOPAMINE D5>
7.12

>  <Dopamine transporter>
5

>  <HISTAMINE H1>
8.33

>  <HISTAMINE H2>
6.68

>  <HISTAMINE H4>
5.32

>  <Muscarinic acetylcholine receptor M1>
6.98

>  <Muscarinic acetylcholine receptor M2>
6.38

>  <Muscarinic acetylcholine receptor M3>
6.74

>  <Muscarinic acetylcholine receptor M4>
6.09

>  <Muscarinic acetylcholine receptor M5>
6.83

>  <Norepinephrine transporter>
5.24

>  <Serotonin transporter>
5

$$$$
Meloxicam
  Marvin  02231216192D 0   1.00000     0.00000     0

 23 25  0  0  0  0  0  0  0  0999 V2000
    1.0530    2.3261    0.0000 S   0  0  0  0  0  0  0  0  0
    0.2461    2.4976    0.0000 C   0  0  0  0  0  0  0  0  0
   -0.1664    1.7831    0.0000 C   0  0  0  0  0  0  0  0  0
    0.3856    1.1700    0.0000 N   0  0  0  0  0  0  0  0  0
    1.1393    1.5056    0.0000 C   0  0  0  0  0  0  0  0  0
    1.8537    1.0931    0.0000 N   0  0  0  0  0  0  0  0  0
    1.8537    0.2681    0.0000 C   0  0  0  0  0  0  0  0  0
    1.1393   -0.1444    0.0000 O   0  0  0  0  0  0  0  0  0
    2.5682   -0.1444    0.0000 C   0  0  0  0  0  0  0  0  0
    2.5682   -0.9694    0.0000 N   0  0  0  0  0  0  0  0  0
    3.2827   -1.3819    0.0000 S   0  0  0  0  0  0  0  0  0
    2.7524   -2.0139    0.0000 O   0  0  0  0  0  0  0  0  0
    3.8130   -2.0139    0.0000 O   0  0  0  0  0  0  0  0  0
    3.9972   -0.9694    0.0000 C   0  0  0  0  0  0  0  0  0
    3.9972   -0.1444    0.0000 C   0  0  0  0  0  0  0  0  0
    4.7116    0.2681    0.0000 C   0  0  0  0  0  0  0  0  0
    5.4261   -0.1444    0.0000 C   0  0  0  0  0  0  0  0  0
    5.4261   -0.9694    0.0000 C   0  0  0  0  0  0  0  0  0
    4.7116   -1.3819    0.0000 C   0  0  0  0  0  0  0  0  0
    3.2827    0.2681    0.0000 C   0  0  0  0  0  0  0  0  0
    3.2827    1.0931    0.0000 O   0  0  0  0  0  0  0  0  0
    1.8537   -1.3819    0.0000 C   0  0  0  0  0  0  0  0  0
   -0.0895    3.2513    0.0000 C   0  0  0  0  0  0  0  0  0
  1  2  4  0  0  0  0
  1  5  4  0  0  0  0
  2  3  4  0  0  0  0
  2 23  1  0  0  0  0
  3  4  4  0  0  0  0
  4  5  4  0  0  0  0
  5  6  1  0  0  0  0
  6  7  1  0  0  0  0
  7  8  1  0  0  0  0
  7  9  2  0  0  0  0
  9 10  1  0  0  0  0
  9 20  1  0  0  0  0
 10 11  1  0  0  0  0
 10 22  1  0  0  0  0
 11 12  2  0  0  0  0
 11 13  2  0  0  0  0
 11 14  1  0  0  0  0
 14 15  4  0  0  0  0
 14 19  4  0  0  0  0
 15 16  4  0  0  0  0
 15 20  1  0  0  0  0
 16 17  4  0  0  0  0
 17 18  4  0  0  0  0
 18 19  4  0  0  0  0
 20 21  2  0  0  0  0
M  END
>  <Name_Molregno>
Meloxicam

>  <5-HT1A>
5

>  <5-HT1B>
5

>  <5-HT1D>
5

>  <5-HT1E>
5

>  <5-HT2A>
5

>  <5-HT3>
5

>  <5-HT5>
5

>  <5-HT6>
5

>  <5-HT7>
5

>  <Alpha-1A>
5

>  <Alpha-1B>
5

>  <Alpha-2A>
5

>  <Alpha-2B>
5

>  <Alpha-2C>
5

>  <DOPAMINE D1>
5

>  <DOPAMINE D2>
5

>  <DOPAMINE D4>
5

>  <DOPAMINE D5>
5

>  <Dopamine transporter>
5

>  <HISTAMINE H1>
5

>  <HISTAMINE H2>
5

>  <HISTAMINE H4>
5

>  <Muscarinic acetylcholine receptor M2>
5

>  <Muscarinic acetylcholine receptor M5>
5

>  <Norepinephrine transporter>
5

>  <Serotonin transporter>
5

$$$$
Methcathinone
  Marvin  02231216192D 0   1.00000     0.00000     0

 12 12  0  0  1  0  0  0  0  0999 V2000
    1.9192   -0.0549    0.0000 O   0  0  0  0  0  0  0  0  0
    1.2047   -0.4674    0.0000 C   0  0  0  0  0  0  0  0  0
    0.4903   -0.0549    0.0000 C   0  0  0  0  0  0  0  0  0
    0.4903    0.7701    0.0000 N   0  0  0  0  0  0  0  0  0
   -0.2242    1.1826    0.0000 C   0  0  0  0  0  0  0  0  0
   -0.2242   -0.4674    0.0000 C   0  0  0  0  0  0  0  0  0
    1.2047   -1.2924    0.0000 C   0  0  0  0  0  0  0  0  0
    1.9192   -1.7049    0.0000 C   0  0  0  0  0  0  0  0  0
    1.9192   -2.5299    0.0000 C   0  0  0  0  0  0  0  0  0
    1.2047   -2.9424    0.0000 C   0  0  0  0  0  0  0  0  0
    0.4903   -2.5299    0.0000 C   0  0  0  0  0  0  0  0  0
    0.4903   -1.7049    0.0000 C   0  0  0  0  0  0  0  0  0
  1  2  2  0  0  0  0
  2  3  1  0  0  0  0
  2  7  1  0  0  0  0
  3  4  1  0  0  0  0
  3  6  1  0  0  0  0
  4  5  1  0  0  0  0
  7  8  4  0  0  0  0
  7 12  4  0  0  0  0
  8  9  4  0  0  0  0
  9 10  4  0  0  0  0
 10 11  4  0  0  0  0
 11 12  4  0  0  0  0
M  END
>  <Name_Molregno>
Methcathinone

>  <5-HT1A>
5

>  <5-HT1B>
5

>  <5-HT1D>
5

>  <5-HT1E>
5

>  <5-HT3>
5

>  <5-HT5>
5

>  <5-HT6>
5

>  <5-HT7>
6

>  <Alpha-1A>
5

>  <Alpha-1B>
5

>  <Alpha-2A>
5.04

>  <Alpha-2B>
5.81

>  <Alpha-2C>
6.22

>  <Beta-1>
5

>  <Beta-2>
5

>  <DOPAMINE D1>
5

>  <DOPAMINE D2>
5

>  <DOPAMINE D4>
5

>  <DOPAMINE D5>
5

>  <Dopamine transporter>
6.41

>  <HISTAMINE H1>
5

>  <HISTAMINE H2>
5

>  <HISTAMINE H4>
5

>  <Muscarinic acetylcholine receptor M1>
5

>  <Muscarinic acetylcholine receptor M2>
5

>  <Muscarinic acetylcholine receptor M3>
5

>  <Muscarinic acetylcholine receptor M4>
5

>  <Muscarinic acetylcholine receptor M5>
5

>  <Norepinephrine transporter>
6.87

>  <Serotonin transporter>
5.38

$$$$
METHIMEPIP
  Marvin  02231216192D 0   1.00000     0.00000     0

 13 14  0  0  0  0  0  0  0  0999 V2000
   -3.1437   -1.2213    0.0000 N   0  0  0  0  0  0  0  0  0
   -3.3986   -0.4367    0.0000 C   0  0  0  0  0  0  0  0  0
   -2.7312    0.0482    0.0000 C   0  0  0  0  0  0  0  0  0
   -2.0638   -0.4367    0.0000 N   0  0  0  0  0  0  0  0  0
   -2.3187   -1.2213    0.0000 C   0  0  0  0  0  0  0  0  0
   -2.7312    0.8732    0.0000 C   0  0  0  0  0  0  0  0  0
   -2.0167    1.2857    0.0000 C   0  0  0  0  0  0  0  0  0
   -2.0167    2.1107    0.0000 C   0  0  0  0  0  0  0  0  0
   -1.3022    2.5232    0.0000 C   0  0  0  0  0  0  0  0  0
   -0.5878    2.1107    0.0000 N   0  0  0  0  0  0  0  0  0
   -0.5878    1.2857    0.0000 C   0  0  0  0  0  0  0  0  0
   -1.3022    0.8732    0.0000 C   0  0  0  0  0  0  0  0  0
    0.1267    2.5232    0.0000 C   0  0  0  0  0  0  0  0  0
  1  2  4  0  0  0  0
  1  5  4  0  0  0  0
  2  3  4  0  0  0  0
  3  4  4  0  0  0  0
  3  6  1  0  0  0  0
  4  5  4  0  0  0  0
  6  7  1  0  0  0  0
  7  8  1  0  0  0  0
  7 12  1  0  0  0  0
  8  9  1  0  0  0  0
  9 10  1  0  0  0  0
 10 11  1  0  0  0  0
 10 13  1  0  0  0  0
 11 12  1  0  0  0  0
M  STY  1   1 DAT
M  SAL   1  1   1
M  SDT   1 MRV_IMPLICIT_H                                        
M  SDD   1     0.0000    0.0000    DR    ALL  0       0  
M  SED   1 IMPL_H1
M  END
>  <Name_Molregno>
METHIMEPIP

>  <HISTAMINE H1>
5

>  <HISTAMINE H2>
5

>  <HISTAMINE H3>
9

>  <HISTAMINE H4>
5.7

$$$$
METHYSERGIDE
  Marvin  02231216192D 0   1.00000     0.00000     0

 26 29  0  0  1  0  0  0  0  0999 V2000
   -5.6466   -4.8655    0.0000 O   0  0  0  0  0  0  0  0  0
   -5.6457   -4.0405    0.0000 C   0  0  0  0  0  0  0  0  0
   -4.9307   -3.6289    0.0000 C   0  0  0  0  0  0  0  0  0
   -4.9297   -2.8039    0.0000 N   0  0  0  0  0  0  0  0  0
   -4.2147   -2.3922    0.0000 C   0  0  0  0  0  0  0  0  0
   -3.5008   -2.8056    0.0000 O   0  0  0  0  0  0  0  0  0
   -4.2138   -1.5672    0.0000 C   0  0  0  0  0  0  0  0  0
   -3.4988   -1.1556    0.0000 C   0  0  0  0  0  0  0  0  0
   -3.4978   -0.3306    0.0000 C   0  0  0  0  0  0  0  0  0
   -4.2118    0.0828    0.0000 C   0  0  0  0  0  0  0  0  0
   -4.9267   -0.3289    0.0000 N   0  0  0  0  0  0  0  0  0
   -4.9277   -1.1539    0.0000 C   0  0  0  0  0  0  0  0  0
   -5.6407    0.0845    0.0000 C   0  0  0  0  0  0  0  0  0
   -4.2103    0.9069    0.0000 C   0  0  0  0  0  0  0  0  0
   -3.4978    1.3194    0.0000 C   0  0  0  0  0  0  0  0  0
   -2.7853    0.9069    0.0000 C   0  0  0  0  0  0  0  0  0
   -2.7853    0.0819    0.0000 C   0  0  0  0  0  0  0  0  0
   -2.0674   -0.3306    0.0000 C   0  0  0  0  0  0  0  0  0
   -1.3549    0.0819    0.0000 C   0  0  0  0  0  0  0  0  0
   -1.3549    0.9069    0.0000 C   0  0  0  0  0  0  0  0  0
   -2.0674    1.3194    0.0000 C   0  0  0  0  0  0  0  0  0
   -2.3728    2.1766    0.0000 N   0  0  0  0  0  0  0  0  0
   -3.1978    2.1766    0.0000 C   0  0  0  0  0  0  0  0  0
   -1.8973    2.8507    0.0000 C   0  0  0  0  0  0  0  0  0
   -4.2167   -4.0422    0.0000 C   0  0  0  0  0  0  0  0  0
   -4.2177   -4.8672    0.0000 C   0  0  0  0  0  0  0  0  0
  1  2  1  0  0  0  0
  2  3  1  0  0  0  0
  3  4  1  0  0  0  0
  3 25  1  0  0  0  0
  4  5  1  0  0  0  0
  5  6  2  0  0  0  0
  5  7  1  0  0  0  0
  7  8  1  0  0  0  0
  7 12  1  0  0  0  0
  8  9  2  0  0  0  0
  9 10  1  0  0  0  0
  9 17  1  0  0  0  0
 10 11  1  0  0  0  0
 10 14  1  0  0  0  0
 11 12  1  0  0  0  0
 11 13  1  0  0  0  0
 14 15  1  0  0  0  0
 15 16  4  0  0  0  0
 15 23  4  0  0  0  0
 16 17  4  0  0  0  0
 16 21  4  0  0  0  0
 17 18  4  0  0  0  0
 18 19  4  0  0  0  0
 19 20  4  0  0  0  0
 20 21  4  0  0  0  0
 21 22  4  0  0  0  0
 22 23  4  0  0  0  0
 22 24  1  0  0  0  0
 25 26  1  0  0  0  0
M  END
>  <Name_Molregno>
METHYSERGIDE

>  <5-HT1A>
7.81

>  <5-HT1B>
7.91

>  <5-HT1D>
7.56

>  <5-HT1E>
6.71

>  <5-HT2A>
8.05

>  <5-HT2C>
8.69

>  <5-HT3>
5

>  <5-HT5>
5

>  <5-HT6>
6.82

>  <5-HT7>
7.32

>  <Alpha-1A>
5

>  <Alpha-1B>
5

>  <Alpha-2A>
6.77

>  <Alpha-2B>
6.97

>  <Alpha-2C>
7.05

>  <Beta-1>
5

>  <Beta-2>
5

>  <DOPAMINE D1>
5

>  <DOPAMINE D2>
5

>  <DOPAMINE D4>
5

>  <DOPAMINE D5>
5

>  <Dopamine transporter>
5

>  <HISTAMINE H1>
5.26

>  <HISTAMINE H2>
5

>  <Muscarinic acetylcholine receptor M1>
5.26

>  <Muscarinic acetylcholine receptor M2>
5.21

>  <Muscarinic acetylcholine receptor M3>
5.33

>  <Muscarinic acetylcholine receptor M4>
5

>  <Muscarinic acetylcholine receptor M5>
5

>  <Norepinephrine transporter>
5

>  <Serotonin transporter>
5

$$$$
N-(4-Acetamidophenyl)indomethacinamide
  Marvin  02231216192D 0   1.00000     0.00000     0

 37 40  0  0  0  0  0  0  0  0999 V2000
    0.5106    2.7433    0.0000 Cl  0  0  0  0  0  0  0  0  0
    1.3311    2.6571    0.0000 C   0  0  0  0  0  0  0  0  0
    1.8160    3.3245    0.0000 C   0  0  0  0  0  0  0  0  0
    2.6365    3.2383    0.0000 C   0  0  0  0  0  0  0  0  0
    2.9720    2.4846    0.0000 C   0  0  0  0  0  0  0  0  0
    2.4871    1.8172    0.0000 C   0  0  0  0  0  0  0  0  0
    1.6666    1.9034    0.0000 C   0  0  0  0  0  0  0  0  0
    3.7925    2.3984    0.0000 C   0  0  0  0  0  0  0  0  0
    4.2774    3.0658    0.0000 O   0  0  0  0  0  0  0  0  0
    4.1281    1.6447    0.0000 N   0  0  0  0  0  0  0  0  0
    3.7156    0.9302    0.0000 C   0  0  0  0  0  0  0  0  0
    4.2676    0.3171    0.0000 C   0  0  0  0  0  0  0  0  0
    4.0127   -0.4675    0.0000 C   0  0  0  0  0  0  0  0  0
    3.2057   -0.6390    0.0000 C   0  0  0  0  0  0  0  0  0
    2.9508   -1.4236    0.0000 O   0  0  0  0  0  0  0  0  0
    2.1438   -1.5952    0.0000 C   0  0  0  0  0  0  0  0  0
    2.6537   -0.0259    0.0000 C   0  0  0  0  0  0  0  0  0
    2.9086    0.7587    0.0000 C   0  0  0  0  0  0  0  0  0
    5.0213    0.6527    0.0000 C   0  0  0  0  0  0  0  0  0
    5.7358    0.2402    0.0000 C   0  0  0  0  0  0  0  0  0
    5.7358   -0.5848    0.0000 C   0  0  0  0  0  0  0  0  0
    5.0213   -0.9973    0.0000 O   0  0  0  0  0  0  0  0  0
    6.4502   -0.9973    0.0000 N   0  0  0  0  0  0  0  0  0
    7.1647   -0.5848    0.0000 C   0  0  0  0  0  0  0  0  0
    7.1647    0.2402    0.0000 C   0  0  0  0  0  0  0  0  0
    7.8792    0.6527    0.0000 C   0  0  0  0  0  0  0  0  0
    7.8792    1.4777    0.0000 C   0  0  0  0  0  0  0  0  0
    8.5936    1.8902    0.0000 C   0  0  0  0  0  0  0  0  0
    9.3081    1.4777    0.0000 C   0  0  0  0  0  0  0  0  0
   10.0226    1.8902    0.0000 N   0  0  0  0  0  0  0  0  0
   10.7371    1.4777    0.0000 C   0  0  0  0  0  0  0  0  0
   11.4515    1.8902    0.0000 O   0  0  0  0  0  0  0  0  0
   10.7371    0.6527    0.0000 C   0  0  0  0  0  0  0  0  0
    9.3081    0.6527    0.0000 C   0  0  0  0  0  0  0  0  0
    8.5936    0.2402    0.0000 C   0  0  0  0  0  0  0  0  0
    4.9351    1.4732    0.0000 C   0  0  0  0  0  0  0  0  0
    5.5481    2.0252    0.0000 C   0  0  0  0  0  0  0  0  0
  1  2  1  0  0  0  0
  2  3  4  0  0  0  0
  2  7  4  0  0  0  0
  3  4  4  0  0  0  0
  4  5  4  0  0  0  0
  5  6  4  0  0  0  0
  5  8  1  0  0  0  0
  6  7  4  0  0  0  0
  8  9  2  0  0  0  0
  8 10  1  0  0  0  0
 10 11  4  0  0  0  0
 10 36  4  0  0  0  0
 11 12  4  0  0  0  0
 11 18  4  0  0  0  0
 12 13  4  0  0  0  0
 12 19  4  0  0  0  0
 13 14  4  0  0  0  0
 14 15  1  0  0  0  0
 14 17  4  0  0  0  0
 15 16  1  0  0  0  0
 17 18  4  0  0  0  0
 19 20  1  0  0  0  0
 19 36  4  0  0  0  0
 20 21  1  0  0  0  0
 21 22  2  0  0  0  0
 21 23  1  0  0  0  0
 23 24  1  0  0  0  0
 24 25  1  0  0  0  0
 25 26  1  0  0  0  0
 26 27  4  0  0  0  0
 26 35  4  0  0  0  0
 27 28  4  0  0  0  0
 28 29  4  0  0  0  0
 29 30  1  0  0  0  0
 29 34  4  0  0  0  0
 30 31  1  0  0  0  0
 31 32  2  0  0  0  0
 31 33  1  0  0  0  0
 34 35  4  0  0  0  0
 36 37  1  0  0  0  0
M  END
>  <Name_Molregno>
N-(4-Acetamidophenyl)indomethacinamide

>  <5-HT1A>
5

>  <5-HT1B>
5

>  <5-HT1E>
5

>  <5-HT2A>
5

>  <5-HT3>
5

>  <5-HT6>
5

>  <5-HT7>
5

>  <Alpha-1A>
5

>  <Alpha-1B>
5

>  <Alpha-2A>
5

>  <Alpha-2B>
5

>  <Alpha-2C>
5

>  <DOPAMINE D1>
5

>  <DOPAMINE D2>
5

>  <DOPAMINE D5>
5

>  <Dopamine transporter>
5

>  <HISTAMINE H1>
5

>  <HISTAMINE H2>
5

>  <HISTAMINE H4>
5

>  <Muscarinic acetylcholine receptor M2>
5

>  <Muscarinic acetylcholine receptor M5>
5

>  <Serotonin transporter>
5

$$$$
Naproxen
  Marvin  02231216192D 0   1.00000     0.00000     0

 17 18  0  0  1  0  0  0  0  0999 V2000
   -5.3383   -1.4581    0.0000 O   0  0  0  0  0  0  0  0  0
   -6.0528   -1.0456    0.0000 C   0  0  0  0  0  0  0  0  0
   -4.6238   -1.0456    0.0000 C   0  0  0  0  0  0  0  0  0
   -3.9093   -1.4581    0.0000 C   0  0  0  0  0  0  0  0  0
   -3.1949   -1.0456    0.0000 C   0  0  0  0  0  0  0  0  0
   -3.1949   -0.2206    0.0000 C   0  0  0  0  0  0  0  0  0
   -2.4804    0.1919    0.0000 C   0  0  0  0  0  0  0  0  0
   -1.7659   -0.2206    0.0000 C   0  0  0  0  0  0  0  0  0
   -1.7659   -1.0456    0.0000 C   0  0  0  0  0  0  0  0  0
   -2.4804   -1.4581    0.0000 C   0  0  0  0  0  0  0  0  0
   -1.0515    0.1919    0.0000 C   0  0  0  0  0  0  0  0  0
   -0.3370   -0.2206    0.0000 C   0  0  0  0  0  0  0  0  0
    0.3775    0.1919    0.0000 O   0  0  0  0  0  0  0  0  0
   -0.3370   -1.0456    0.0000 O   0  0  0  0  0  0  0  0  0
   -1.0515    1.0169    0.0000 C   0  0  0  0  0  0  0  0  0
   -3.9093    0.1919    0.0000 C   0  0  0  0  0  0  0  0  0
   -4.6238   -0.2206    0.0000 C   0  0  0  0  0  0  0  0  0
  1  2  1  0  0  0  0
  1  3  1  0  0  0  0
  3  4  4  0  0  0  0
  3 17  4  0  0  0  0
  4  5  4  0  0  0  0
  5  6  4  0  0  0  0
  5 10  4  0  0  0  0
  6  7  4  0  0  0  0
  6 16  4  0  0  0  0
  7  8  4  0  0  0  0
  8  9  4  0  0  0  0
  8 11  1  0  0  0  0
  9 10  4  0  0  0  0
 11 12  1  0  0  0  0
 11 15  1  0  0  0  0
 12 13  1  0  0  0  0
 12 14  2  0  0  0  0
 16 17  4  0  0  0  0
M  END
>  <Name_Molregno>
Naproxen

>  <5-HT1A>
5

>  <5-HT1B>
5

>  <5-HT1D>
5

>  <5-HT1E>
5

>  <5-HT2A>
5

>  <5-HT3>
5

>  <5-HT5>
5

>  <5-HT6>
5

>  <5-HT7>
5

>  <Alpha-1A>
5

>  <Alpha-1B>
5

>  <Alpha-2A>
5

>  <Alpha-2B>
5

>  <Alpha-2C>
5

>  <DOPAMINE D1>
5

>  <DOPAMINE D2>
5

>  <DOPAMINE D4>
5

>  <DOPAMINE D5>
5

>  <Dopamine transporter>
5

>  <HISTAMINE H1>
5

>  <HISTAMINE H2>
5

>  <HISTAMINE H4>
5

>  <Muscarinic acetylcholine receptor M2>
5

>  <Muscarinic acetylcholine receptor M5>
5

>  <Norepinephrine transporter>
5

>  <Serotonin transporter>
5

$$$$
N-DESMETHYLCLOZAPINE
  Marvin  02231216192D 0   1.00000     0.00000     0

 22 25  0  0  0  0  0  0  0  0999 V2000
   -0.3818   -1.7384    0.0000 Cl  0  0  0  0  0  0  0  0  0
    0.4065   -1.9816    0.0000 C   0  0  0  0  0  0  0  0  0
    1.0113   -1.4204    0.0000 C   0  0  0  0  0  0  0  0  0
    1.7996   -1.6636    0.0000 C   0  0  0  0  0  0  0  0  0
    2.3140   -1.0186    0.0000 N   0  0  0  0  0  0  0  0  0
    3.1390   -1.0186    0.0000 C   0  0  0  0  0  0  0  0  0
    3.4969   -0.2753    0.0000 N   0  0  0  0  0  0  0  0  0
    3.0322    0.4063    0.0000 C   0  0  0  0  0  0  0  0  0
    3.3902    1.1496    0.0000 C   0  0  0  0  0  0  0  0  0
    4.2129    1.2113    0.0000 N   0  0  0  0  0  0  0  0  0
    4.6776    0.5296    0.0000 C   0  0  0  0  0  0  0  0  0
    4.3196   -0.2137    0.0000 C   0  0  0  0  0  0  0  0  0
    3.6534   -1.6636    0.0000 C   0  0  0  0  0  0  0  0  0
    3.4698   -2.4679    0.0000 C   0  0  0  0  0  0  0  0  0
    2.7265   -2.8259    0.0000 N   0  0  0  0  0  0  0  0  0
    1.9832   -2.4679    0.0000 C   0  0  0  0  0  0  0  0  0
    1.3784   -3.0291    0.0000 C   0  0  0  0  0  0  0  0  0
    0.5901   -2.7859    0.0000 C   0  0  0  0  0  0  0  0  0
    4.0746   -3.0291    0.0000 C   0  0  0  0  0  0  0  0  0
    4.8629   -2.7859    0.0000 C   0  0  0  0  0  0  0  0  0
    5.0465   -1.9816    0.0000 C   0  0  0  0  0  0  0  0  0
    4.4417   -1.4204    0.0000 C   0  0  0  0  0  0  0  0  0
  1  2  1  0  0  0  0
  2  3  4  0  0  0  0
  2 18  4  0  0  0  0
  3  4  4  0  0  0  0
  4  5  1  0  0  0  0
  4 16  4  0  0  0  0
  5  6  1  0  0  0  0
  6  7  1  0  0  0  0
  6 13  2  0  0  0  0
  7  8  1  0  0  0  0
  7 12  1  0  0  0  0
  8  9  1  0  0  0  0
  9 10  1  0  0  0  0
 10 11  1  0  0  0  0
 11 12  1  0  0  0  0
 13 14  1  0  0  0  0
 13 22  1  0  0  0  0
 14 15  2  0  0  0  0
 14 19  1  0  0  0  0
 15 16  1  0  0  0  0
 16 17  4  0  0  0  0
 17 18  4  0  0  0  0
 19 20  2  0  0  0  0
 20 21  1  0  0  0  0
 21 22  2  0  0  0  0
M  END
>  <Name_Molregno>
N-DESMETHYLCLOZAPINE

>  <5-HT1A>
7.86

>  <5-HT1B>
6.39

>  <5-HT1D>
6.32

>  <5-HT1E>
6.41

>  <5-HT2A>
7.96

>  <5-HT3>
6.57

>  <5-HT5>
6.46

>  <5-HT6>
7.94

>  <5-HT7>
7.22

>  <Alpha-1A>
6.98

>  <Alpha-1B>
7.07

>  <Alpha-2A>
6.86

>  <Alpha-2B>
7.02

>  <Alpha-2C>
6.93

>  <Beta-1>
5.2

>  <Beta-2>
5.33

>  <DOPAMINE D1>
7.84

>  <DOPAMINE D2>
7

>  <DOPAMINE D3>
6.82

>  <DOPAMINE D4>
7.28

>  <DOPAMINE D5>
6.55

>  <Dopamine transporter>
5

>  <HISTAMINE H1>
8.47

>  <HISTAMINE H2>
6.46

>  <HISTAMINE H4>
5.99

>  <Muscarinic acetylcholine receptor M1>
7.17

>  <Muscarinic acetylcholine receptor M2>
6.38

>  <Muscarinic acetylcholine receptor M3>
7.02

>  <Muscarinic acetylcholine receptor M4>
6.77

>  <Muscarinic acetylcholine receptor M5>
7.45

>  <Norepinephrine transporter>
6.31

>  <Serotonin transporter>
6.5

$$$$
nimesulide
  Marvin  02231216192D 0   1.00000     0.00000     0

 21 22  0  0  0  0  0  0  0  0999 V2000
    3.1126    1.9121    0.0000 S   0  0  0  0  0  0  0  0  0
    3.8271    2.3246    0.0000 O   0  0  0  0  0  0  0  0  0
    2.7001    2.6266    0.0000 O   0  0  0  0  0  0  0  0  0
    2.3982    1.4996    0.0000 N   0  0  0  0  0  0  0  0  0
    2.3982    0.6746    0.0000 C   0  0  0  0  0  0  0  0  0
    3.1126    0.2621    0.0000 C   0  0  0  0  0  0  0  0  0
    3.1126   -0.5629    0.0000 C   0  0  0  0  0  0  0  0  0
    2.3982   -0.9754    0.0000 C   0  0  0  0  0  0  0  0  0
    2.3982   -1.8004    0.0000 N   0  3  0  0  0  0  0  0  0
    1.6837   -2.2129    0.0000 O   0  5  0  0  0  0  0  0  0
    3.1126   -2.2129    0.0000 O   0  5  0  0  0  0  0  0  0
    1.6837   -0.5629    0.0000 C   0  0  0  0  0  0  0  0  0
    1.6837    0.2621    0.0000 C   0  0  0  0  0  0  0  0  0
    0.9692    0.6746    0.0000 O   0  0  0  0  0  0  0  0  0
    0.9692    1.4996    0.0000 C   0  0  0  0  0  0  0  0  0
    0.2548    1.9121    0.0000 C   0  0  0  0  0  0  0  0  0
    0.2548    2.7371    0.0000 C   0  0  0  0  0  0  0  0  0
    0.9692    3.1496    0.0000 C   0  0  0  0  0  0  0  0  0
    1.6837    2.7371    0.0000 C   0  0  0  0  0  0  0  0  0
    1.6837    1.9121    0.0000 C   0  0  0  0  0  0  0  0  0
    3.5251    1.1976    0.0000 C   0  0  0  0  0  0  0  0  0
  1  2  2  0  0  0  0
  1  3  2  0  0  0  0
  1  4  1  0  0  0  0
  1 21  1  0  0  0  0
  4  5  1  0  0  0  0
  5  6  4  0  0  0  0
  5 13  4  0  0  0  0
  6  7  4  0  0  0  0
  7  8  4  0  0  0  0
  8  9  1  0  0  0  0
  8 12  4  0  0  0  0
  9 10  1  0  0  0  0
  9 11  1  0  0  0  0
 12 13  4  0  0  0  0
 13 14  1  0  0  0  0
 14 15  1  0  0  0  0
 15 16  4  0  0  0  0
 15 20  4  0  0  0  0
 16 17  4  0  0  0  0
 17 18  4  0  0  0  0
 18 19  4  0  0  0  0
 19 20  4  0  0  0  0
M  CHG  3   9   1  10  -1  11  -1
M  END
>  <Name_Molregno>
nimesulide

>  <5-HT1A>
5

>  <5-HT1B>
5

>  <5-HT1D>
5

>  <5-HT1E>
5

>  <5-HT2A>
5

>  <5-HT3>
5

>  <5-HT5>
5

>  <5-HT6>
5

>  <5-HT7>
5

>  <Alpha-1A>
5

>  <Alpha-1B>
5

>  <Alpha-2A>
5

>  <Alpha-2B>
5

>  <Alpha-2C>
5

>  <DOPAMINE D1>
5

>  <DOPAMINE D2>
5

>  <DOPAMINE D4>
5

>  <DOPAMINE D5>
5

>  <Dopamine transporter>
5

>  <HISTAMINE H1>
5

>  <HISTAMINE H2>
5

>  <HISTAMINE H4>
5

>  <Muscarinic acetylcholine receptor M2>
5

>  <Muscarinic acetylcholine receptor M5>
5

>  <Norepinephrine transporter>
5

>  <Serotonin transporter>
5

$$$$
Norephedrine
  Marvin  02231216192D 0   1.00000     0.00000     0

 11 11  0  0  1  0  0  0  0  0999 V2000
    1.9974    0.2298    0.0000 O   0  0  0  0  0  0  0  0  0
    1.2829   -0.1827    0.0000 C   0  0  0  0  0  0  0  0  0
    0.5684    0.2298    0.0000 C   0  0  0  0  0  0  0  0  0
    0.5684    1.0548    0.0000 N   0  0  0  0  0  0  0  0  0
   -0.1461   -0.1827    0.0000 C   0  0  0  0  0  0  0  0  0
    1.2829   -1.0077    0.0000 C   0  0  0  0  0  0  0  0  0
    1.9974   -1.4202    0.0000 C   0  0  0  0  0  0  0  0  0
    1.9974   -2.2452    0.0000 C   0  0  0  0  0  0  0  0  0
    1.2829   -2.6577    0.0000 C   0  0  0  0  0  0  0  0  0
    0.5684   -2.2452    0.0000 C   0  0  0  0  0  0  0  0  0
    0.5684   -1.4202    0.0000 C   0  0  0  0  0  0  0  0  0
  1  2  1  0  0  0  0
  2  3  1  0  0  0  0
  2  6  1  0  0  0  0
  3  4  1  0  0  0  0
  3  5  1  0  0  0  0
  6  7  4  0  0  0  0
  6 11  4  0  0  0  0
  7  8  4  0  0  0  0
  8  9  4  0  0  0  0
  9 10  4  0  0  0  0
 10 11  4  0  0  0  0
M  END
>  <Name_Molregno>
Norephedrine

>  <5-HT1A>
5

>  <5-HT1B>
5

>  <5-HT1D>
5

>  <5-HT1E>
5

>  <5-HT3>
5

>  <5-HT5>
5

>  <5-HT6>
5

>  <5-HT7>
5.04

>  <Alpha-1A>
5

>  <Alpha-1B>
5

>  <Alpha-2A>
5.64

>  <Alpha-2B>
5.73

>  <Alpha-2C>
6.04

>  <Beta-1>
5

>  <Beta-2>
5

>  <DOPAMINE D1>
5

>  <DOPAMINE D2>
5

>  <DOPAMINE D4>
5

>  <DOPAMINE D5>
5

>  <Dopamine transporter>
5.76

>  <HISTAMINE H1>
5

>  <HISTAMINE H2>
5

>  <HISTAMINE H4>
5

>  <Muscarinic acetylcholine receptor M1>
5.04

>  <Muscarinic acetylcholine receptor M2>
5

>  <Muscarinic acetylcholine receptor M3>
5

>  <Muscarinic acetylcholine receptor M4>
5

>  <Muscarinic acetylcholine receptor M5>
5

>  <Norepinephrine transporter>
6.34

>  <Serotonin transporter>
5

$$$$
Norfenfluramine
  Marvin  02231216192D 0   1.00000     0.00000     0

 14 14  0  0  1  0  0  0  0  0999 V2000
    0.4631   -1.9707    0.0000 F   0  0  0  0  0  0  0  0  0
    1.1776   -1.5582    0.0000 C   0  0  0  0  0  0  0  0  0
    1.5901   -2.2727    0.0000 F   0  0  0  0  0  0  0  0  0
    0.7651   -0.8437    0.0000 F   0  0  0  0  0  0  0  0  0
    1.8921   -1.1457    0.0000 C   0  0  0  0  0  0  0  0  0
    1.8921   -0.3207    0.0000 C   0  0  0  0  0  0  0  0  0
    2.6065    0.0918    0.0000 C   0  0  0  0  0  0  0  0  0
    3.3210   -0.3207    0.0000 C   0  0  0  0  0  0  0  0  0
    3.3210   -1.1457    0.0000 C   0  0  0  0  0  0  0  0  0
    2.6065   -1.5582    0.0000 C   0  0  0  0  0  0  0  0  0
    2.6065    0.9168    0.0000 C   0  0  0  0  0  0  0  0  0
    3.3210    1.3293    0.0000 C   0  0  0  0  0  0  0  0  0
    3.3210    2.1543    0.0000 N   0  0  0  0  0  0  0  0  0
    4.0355    0.9168    0.0000 C   0  0  0  0  0  0  0  0  0
  1  2  1  0  0  0  0
  2  3  1  0  0  0  0
  2  4  1  0  0  0  0
  2  5  1  0  0  0  0
  5  6  4  0  0  0  0
  5 10  4  0  0  0  0
  6  7  4  0  0  0  0
  7  8  4  0  0  0  0
  7 11  1  0  0  0  0
  8  9  4  0  0  0  0
  9 10  4  0  0  0  0
 11 12  1  0  0  0  0
 12 13  1  0  0  0  0
 12 14  1  0  0  0  0
M  END
>  <Name_Molregno>
Norfenfluramine

>  <5-HT1A>
5.77

>  <5-HT1B>
5.57

>  <5-HT1D>
5.88

>  <5-HT1E>
5

>  <5-HT3>
5

>  <5-HT5>
5

>  <5-HT6>
5

>  <5-HT7>
6.44

>  <Alpha-1A>
5.11

>  <Alpha-1B>
5

>  <Alpha-2A>
5.42

>  <Alpha-2B>
5.75

>  <Alpha-2C>
6.08

>  <Beta-1>
5

>  <Beta-2>
5

>  <DOPAMINE D1>
5

>  <DOPAMINE D2>
5

>  <DOPAMINE D4>
5

>  <DOPAMINE D5>
5

>  <Dopamine transporter>
5

>  <HISTAMINE H1>
5

>  <HISTAMINE H2>
5

>  <Muscarinic acetylcholine receptor M1>
5.42

>  <Muscarinic acetylcholine receptor M2>
5.24

>  <Muscarinic acetylcholine receptor M3>
6.04

>  <Muscarinic acetylcholine receptor M4>
5.31

>  <Muscarinic acetylcholine receptor M5>
5.78

>  <Norepinephrine transporter>
5

>  <Serotonin transporter>
5

$$$$
OLANZAPINE
  Marvin  02231216192D 0   1.00000     0.00000     0

 22 25  0  0  0  0  0  0  0  0999 V2000
   -1.5954    3.4952    0.0000 S   0  0  0  0  0  0  0  0  0
   -0.8919    3.0642    0.0000 C   0  0  0  0  0  0  0  0  0
   -0.1447    3.4138    0.0000 N   0  0  0  0  0  0  0  0  0
    0.5946    3.0476    0.0000 C   0  0  0  0  0  0  0  0  0
    0.7691    2.2413    0.0000 C   0  0  0  0  0  0  0  0  0
    0.2476    1.6020    0.0000 N   0  0  0  0  0  0  0  0  0
   -0.5774    1.6113    0.0000 C   0  0  0  0  0  0  0  0  0
   -0.9436    0.8720    0.0000 N   0  0  0  0  0  0  0  0  0
   -0.4865    0.1852    0.0000 C   0  0  0  0  0  0  0  0  0
   -0.8527   -0.5540    0.0000 C   0  0  0  0  0  0  0  0  0
   -1.6761   -0.6065    0.0000 N   0  0  0  0  0  0  0  0  0
   -2.1332    0.0803    0.0000 C   0  0  0  0  0  0  0  0  0
   -1.7669    0.8196    0.0000 C   0  0  0  0  0  0  0  0  0
   -2.0423   -1.3458    0.0000 C   0  0  0  0  0  0  0  0  0
   -1.0845    2.2620    0.0000 C   0  0  0  0  0  0  0  0  0
   -1.9069    2.1972    0.0000 C   0  0  0  0  0  0  0  0  0
   -2.2227    2.9594    0.0000 C   0  0  0  0  0  0  0  0  0
   -3.0249    3.1520    0.0000 C   0  0  0  0  0  0  0  0  0
    1.5547    1.9893    0.0000 C   0  0  0  0  0  0  0  0  0
    2.1657    2.5436    0.0000 C   0  0  0  0  0  0  0  0  0
    1.9912    3.3499    0.0000 C   0  0  0  0  0  0  0  0  0
    1.2056    3.6019    0.0000 C   0  0  0  0  0  0  0  0  0
  1  2  1  0  0  0  0
  1 17  1  0  0  0  0
  2  3  2  0  0  0  0
  2 15  1  0  0  0  0
  3  4  1  0  0  0  0
  4  5  4  0  0  0  0
  4 22  4  0  0  0  0
  5  6  1  0  0  0  0
  5 19  4  0  0  0  0
  6  7  1  0  0  0  0
  7  8  1  0  0  0  0
  7 15  2  0  0  0  0
  8  9  1  0  0  0  0
  8 13  1  0  0  0  0
  9 10  1  0  0  0  0
 10 11  1  0  0  0  0
 11 12  1  0  0  0  0
 11 14  1  0  0  0  0
 12 13  1  0  0  0  0
 15 16  1  0  0  0  0
 16 17  2  0  0  0  0
 17 18  1  0  0  0  0
 19 20  4  0  0  0  0
 20 21  4  0  0  0  0
 21 22  4  0  0  0  0
M  END
>  <Name_Molregno>
OLANZAPINE

>  <5-HT1A>
5.77

>  <5-HT1B>
6.23

>  <5-HT1D>
6.3

>  <5-HT1E>
5.66

>  <5-HT2A>
8.46

>  <5-HT2C>
7.86

>  <5-HT3>
6.69

>  <5-HT5>
5.92

>  <5-HT6>
7.97

>  <5-HT7>
6.73

>  <Alpha-1A>
6.95

>  <Alpha-1B>
6.58

>  <Alpha-2A>
6.51

>  <Alpha-2B>
6.97

>  <Alpha-2C>
7.21

>  <Beta-1>
5.15

>  <Beta-2>
5.15

>  <DOPAMINE D1>
7.3

>  <DOPAMINE D2>
7.67

>  <DOPAMINE D3>
7.53

>  <DOPAMINE D4>
7.73

>  <DOPAMINE D5>
7.09

>  <Dopamine transporter>
5

>  <HISTAMINE H1>
8.96

>  <HISTAMINE H2>
7.36

>  <HISTAMINE H4>
5

>  <Muscarinic acetylcholine receptor M1>
7.99

>  <Muscarinic acetylcholine receptor M2>
6.93

>  <Muscarinic acetylcholine receptor M3>
7.33

>  <Muscarinic acetylcholine receptor M4>
7.35

>  <Muscarinic acetylcholine receptor M5>
7.78

>  <Norepinephrine transporter>
5

>  <Serotonin transporter>
5.48

$$$$
ORG-5222
  Marvin  02231216192D 0   1.00000     0.00000     0

 20 23  0  0  1  0  0  0  0  0999 V2000
   -0.0754   -0.1702    0.0000 Cl  0  0  0  0  0  0  0  0  0
    0.7129   -0.4133    0.0000 C   0  0  0  0  0  0  0  0  0
    1.3177    0.1478    0.0000 C   0  0  0  0  0  0  0  0  0
    2.1060   -0.0954    0.0000 C   0  0  0  0  0  0  0  0  0
    2.6204    0.5496    0.0000 C   0  0  0  0  0  0  0  0  0
    3.4454    0.5496    0.0000 C   0  0  0  0  0  0  0  0  0
    3.9598   -0.0954    0.0000 C   0  0  0  0  0  0  0  0  0
    3.7762   -0.8997    0.0000 C   0  0  0  0  0  0  0  0  0
    3.0329   -1.2576    0.0000 O   0  0  0  0  0  0  0  0  0
    2.2896   -0.8997    0.0000 C   0  0  0  0  0  0  0  0  0
    1.6849   -1.4608    0.0000 C   0  0  0  0  0  0  0  0  0
    0.8965   -1.2176    0.0000 C   0  0  0  0  0  0  0  0  0
    4.3810   -1.4608    0.0000 C   0  0  0  0  0  0  0  0  0
    5.1693   -1.2176    0.0000 C   0  0  0  0  0  0  0  0  0
    5.3529   -0.4133    0.0000 C   0  0  0  0  0  0  0  0  0
    4.7482    0.1478    0.0000 C   0  0  0  0  0  0  0  0  0
    3.7004    1.3343    0.0000 C   0  0  0  0  0  0  0  0  0
    3.0329    1.8192    0.0000 N   0  0  0  0  0  0  0  0  0
    2.3655    1.3343    0.0000 C   0  0  0  0  0  0  0  0  0
    3.0329    2.6442    0.0000 C   0  0  0  0  0  0  0  0  0
  1  2  1  0  0  0  0
  2  3  4  0  0  0  0
  2 12  4  0  0  0  0
  3  4  4  0  0  0  0
  4  5  1  0  0  0  0
  4 10  4  0  0  0  0
  5  6  1  0  0  0  0
  5 19  1  0  0  0  0
  6  7  1  0  0  0  0
  6 17  1  0  0  0  0
  7  8  4  0  0  0  0
  7 16  4  0  0  0  0
  8  9  1  0  0  0  0
  8 13  4  0  0  0  0
  9 10  1  0  0  0  0
 10 11  4  0  0  0  0
 11 12  4  0  0  0  0
 13 14  4  0  0  0  0
 14 15  4  0  0  0  0
 15 16  4  0  0  0  0
 17 18  1  0  0  0  0
 18 19  1  0  0  0  0
 18 20  1  0  0  0  0
M  END
>  <Name_Molregno>
ORG-5222

>  <5-HT1A>
7.7

>  <5-HT1B>
8.34

>  <5-HT1D>
8.07

>  <5-HT1E>
7.69

>  <5-HT2A>
9.41

>  <5-HT2C>
9.63

>  <5-HT3>
6.35

>  <5-HT5>
8.4

>  <5-HT6>
8.85

>  <5-HT7>
9.05

>  <Alpha-1A>
8.36

>  <Alpha-1B>
8.41

>  <Alpha-2A>
8.08

>  <Alpha-2B>
8.64

>  <Alpha-2C>
7.82

>  <Beta-1>
5.3

>  <Beta-2>
5.3

>  <DOPAMINE D1>
8.54

>  <DOPAMINE D2>
8.72

>  <DOPAMINE D3>
8.74

>  <DOPAMINE D4>
8.58

>  <DOPAMINE D5>
7.64

>  <Dopamine transporter>
5.5

>  <HISTAMINE H1>
8.91

>  <HISTAMINE H2>
8.64

>  <HISTAMINE H4>
5

>  <Muscarinic acetylcholine receptor M1>
7.61

>  <Muscarinic acetylcholine receptor M2>
7.1

>  <Muscarinic acetylcholine receptor M3>
7.41

>  <Muscarinic acetylcholine receptor M4>
5

>  <Muscarinic acetylcholine receptor M5>
8.02

>  <Norepinephrine transporter>
5

>  <Serotonin transporter>
5.5

$$$$
PARECOXIB
  Marvin  02231216192D 0   1.00000     0.00000     0

 26 28  0  0  0  0  0  0  0  0999 V2000
    3.2898   -1.2399    0.0000 S   0  0  0  0  0  0  0  0  0
    3.7023   -0.5254    0.0000 O   0  0  0  0  0  0  0  0  0
    2.8773   -1.9544    0.0000 O   0  0  0  0  0  0  0  0  0
    4.0042   -1.6524    0.0000 N   0  0  0  0  0  0  0  0  0
    4.7187   -1.2399    0.0000 C   0  0  0  0  0  0  0  0  0
    4.7187   -0.4149    0.0000 O   0  0  0  0  0  0  0  0  0
    5.4332   -1.6524    0.0000 C   0  0  0  0  0  0  0  0  0
    6.1476   -1.2399    0.0000 C   0  0  0  0  0  0  0  0  0
    2.5753   -0.8274    0.0000 C   0  0  0  0  0  0  0  0  0
    1.8608   -1.2399    0.0000 C   0  0  0  0  0  0  0  0  0
    1.1463   -0.8274    0.0000 C   0  0  0  0  0  0  0  0  0
    1.1463   -0.0024    0.0000 C   0  0  0  0  0  0  0  0  0
    1.8608    0.4101    0.0000 C   0  0  0  0  0  0  0  0  0
    2.5753   -0.0024    0.0000 C   0  0  0  0  0  0  0  0  0
    0.4319    0.4101    0.0000 C   0  0  0  0  0  0  0  0  0
   -0.3218    0.0745    0.0000 C   0  0  0  0  0  0  0  0  0
   -0.8738    0.6876    0.0000 N   0  0  0  0  0  0  0  0  0
   -0.4613    1.4021    0.0000 O   0  0  0  0  0  0  0  0  0
    0.3456    1.2306    0.0000 C   0  0  0  0  0  0  0  0  0
    0.9587    1.7826    0.0000 C   0  0  0  0  0  0  0  0  0
   -0.4933   -0.7324    0.0000 C   0  0  0  0  0  0  0  0  0
    0.1198   -1.2845    0.0000 C   0  0  0  0  0  0  0  0  0
   -0.0518   -2.0914    0.0000 C   0  0  0  0  0  0  0  0  0
   -0.8364   -2.3464    0.0000 C   0  0  0  0  0  0  0  0  0
   -1.4495   -1.7943    0.0000 C   0  0  0  0  0  0  0  0  0
   -1.2779   -0.9874    0.0000 C   0  0  0  0  0  0  0  0  0
  1  2  2  0  0  0  0
  1  3  2  0  0  0  0
  1  4  1  0  0  0  0
  1  9  1  0  0  0  0
  4  5  1  0  0  0  0
  5  6  2  0  0  0  0
  5  7  1  0  0  0  0
  7  8  1  0  0  0  0
  9 10  4  0  0  0  0
  9 14  4  0  0  0  0
 10 11  4  0  0  0  0
 11 12  4  0  0  0  0
 12 13  4  0  0  0  0
 12 15  1  0  0  0  0
 13 14  4  0  0  0  0
 15 16  4  0  0  0  0
 15 19  4  0  0  0  0
 16 17  4  0  0  0  0
 16 21  1  0  0  0  0
 17 18  4  0  0  0  0
 18 19  4  0  0  0  0
 19 20  1  0  0  0  0
 21 22  4  0  0  0  0
 21 26  4  0  0  0  0
 22 23  4  0  0  0  0
 23 24  4  0  0  0  0
 24 25  4  0  0  0  0
 25 26  4  0  0  0  0
M  END
>  <Name_Molregno>
PARECOXIB

>  <5-HT1A>
5

>  <5-HT1B>
5

>  <5-HT1D>
5

>  <5-HT1E>
5

>  <5-HT2A>
5

>  <5-HT3>
5

>  <5-HT6>
5

>  <5-HT7>
5

>  <Alpha-1A>
5

>  <Alpha-1B>
5

>  <Alpha-2A>
5

>  <Alpha-2B>
5

>  <Alpha-2C>
5

>  <DOPAMINE D1>
5

>  <DOPAMINE D2>
5

>  <DOPAMINE D4>
5

>  <DOPAMINE D5>
5

>  <Dopamine transporter>
5

>  <HISTAMINE H1>
5

>  <HISTAMINE H2>
5

>  <HISTAMINE H4>
5

>  <Muscarinic acetylcholine receptor M2>
5

>  <Muscarinic acetylcholine receptor M5>
5

>  <Norepinephrine transporter>
5

>  <Serotonin transporter>
5

$$$$
PBR28
  Marvin  02231216192D 0   1.00000     0.00000     0

 26 28  0  0  0  0  0  0  0  0999 V2000
    0.4191    0.0796    0.0000 O   0  0  0  0  0  0  0  0  0
    0.4191   -0.7454    0.0000 C   0  0  0  0  0  0  0  0  0
    1.1336   -1.1579    0.0000 C   0  0  0  0  0  0  0  0  0
    1.1336   -1.9829    0.0000 C   0  0  0  0  0  0  0  0  0
    0.4191   -2.3954    0.0000 C   0  0  0  0  0  0  0  0  0
   -0.2953   -1.9829    0.0000 C   0  0  0  0  0  0  0  0  0
   -0.2953   -1.1579    0.0000 C   0  0  0  0  0  0  0  0  0
   -1.0098   -0.7454    0.0000 N   0  0  0  0  0  0  0  0  0
   -1.7243   -1.1579    0.0000 C   0  0  0  0  0  0  0  0  0
   -2.4387   -0.7454    0.0000 C   0  0  0  0  0  0  0  0  0
   -2.4387    0.0796    0.0000 C   0  0  0  0  0  0  0  0  0
   -3.1532    0.4921    0.0000 C   0  0  0  0  0  0  0  0  0
   -3.8677    0.0796    0.0000 C   0  0  0  0  0  0  0  0  0
   -3.8677   -0.7454    0.0000 C   0  0  0  0  0  0  0  0  0
   -3.1532   -1.1579    0.0000 C   0  0  0  0  0  0  0  0  0
   -3.1532   -1.9829    0.0000 O   0  0  0  0  0  0  0  0  0
   -3.8677   -2.3954    0.0000 C   0  0  0  0  0  0  0  0  0
   -1.0098    0.0796    0.0000 C   0  0  0  0  0  0  0  0  0
   -1.7243    0.4921    0.0000 O   0  0  0  0  0  0  0  0  0
   -0.2953    0.4921    0.0000 C   0  0  0  0  0  0  0  0  0
    1.1336    0.4921    0.0000 C   0  0  0  0  0  0  0  0  0
    1.1336    1.3171    0.0000 C   0  0  0  0  0  0  0  0  0
    1.8481    1.7296    0.0000 C   0  0  0  0  0  0  0  0  0
    2.5626    1.3171    0.0000 C   0  0  0  0  0  0  0  0  0
    2.5626    0.4921    0.0000 C   0  0  0  0  0  0  0  0  0
    1.8481    0.0796    0.0000 C   0  0  0  0  0  0  0  0  0
  1  2  1  0  0  0  0
  1 21  1  0  0  0  0
  2  3  4  0  0  0  0
  2  7  4  0  0  0  0
  3  4  4  0  0  0  0
  4  5  4  0  0  0  0
  5  6  4  0  0  0  0
  6  7  4  0  0  0  0
  7  8  1  0  0  0  0
  8  9  1  0  0  0  0
  8 18  1  0  0  0  0
  9 10  1  0  0  0  0
 10 11  4  0  0  0  0
 10 15  4  0  0  0  0
 11 12  4  0  0  0  0
 12 13  4  0  0  0  0
 13 14  4  0  0  0  0
 14 15  4  0  0  0  0
 15 16  1  0  0  0  0
 16 17  1  0  0  0  0
 18 19  2  0  0  0  0
 18 20  1  0  0  0  0
 21 22  4  0  0  0  0
 21 26  4  0  0  0  0
 22 23  4  0  0  0  0
 23 24  4  0  0  0  0
 24 25  4  0  0  0  0
 25 26  4  0  0  0  0
M  END
>  <Name_Molregno>
PBR28

>  <5-HT1A>
5

>  <5-HT1B>
5

>  <5-HT1D>
5

>  <5-HT1E>
5

>  <5-HT2A>
5

>  <5-HT3>
5

>  <5-HT5>
5

>  <5-HT6>
5

>  <5-HT7>
5

>  <Alpha-1A>
5

>  <Alpha-1B>
5

>  <Alpha-2A>
5

>  <Alpha-2B>
5

>  <Alpha-2C>
5

>  <Beta-1>
5

>  <Beta-2>
5

>  <DOPAMINE D1>
5

>  <DOPAMINE D2>
5

>  <DOPAMINE D4>
5

>  <Dopamine transporter>
5

>  <HISTAMINE H1>
5

>  <HISTAMINE H2>
5

>  <HISTAMINE H4>
5

>  <Muscarinic acetylcholine receptor M2>
5

>  <Muscarinic acetylcholine receptor M5>
5

>  <Norepinephrine transporter>
5

>  <Serotonin transporter>
5

$$$$
Piroxicam
  Marvin  02231216192D 0   1.00000     0.00000     0

 23 25  0  0  0  0  0  0  0  0999 V2000
    2.3267    1.3854    0.0000 S   0  0  0  0  0  0  0  0  0
    1.7964    2.0174    0.0000 O   0  0  0  0  0  0  0  0  0
    2.8570    2.0174    0.0000 O   0  0  0  0  0  0  0  0  0
    1.6123    0.9729    0.0000 N   0  0  0  0  0  0  0  0  0
    0.8978    1.3854    0.0000 C   0  0  0  0  0  0  0  0  0
    1.6123    0.1479    0.0000 C   0  0  0  0  0  0  0  0  0
    0.8978   -0.2646    0.0000 C   0  0  0  0  0  0  0  0  0
    0.1833    0.1479    0.0000 O   0  0  0  0  0  0  0  0  0
    0.8978   -1.0896    0.0000 N   0  0  0  0  0  0  0  0  0
    0.1833   -1.5021    0.0000 C   0  0  0  0  0  0  0  0  0
    0.1833   -2.3271    0.0000 N   0  0  0  0  0  0  0  0  0
   -0.5311   -2.7396    0.0000 C   0  0  0  0  0  0  0  0  0
   -1.2456   -2.3271    0.0000 C   0  0  0  0  0  0  0  0  0
   -1.2456   -1.5021    0.0000 C   0  0  0  0  0  0  0  0  0
   -0.5311   -1.0896    0.0000 C   0  0  0  0  0  0  0  0  0
    2.3267   -0.2646    0.0000 C   0  0  0  0  0  0  0  0  0
    2.3267   -1.0896    0.0000 O   0  0  0  0  0  0  0  0  0
    3.0412    0.1479    0.0000 C   0  0  0  0  0  0  0  0  0
    3.0412    0.9729    0.0000 C   0  0  0  0  0  0  0  0  0
    3.7557    1.3854    0.0000 C   0  0  0  0  0  0  0  0  0
    4.4702    0.9729    0.0000 C   0  0  0  0  0  0  0  0  0
    4.4702    0.1479    0.0000 C   0  0  0  0  0  0  0  0  0
    3.7557   -0.2646    0.0000 C   0  0  0  0  0  0  0  0  0
  1  2  2  0  0  0  0
  1  3  2  0  0  0  0
  1  4  1  0  0  0  0
  1 19  1  0  0  0  0
  4  5  1  0  0  0  0
  4  6  1  0  0  0  0
  6  7  2  0  0  0  0
  6 16  1  0  0  0  0
  7  8  1  0  0  0  0
  7  9  1  0  0  0  0
  9 10  1  0  0  0  0
 10 11  4  0  0  0  0
 10 15  4  0  0  0  0
 11 12  4  0  0  0  0
 12 13  4  0  0  0  0
 13 14  4  0  0  0  0
 14 15  4  0  0  0  0
 16 17  2  0  0  0  0
 16 18  1  0  0  0  0
 18 19  4  0  0  0  0
 18 23  4  0  0  0  0
 19 20  4  0  0  0  0
 20 21  4  0  0  0  0
 21 22  4  0  0  0  0
 22 23  4  0  0  0  0
M  END
>  <Name_Molregno>
Piroxicam

>  <5-HT1A>
5

>  <5-HT1B>
5

>  <5-HT1D>
5

>  <5-HT1E>
5

>  <5-HT2A>
5

>  <5-HT3>
5

>  <5-HT5>
5

>  <5-HT6>
5

>  <Alpha-1A>
5

>  <Alpha-1B>
5

>  <Alpha-2A>
5

>  <Alpha-2B>
5

>  <Alpha-2C>
5

>  <DOPAMINE D1>
5

>  <DOPAMINE D2>
5

>  <DOPAMINE D4>
5

>  <DOPAMINE D5>
5

>  <Dopamine transporter>
5

>  <HISTAMINE H1>
5

>  <HISTAMINE H2>
5

>  <Muscarinic acetylcholine receptor M2>
5

>  <Muscarinic acetylcholine receptor M5>
5

>  <Norepinephrine transporter>
5

>  <Serotonin transporter>
5

$$$$
PSILOCIN
  Marvin  02231216192D 0   1.00000     0.00000     0

 15 16  0  0  0  0  0  0  0  0999 V2000
    1.2794   -2.2041    0.0000 O   0  0  0  0  0  0  0  0  0
    1.2794   -1.3791    0.0000 C   0  0  0  0  0  0  0  0  0
    0.5650   -0.9666    0.0000 C   0  0  0  0  0  0  0  0  0
    0.5650   -0.1416    0.0000 C   0  0  0  0  0  0  0  0  0
   -0.2197    0.1134    0.0000 N   0  0  0  0  0  0  0  0  0
   -0.7046   -0.5541    0.0000 C   0  0  0  0  0  0  0  0  0
   -0.2197   -1.2215    0.0000 C   0  0  0  0  0  0  0  0  0
   -0.4746   -2.0061    0.0000 C   0  0  0  0  0  0  0  0  0
   -1.2816   -2.1777    0.0000 C   0  0  0  0  0  0  0  0  0
   -1.5365   -2.9623    0.0000 N   0  0  0  0  0  0  0  0  0
   -2.3435   -3.1338    0.0000 C   0  0  0  0  0  0  0  0  0
   -0.9845   -3.5754    0.0000 C   0  0  0  0  0  0  0  0  0
    1.2794    0.2709    0.0000 C   0  0  0  0  0  0  0  0  0
    1.9939   -0.1416    0.0000 C   0  0  0  0  0  0  0  0  0
    1.9939   -0.9666    0.0000 C   0  0  0  0  0  0  0  0  0
  1  2  1  0  0  0  0
  2  3  4  0  0  0  0
  2 15  4  0  0  0  0
  3  4  4  0  0  0  0
  3  7  4  0  0  0  0
  4  5  4  0  0  0  0
  4 13  4  0  0  0  0
  5  6  4  0  0  0  0
  6  7  4  0  0  0  0
  7  8  1  0  0  0  0
  8  9  1  0  0  0  0
  9 10  1  0  0  0  0
 10 11  1  0  0  0  0
 10 12  1  0  0  0  0
 13 14  4  0  0  0  0
 14 15  4  0  0  0  0
M  STY  1   1 DAT
M  SAL   1  1   5
M  SDT   1 MRV_IMPLICIT_H                                        
M  SDD   1     0.0000    0.0000    DR    ALL  0       0  
M  SED   1 IMPL_H1
M  END
>  <Name_Molregno>
PSILOCIN

>  <5-HT1A>
6.78

>  <5-HT1B>
6.66

>  <5-HT1D>
7.44

>  <5-HT1E>
7.28

>  <5-HT2A>
6.97

>  <5-HT3>
5

>  <5-HT5>
7.08

>  <5-HT6>
7.24

>  <5-HT7>
8.46

>  <Alpha-1A>
5

>  <Alpha-1B>
5

>  <Alpha-2A>
5.86

>  <Alpha-2B>
5.72

>  <Alpha-2C>
5

>  <Beta-1>
5

>  <DOPAMINE D1>
5

>  <DOPAMINE D2>
5

>  <DOPAMINE D4>
5

>  <DOPAMINE D5>
5

>  <Dopamine transporter>
5

>  <HISTAMINE H1>
6.52

>  <HISTAMINE H2>
5

>  <HISTAMINE H4>
5

>  <Muscarinic acetylcholine receptor M2>
5

>  <Muscarinic acetylcholine receptor M5>
5

>  <Norepinephrine transporter>
5

>  <Serotonin transporter>
5.42

$$$$
PSILOCYBIN
  Marvin  02231216192D 0   1.00000     0.00000     0

 19 20  0  0  0  0  0  0  0  0999 V2000
    0.6946   -2.4480    0.0000 P   0  0  0  0  0  0  0  0  0
   -0.0199   -2.0355    0.0000 O   0  0  0  0  0  0  0  0  0
   -0.0199   -1.2105    0.0000 C   0  0  0  0  0  0  0  0  0
   -0.7343   -0.7980    0.0000 C   0  0  0  0  0  0  0  0  0
   -0.7343    0.0270    0.0000 C   0  0  0  0  0  0  0  0  0
   -1.5190    0.2819    0.0000 N   0  0  0  0  0  0  0  0  0
   -2.0039   -0.3855    0.0000 C   0  0  0  0  0  0  0  0  0
   -1.5190   -1.0530    0.0000 C   0  0  0  0  0  0  0  0  0
   -1.7739   -1.8376    0.0000 C   0  0  0  0  0  0  0  0  0
   -2.5809   -2.0091    0.0000 C   0  0  0  0  0  0  0  0  0
   -2.8358   -2.7937    0.0000 N   0  0  0  0  0  0  0  0  0
   -3.6428   -2.9653    0.0000 C   0  0  0  0  0  0  0  0  0
   -2.2838   -3.4068    0.0000 C   0  0  0  0  0  0  0  0  0
   -0.0199    0.4395    0.0000 C   0  0  0  0  0  0  0  0  0
    0.6946    0.0270    0.0000 C   0  0  0  0  0  0  0  0  0
    0.6946   -0.7980    0.0000 C   0  0  0  0  0  0  0  0  0
    1.4091   -2.8605    0.0000 O   0  0  0  0  0  0  0  0  0
    0.2821   -3.1625    0.0000 O   0  0  0  0  0  0  0  0  0
    1.1071   -1.7336    0.0000 O   0  0  0  0  0  0  0  0  0
  1  2  1  0  0  0  0
  1 17  2  0  0  0  0
  1 18  1  0  0  0  0
  1 19  1  0  0  0  0
  2  3  1  0  0  0  0
  3  4  4  0  0  0  0
  3 16  4  0  0  0  0
  4  5  4  0  0  0  0
  4  8  4  0  0  0  0
  5  6  4  0  0  0  0
  5 14  4  0  0  0  0
  6  7  4  0  0  0  0
  7  8  4  0  0  0  0
  8  9  1  0  0  0  0
  9 10  1  0  0  0  0
 10 11  1  0  0  0  0
 11 12  1  0  0  0  0
 11 13  1  0  0  0  0
 14 15  4  0  0  0  0
 15 16  4  0  0  0  0
M  STY  1   1 DAT
M  SAL   1  1   6
M  SDT   1 MRV_IMPLICIT_H                                        
M  SDD   1     0.0000    0.0000    DR    ALL  0       0  
M  SED   1 IMPL_H1
M  END
>  <Name_Molregno>
PSILOCYBIN

>  <5-HT1A>
5

>  <5-HT1B>
5

>  <5-HT1D>
5.67

>  <5-HT1E>
6.71

>  <5-HT2A>
5

>  <5-HT3>
5

>  <5-HT5>
5.21

>  <5-HT6>
6.38

>  <5-HT7>
6.22

>  <Alpha-1A>
5

>  <Alpha-1B>
5

>  <Alpha-2A>
5

>  <Alpha-2B>
5

>  <Alpha-2C>
5

>  <DOPAMINE D1>
5

>  <DOPAMINE D2>
5

>  <DOPAMINE D4>
5

>  <DOPAMINE D5>
5

>  <Dopamine transporter>
5

>  <HISTAMINE H1>
5

>  <HISTAMINE H2>
5

>  <HISTAMINE H4>
5

>  <Muscarinic acetylcholine receptor M2>
5

>  <Muscarinic acetylcholine receptor M5>
5

>  <Norepinephrine transporter>
5

>  <Serotonin transporter>
5

$$$$
QUETIAPINE
  Marvin  02231216192D 0   1.00000     0.00000     0

 27 30  0  0  0  0  0  0  0  0999 V2000
    0.4015    1.2563    0.0000 S   0  0  0  0  0  0  0  0  0
    1.2173    1.3793    0.0000 C   0  0  0  0  0  0  0  0  0
    1.8221    0.8181    0.0000 C   0  0  0  0  0  0  0  0  0
    2.6104    1.0613    0.0000 C   0  0  0  0  0  0  0  0  0
    2.7940    1.8656    0.0000 C   0  0  0  0  0  0  0  0  0
    2.1892    2.4268    0.0000 C   0  0  0  0  0  0  0  0  0
    1.4009    2.1836    0.0000 C   0  0  0  0  0  0  0  0  0
    1.7604   -0.0046    0.0000 C   0  0  0  0  0  0  0  0  0
    1.0788   -0.4693    0.0000 N   0  0  0  0  0  0  0  0  0
    0.2904   -0.2261    0.0000 C   0  0  0  0  0  0  0  0  0
   -0.0110    0.5418    0.0000 C   0  0  0  0  0  0  0  0  0
   -0.8268    0.6648    0.0000 C   0  0  0  0  0  0  0  0  0
   -1.3412    0.0198    0.0000 C   0  0  0  0  0  0  0  0  0
   -1.0398   -0.7482    0.0000 C   0  0  0  0  0  0  0  0  0
   -0.2240   -0.8711    0.0000 C   0  0  0  0  0  0  0  0  0
    2.4749   -0.4171    0.0000 N   0  0  0  0  0  0  0  0  0
    3.1893   -0.0046    0.0000 C   0  0  0  0  0  0  0  0  0
    3.9038   -0.4171    0.0000 C   0  0  0  0  0  0  0  0  0
    3.9038   -1.2421    0.0000 N   0  0  0  0  0  0  0  0  0
    3.1893   -1.6546    0.0000 C   0  0  0  0  0  0  0  0  0
    2.4749   -1.2421    0.0000 C   0  0  0  0  0  0  0  0  0
    4.6183   -1.6546    0.0000 C   0  0  0  0  0  0  0  0  0
    5.3328   -1.2421    0.0000 C   0  0  0  0  0  0  0  0  0
    6.0472   -1.6546    0.0000 O   0  0  0  0  0  0  0  0  0
    6.7617   -1.2421    0.0000 C   0  0  0  0  0  0  0  0  0
    7.4762   -1.6546    0.0000 C   0  0  0  0  0  0  0  0  0
    8.1906   -1.2421    0.0000 O   0  0  0  0  0  0  0  0  0
  1  2  1  0  0  0  0
  1 11  1  0  0  0  0
  2  3  4  0  0  0  0
  2  7  4  0  0  0  0
  3  4  4  0  0  0  0
  3  8  1  0  0  0  0
  4  5  4  0  0  0  0
  5  6  4  0  0  0  0
  6  7  4  0  0  0  0
  8  9  2  0  0  0  0
  8 16  1  0  0  0  0
  9 10  1  0  0  0  0
 10 11  4  0  0  0  0
 10 15  4  0  0  0  0
 11 12  4  0  0  0  0
 12 13  4  0  0  0  0
 13 14  4  0  0  0  0
 14 15  4  0  0  0  0
 16 17  1  0  0  0  0
 16 21  1  0  0  0  0
 17 18  1  0  0  0  0
 18 19  1  0  0  0  0
 19 20  1  0  0  0  0
 19 22  1  0  0  0  0
 20 21  1  0  0  0  0
 22 23  1  0  0  0  0
 23 24  1  0  0  0  0
 24 25  1  0  0  0  0
 25 26  1  0  0  0  0
 26 27  1  0  0  0  0
M  END
>  <Name_Molregno>
QUETIAPINE

>  <5-HT1A>
6.59

>  <5-HT1B>
5.83

>  <5-HT1D>
5.52

>  <5-HT1E>
5.76

>  <5-HT2A>
6.76

>  <5-HT2C>
5.82

>  <5-HT3>
5

>  <5-HT5>
5.51

>  <5-HT6>
6.35

>  <5-HT7>
6.74

>  <Alpha-1A>
7.66

>  <Alpha-1B>
7.41

>  <Alpha-2A>
5.51

>  <Alpha-2B>
6.44

>  <Alpha-2C>
7.18

>  <Beta-1>
5.15

>  <Beta-2>
5.15

>  <DOPAMINE D1>
5.95

>  <DOPAMINE D2>
6.51

>  <DOPAMINE D3>
6.59

>  <DOPAMINE D4>
5.77

>  <DOPAMINE D5>
5.79

>  <Dopamine transporter>
5

>  <HISTAMINE H1>
8.1

>  <HISTAMINE H2>
5

>  <HISTAMINE H4>
5

>  <Muscarinic acetylcholine receptor M1>
6.71

>  <Muscarinic acetylcholine receptor M2>
6.03

>  <Muscarinic acetylcholine receptor M3>
5.69

>  <Muscarinic acetylcholine receptor M4>
6.5

>  <Muscarinic acetylcholine receptor M5>
5.58

>  <Norepinephrine transporter>
5

>  <Serotonin transporter>
5.18

$$$$
RISPERIDONE
  Marvin  02231216192D 0   1.00000     0.00000     0

 30 34  0  0  0  0  0  0  0  0999 V2000
    1.8325   -2.9394    0.0000 F   0  0  0  0  0  0  0  0  0
    2.0875   -2.1548    0.0000 C   0  0  0  0  0  0  0  0  0
    1.5354   -1.5417    0.0000 C   0  0  0  0  0  0  0  0  0
    1.7904   -0.7571    0.0000 C   0  0  0  0  0  0  0  0  0
    1.3779   -0.0426    0.0000 O   0  0  0  0  0  0  0  0  0
    1.9299    0.5705    0.0000 N   0  0  0  0  0  0  0  0  0
    2.6836    0.2349    0.0000 C   0  0  0  0  0  0  0  0  0
    2.5974   -0.5856    0.0000 C   0  0  0  0  0  0  0  0  0
    3.1494   -1.1987    0.0000 C   0  0  0  0  0  0  0  0  0
    2.8945   -1.9833    0.0000 C   0  0  0  0  0  0  0  0  0
    3.3981    0.6474    0.0000 C   0  0  0  0  0  0  0  0  0
    3.3981    1.4724    0.0000 C   0  0  0  0  0  0  0  0  0
    4.1125    1.8849    0.0000 C   0  0  0  0  0  0  0  0  0
    4.8270    1.4724    0.0000 N   0  0  0  0  0  0  0  0  0
    4.8270    0.6474    0.0000 C   0  0  0  0  0  0  0  0  0
    4.1125    0.2349    0.0000 C   0  0  0  0  0  0  0  0  0
    5.5415    1.8849    0.0000 C   0  0  0  0  0  0  0  0  0
    6.2559    1.4724    0.0000 C   0  0  0  0  0  0  0  0  0
    6.9704    1.8849    0.0000 C   0  0  0  0  0  0  0  0  0
    7.6849    1.4724    0.0000 C   0  0  0  0  0  0  0  0  0
    7.6849    0.6474    0.0000 O   0  0  0  0  0  0  0  0  0
    8.3994    1.8849    0.0000 N   0  0  0  0  0  0  0  0  0
    8.3994    2.7099    0.0000 C   0  0  0  0  0  0  0  0  0
    7.6849    3.1224    0.0000 N   0  0  0  0  0  0  0  0  0
    6.9704    2.7099    0.0000 C   0  0  0  0  0  0  0  0  0
    6.2559    3.1224    0.0000 C   0  0  0  0  0  0  0  0  0
    9.1138    3.1224    0.0000 C   0  0  0  0  0  0  0  0  0
    9.8283    2.7099    0.0000 C   0  0  0  0  0  0  0  0  0
    9.8283    1.8849    0.0000 C   0  0  0  0  0  0  0  0  0
    9.1138    1.4724    0.0000 C   0  0  0  0  0  0  0  0  0
  1  2  1  0  0  0  0
  2  3  4  0  0  0  0
  2 10  4  0  0  0  0
  3  4  4  0  0  0  0
  4  5  4  0  0  0  0
  4  8  4  0  0  0  0
  5  6  4  0  0  0  0
  6  7  4  0  0  0  0
  7  8  4  0  0  0  0
  7 11  1  0  0  0  0
  8  9  4  0  0  0  0
  9 10  4  0  0  0  0
 11 12  1  0  0  0  0
 11 16  1  0  0  0  0
 12 13  1  0  0  0  0
 13 14  1  0  0  0  0
 14 15  1  0  0  0  0
 14 17  1  0  0  0  0
 15 16  1  0  0  0  0
 17 18  1  0  0  0  0
 18 19  1  0  0  0  0
 19 20  1  0  0  0  0
 19 25  2  0  0  0  0
 20 21  2  0  0  0  0
 20 22  1  0  0  0  0
 22 23  1  0  0  0  0
 22 30  1  0  0  0  0
 23 24  2  0  0  0  0
 23 27  1  0  0  0  0
 24 25  1  0  0  0  0
 25 26  1  0  0  0  0
 27 28  1  0  0  0  0
 28 29  1  0  0  0  0
 29 30  1  0  0  0  0
M  END
>  <Name_Molregno>
RISPERIDONE

>  <5-HT1A>
6.52

>  <5-HT1B>
7.66

>  <5-HT1D>
7.6

>  <5-HT1E>
5.44

>  <5-HT2A>
9.35

>  <5-HT2C>
7.74

>  <5-HT3>
5

>  <5-HT5>
6.69

>  <5-HT6>
5.7

>  <5-HT7>
8.4

>  <Alpha-1A>
8.38

>  <Alpha-1B>
8.05

>  <Alpha-2A>
7.46

>  <Alpha-2B>
7.34

>  <Alpha-2C>
8.56

>  <Beta-1>
5.15

>  <Beta-2>
5.15

>  <DOPAMINE D1>
6.61

>  <DOPAMINE D2>
8.58

>  <DOPAMINE D3>
8.17

>  <DOPAMINE D4>
8.17

>  <DOPAMINE D5>
7.03

>  <Dopamine transporter>
5

>  <HISTAMINE H1>
7.79

>  <HISTAMINE H2>
6.92

>  <HISTAMINE H4>
5

>  <Muscarinic acetylcholine receptor M1>
5.22

>  <Muscarinic acetylcholine receptor M2>
5.14

>  <Muscarinic acetylcholine receptor M3>
5

>  <Muscarinic acetylcholine receptor M4>
5.18

>  <Muscarinic acetylcholine receptor M5>
5

>  <Norepinephrine transporter>
5

>  <Serotonin transporter>
5.67

$$$$
ROFECOXIB
  Marvin  02231216192D 0   1.00000     0.00000     0

 22 24  0  0  0  0  0  0  0  0999 V2000
   -1.7307    1.7900    0.0000 S   0  0  0  0  0  0  0  0  0
   -1.7307    2.6150    0.0000 O   0  0  0  0  0  0  0  0  0
   -2.5557    1.7900    0.0000 O   0  0  0  0  0  0  0  0  0
   -0.9057    1.7900    0.0000 C   0  0  0  0  0  0  0  0  0
   -1.7307    0.9650    0.0000 C   0  0  0  0  0  0  0  0  0
   -1.0163    0.5525    0.0000 C   0  0  0  0  0  0  0  0  0
   -1.0163   -0.2725    0.0000 C   0  0  0  0  0  0  0  0  0
   -1.7307   -0.6850    0.0000 C   0  0  0  0  0  0  0  0  0
   -2.4452   -0.2725    0.0000 C   0  0  0  0  0  0  0  0  0
   -2.4452    0.5525    0.0000 C   0  0  0  0  0  0  0  0  0
   -1.7307   -1.5100    0.0000 C   0  0  0  0  0  0  0  0  0
   -1.0633   -1.9950    0.0000 C   0  0  0  0  0  0  0  0  0
   -1.3182   -2.7796    0.0000 O   0  0  0  0  0  0  0  0  0
   -2.1432   -2.7796    0.0000 C   0  0  0  0  0  0  0  0  0
   -2.6282   -3.4470    0.0000 O   0  0  0  0  0  0  0  0  0
   -2.3982   -1.9950    0.0000 C   0  0  0  0  0  0  0  0  0
   -3.1828   -1.7400    0.0000 C   0  0  0  0  0  0  0  0  0
   -3.7959   -2.2920    0.0000 C   0  0  0  0  0  0  0  0  0
   -4.5805   -2.0371    0.0000 C   0  0  0  0  0  0  0  0  0
   -4.7520   -1.2301    0.0000 C   0  0  0  0  0  0  0  0  0
   -4.1390   -0.6781    0.0000 C   0  0  0  0  0  0  0  0  0
   -3.3543   -0.9330    0.0000 C   0  0  0  0  0  0  0  0  0
  1  2  2  0  0  0  0
  1  3  2  0  0  0  0
  1  4  1  0  0  0  0
  1  5  1  0  0  0  0
  5  6  4  0  0  0  0
  5 10  4  0  0  0  0
  6  7  4  0  0  0  0
  7  8  4  0  0  0  0
  8  9  4  0  0  0  0
  8 11  1  0  0  0  0
  9 10  4  0  0  0  0
 11 12  1  0  0  0  0
 11 16  2  0  0  0  0
 12 13  1  0  0  0  0
 13 14  1  0  0  0  0
 14 15  2  0  0  0  0
 14 16  1  0  0  0  0
 16 17  1  0  0  0  0
 17 18  4  0  0  0  0
 17 22  4  0  0  0  0
 18 19  4  0  0  0  0
 19 20  4  0  0  0  0
 20 21  4  0  0  0  0
 21 22  4  0  0  0  0
M  END
>  <Name_Molregno>
ROFECOXIB

>  <5-HT1A>
5

>  <5-HT1B>
5

>  <5-HT1D>
5

>  <5-HT1E>
5

>  <5-HT2A>
5

>  <5-HT3>
5

>  <5-HT6>
5

>  <5-HT7>
5

>  <Alpha-1A>
5

>  <Alpha-1B>
5

>  <Alpha-2A>
5

>  <Alpha-2B>
5

>  <Alpha-2C>
5

>  <DOPAMINE D1>
5

>  <DOPAMINE D2>
5

>  <DOPAMINE D5>
5

>  <Dopamine transporter>
5

>  <HISTAMINE H2>
5

>  <Muscarinic acetylcholine receptor M2>
5

>  <Muscarinic acetylcholine receptor M5>
5

>  <Norepinephrine transporter>
5

>  <Serotonin transporter>
5

$$$$
SR144528
  Marvin  02231216192D 0   1.00000     0.00000     0

 34 38  0  0  1  0  0  0  0  0999 V2000
   -3.4859   -7.8445    0.0000 Cl  0  0  0  0  0  0  0  0  0
   -3.3410   -7.0323    0.0000 C   0  0  0  0  0  0  0  0  0
   -3.9720   -6.5008    0.0000 C   0  0  0  0  0  0  0  0  0
   -3.8271   -5.6886    0.0000 C   0  0  0  0  0  0  0  0  0
   -3.0513   -5.4080    0.0000 C   0  0  0  0  0  0  0  0  0
   -2.4203   -5.9395    0.0000 C   0  0  0  0  0  0  0  0  0
   -2.5652   -6.7517    0.0000 C   0  0  0  0  0  0  0  0  0
   -1.9343   -7.2833    0.0000 C   0  0  0  0  0  0  0  0  0
   -2.9064   -4.5958    0.0000 C   0  0  0  0  0  0  0  0  0
   -3.4783   -4.0012    0.0000 N   0  0  0  0  0  0  0  0  0
   -3.0895   -3.2735    0.0000 N   0  0  0  0  0  0  0  0  0
   -2.2773   -3.4184    0.0000 C   0  0  0  0  0  0  0  0  0
   -2.1641   -4.2356    0.0000 C   0  0  0  0  0  0  0  0  0
   -1.6827   -2.8465    0.0000 C   0  0  0  0  0  0  0  0  0
   -1.8807   -2.0456    0.0000 O   0  0  0  0  0  0  0  0  0
   -0.8901   -3.0755    0.0000 N   0  0  0  0  0  0  0  0  0
   -0.2955   -2.5036    0.0000 C   0  0  0  0  0  0  0  0  0
    0.0698   -1.8431    0.0000 C   0  0  0  0  0  0  0  0  0
    0.7101   -1.3929    0.0000 C   0  0  0  0  0  0  0  0  0
    0.5501   -0.5775    0.0000 C   0  0  0  0  0  0  0  0  0
    0.4800   -2.1133    0.0000 C   0  0  0  0  0  0  0  0  0
    1.2105   -2.4836    0.0000 C   0  0  0  0  0  0  0  0  0
    1.5056   -1.8582    0.0000 C   0  0  0  0  0  0  0  0  0
    0.4788   -2.9383    0.0000 C   0  0  0  0  0  0  0  0  0
   -0.7153   -1.5897    0.0000 C   0  0  0  0  0  0  0  0  0
   -0.2665   -1.0898    0.0000 C   0  0  0  0  0  0  0  0  0
   -4.2955   -4.1144    0.0000 C   0  0  0  0  0  0  0  0  0
   -4.8021   -3.4633    0.0000 C   0  0  0  0  0  0  0  0  0
   -5.6193   -3.5764    0.0000 C   0  0  0  0  0  0  0  0  0
   -6.1259   -2.9253    0.0000 C   0  0  0  0  0  0  0  0  0
   -5.8153   -2.1610    0.0000 C   0  0  0  0  0  0  0  0  0
   -4.9981   -2.0478    0.0000 C   0  0  0  0  0  0  0  0  0
   -4.4915   -2.6989    0.0000 C   0  0  0  0  0  0  0  0  0
   -6.3219   -1.5099    0.0000 C   0  0  0  0  0  0  0  0  0
  1  2  1  0  0  0  0
  2  3  4  0  0  0  0
  2  7  4  0  0  0  0
  3  4  4  0  0  0  0
  4  5  4  0  0  0  0
  5  6  4  0  0  0  0
  5  9  1  0  0  0  0
  6  7  4  0  0  0  0
  7  8  1  0  0  0  0
  9 10  4  0  0  0  0
  9 13  4  0  0  0  0
 10 11  4  0  0  0  0
 10 27  1  0  0  0  0
 11 12  4  0  0  0  0
 12 13  4  0  0  0  0
 12 14  1  0  0  0  0
 14 15  2  0  0  0  0
 14 16  1  0  0  0  0
 16 17  1  0  0  0  0
 17 18  1  0  0  0  0
 17 21  1  0  0  0  0
 18 19  1  0  0  0  0
 18 25  1  0  0  0  0
 18 26  1  0  0  0  0
 19 20  1  0  0  0  0
 19 23  1  0  0  0  0
 20 21  1  0  0  0  0
 21 22  1  0  0  0  0
 21 24  1  0  0  0  0
 22 23  1  0  0  0  0
 27 28  1  0  0  0  0
 28 29  4  0  0  0  0
 28 33  4  0  0  0  0
 29 30  4  0  0  0  0
 30 31  4  0  0  0  0
 31 32  4  0  0  0  0
 31 34  1  0  0  0  0
 32 33  4  0  0  0  0
M  END
>  <Name_Molregno>
SR144528

>  <5-HT1A>
5

>  <5-HT1B>
5

>  <5-HT1D>
5

>  <5-HT2A>
5

>  <5-HT2C>
5

>  <5-HT3>
5

>  <Beta-1>
5

>  <Beta-2>
5

>  <DOPAMINE D1>
5

>  <DOPAMINE D2>
5

>  <DOPAMINE D3>
5

>  <DOPAMINE D4>
5

>  <HISTAMINE H1>
5

>  <HISTAMINE H2>
5

>  <HISTAMINE H3>
5

>  <Muscarinic acetylcholine receptor M1>
5

>  <Muscarinic acetylcholine receptor M2>
5

>  <Muscarinic acetylcholine receptor M4>
5

$$$$
THIORIDAZINE
  Marvin  02231216192D 0   1.00000     0.00000     0

 25 28  0  0  1  0  0  0  0  0999 V2000
    1.0601   -0.3753    0.0000 S   0  0  0  0  0  0  0  0  0
    1.7746    0.0372    0.0000 C   0  0  0  0  0  0  0  0  0
    1.7746    0.8622    0.0000 C   0  0  0  0  0  0  0  0  0
    1.0601    1.2747    0.0000 N   0  0  0  0  0  0  0  0  0
    0.3456    0.8622    0.0000 C   0  0  0  0  0  0  0  0  0
    0.3456    0.0372    0.0000 C   0  0  0  0  0  0  0  0  0
   -0.3689   -0.3753    0.0000 C   0  0  0  0  0  0  0  0  0
   -1.0833    0.0372    0.0000 C   0  0  0  0  0  0  0  0  0
   -1.0833    0.8622    0.0000 C   0  0  0  0  0  0  0  0  0
   -0.3689    1.2747    0.0000 C   0  0  0  0  0  0  0  0  0
    1.0601    2.0997    0.0000 C   0  0  0  0  0  0  0  0  0
    0.3456    2.5122    0.0000 C   0  0  0  0  0  0  0  0  0
    0.3456    3.3372    0.0000 C   0  0  0  0  0  0  0  0  0
   -0.3689    3.7497    0.0000 N   0  0  0  0  0  0  0  0  0
   -0.3689    4.5747    0.0000 C   0  0  0  0  0  0  0  0  0
    0.3456    4.9872    0.0000 C   0  0  0  0  0  0  0  0  0
    1.0601    4.5747    0.0000 C   0  0  0  0  0  0  0  0  0
    1.0601    3.7497    0.0000 C   0  0  0  0  0  0  0  0  0
   -1.0833    3.3372    0.0000 C   0  0  0  0  0  0  0  0  0
    2.4890    1.2747    0.0000 C   0  0  0  0  0  0  0  0  0
    3.2035    0.8622    0.0000 C   0  0  0  0  0  0  0  0  0
    3.9180    1.2747    0.0000 S   0  0  0  0  0  0  0  0  0
    3.9180    2.0997    0.0000 C   0  0  0  0  0  0  0  0  0
    3.2035    0.0372    0.0000 C   0  0  0  0  0  0  0  0  0
    2.4890   -0.3753    0.0000 C   0  0  0  0  0  0  0  0  0
  1  2  1  0  0  0  0
  1  6  1  0  0  0  0
  2  3  4  0  0  0  0
  2 25  4  0  0  0  0
  3  4  1  0  0  0  0
  3 20  4  0  0  0  0
  4  5  1  0  0  0  0
  4 11  1  0  0  0  0
  5  6  4  0  0  0  0
  5 10  4  0  0  0  0
  6  7  4  0  0  0  0
  7  8  4  0  0  0  0
  8  9  4  0  0  0  0
  9 10  4  0  0  0  0
 11 12  1  0  0  0  0
 12 13  1  0  0  0  0
 13 14  1  0  0  0  0
 13 18  1  0  0  0  0
 14 15  1  0  0  0  0
 14 19  1  0  0  0  0
 15 16  1  0  0  0  0
 16 17  1  0  0  0  0
 17 18  1  0  0  0  0
 20 21  4  0  0  0  0
 21 22  1  0  0  0  0
 21 24  4  0  0  0  0
 22 23  1  0  0  0  0
 24 25  4  0  0  0  0
M  END
>  <Name_Molregno>
THIORIDAZINE

>  <5-HT1A>
6.85

>  <5-HT1B>
6.96

>  <5-HT1D>
6.24

>  <5-HT1E>
6.71

>  <5-HT2A>
7.95

>  <5-HT2C>
7.28

>  <5-HT3>
5

>  <5-HT5>
6.44

>  <5-HT6>
7.24

>  <5-HT7>
7.05

>  <Alpha-1A>
8.6

>  <Alpha-1B>
8.62

>  <Alpha-2A>
6.87

>  <Alpha-2B>
6.47

>  <Alpha-2C>
7.13

>  <Beta-1>
5

>  <Beta-2>
5

>  <DOPAMINE D1>
7.03

>  <DOPAMINE D2>
8.31

>  <DOPAMINE D3>
8.59

>  <DOPAMINE D4>
8.21

>  <DOPAMINE D5>
6.6

>  <Dopamine transporter>
5.77

>  <HISTAMINE H1>
7.79

>  <HISTAMINE H2>
6.87

>  <HISTAMINE H4>
5.62

>  <Muscarinic acetylcholine receptor M1>
8.21

>  <Muscarinic acetylcholine receptor M2>
7.26

>  <Muscarinic acetylcholine receptor M3>
7.6

>  <Muscarinic acetylcholine receptor M4>
7.38

>  <Muscarinic acetylcholine receptor M5>
7.9

>  <Norepinephrine transporter>
6.07

>  <Serotonin transporter>
5.9

$$$$
TRAZODONE
  Marvin  02231216192D 0   1.00000     0.00000     0

 26 29  0  0  0  0  0  0  0  0999 V2000
    0.6158   -2.7707    0.0000 Cl  0  0  0  0  0  0  0  0  0
    1.4408   -2.7707    0.0000 C   0  0  0  0  0  0  0  0  0
    1.8533   -2.0563    0.0000 C   0  0  0  0  0  0  0  0  0
    2.6783   -2.0563    0.0000 C   0  0  0  0  0  0  0  0  0
    3.0908   -1.3418    0.0000 N   0  0  0  0  0  0  0  0  0
    2.6783   -0.6273    0.0000 C   0  0  0  0  0  0  0  0  0
    3.0908    0.0872    0.0000 C   0  0  0  0  0  0  0  0  0
    3.9158    0.0872    0.0000 N   0  0  0  0  0  0  0  0  0
    4.3283   -0.6273    0.0000 C   0  0  0  0  0  0  0  0  0
    3.9158   -1.3418    0.0000 C   0  0  0  0  0  0  0  0  0
    4.3283    0.8016    0.0000 C   0  0  0  0  0  0  0  0  0
    5.1533    0.8016    0.0000 C   0  0  0  0  0  0  0  0  0
    5.5658    1.5161    0.0000 C   0  0  0  0  0  0  0  0  0
    6.3908    1.5161    0.0000 N   0  0  0  0  0  0  0  0  0
    6.8757    0.8487    0.0000 N   0  0  0  0  0  0  0  0  0
    7.6604    1.1036    0.0000 C   0  0  0  0  0  0  0  0  0
    7.6604    1.9286    0.0000 N   0  0  0  0  0  0  0  0  0
    8.3748    2.3411    0.0000 C   0  0  0  0  0  0  0  0  0
    9.0893    1.9286    0.0000 C   0  0  0  0  0  0  0  0  0
    9.0893    1.1036    0.0000 C   0  0  0  0  0  0  0  0  0
    8.3748    0.6911    0.0000 C   0  0  0  0  0  0  0  0  0
    6.8757    2.1835    0.0000 C   0  0  0  0  0  0  0  0  0
    6.6208    2.9682    0.0000 O   0  0  0  0  0  0  0  0  0
    3.0908   -2.7707    0.0000 C   0  0  0  0  0  0  0  0  0
    2.6783   -3.4852    0.0000 C   0  0  0  0  0  0  0  0  0
    1.8533   -3.4852    0.0000 C   0  0  0  0  0  0  0  0  0
  1  2  1  0  0  0  0
  2  3  4  0  0  0  0
  2 26  4  0  0  0  0
  3  4  4  0  0  0  0
  4  5  1  0  0  0  0
  4 24  4  0  0  0  0
  5  6  1  0  0  0  0
  5 10  1  0  0  0  0
  6  7  1  0  0  0  0
  7  8  1  0  0  0  0
  8  9  1  0  0  0  0
  8 11  1  0  0  0  0
  9 10  1  0  0  0  0
 11 12  1  0  0  0  0
 12 13  1  0  0  0  0
 13 14  1  0  0  0  0
 14 15  1  0  0  0  0
 14 22  1  0  0  0  0
 15 16  2  0  0  0  0
 16 17  1  0  0  0  0
 16 21  1  0  0  0  0
 17 18  1  0  0  0  0
 17 22  1  0  0  0  0
 18 19  2  0  0  0  0
 19 20  1  0  0  0  0
 20 21  2  0  0  0  0
 22 23  2  0  0  0  0
 24 25  4  0  0  0  0
 25 26  4  0  0  0  0
M  END
>  <Name_Molregno>
TRAZODONE

>  <5-HT1A>
6.97

>  <5-HT1B>
5

>  <5-HT1D>
6.97

>  <5-HT1E>
5

>  <5-HT2A>
7.46

>  <5-HT2C>
6.65

>  <5-HT3>
5

>  <5-HT5>
5

>  <5-HT6>
5

>  <5-HT7>
5.75

>  <Alpha-1A>
6.82

>  <Alpha-2A>
6.14

>  <Alpha-2C>
6.81

>  <Beta-1>
5

>  <Beta-2>
5

>  <DOPAMINE D1>
5.43

>  <DOPAMINE D2>
5.42

>  <DOPAMINE D4>
6.15

>  <DOPAMINE D5>
5

>  <Dopamine transporter>
5.07

>  <HISTAMINE H1>
6.31

>  <HISTAMINE H2>
5.48

>  <HISTAMINE H4>
5

>  <Muscarinic acetylcholine receptor M1>
5

>  <Muscarinic acetylcholine receptor M2>
5

>  <Muscarinic acetylcholine receptor M3>
5

>  <Muscarinic acetylcholine receptor M4>
5

>  <Muscarinic acetylcholine receptor M5>
5

>  <Norepinephrine transporter>
5.02

>  <Serotonin transporter>
6.14

$$$$
VALDECOXIB
  Marvin  02231216192D 0   1.00000     0.00000     0

 22 24  0  0  0  0  0  0  0  0999 V2000
   -2.8104    3.0816    0.0000 S   0  0  0  0  0  0  0  0  0
   -2.8104    3.9066    0.0000 O   0  0  0  0  0  0  0  0  0
   -3.6354    3.0816    0.0000 O   0  0  0  0  0  0  0  0  0
   -1.9854    3.0816    0.0000 N   0  0  0  0  0  0  0  0  0
   -2.8104    2.2566    0.0000 C   0  0  0  0  0  0  0  0  0
   -2.0959    1.8441    0.0000 C   0  0  0  0  0  0  0  0  0
   -2.0959    1.0191    0.0000 C   0  0  0  0  0  0  0  0  0
   -2.8104    0.6066    0.0000 C   0  0  0  0  0  0  0  0  0
   -3.5249    1.0191    0.0000 C   0  0  0  0  0  0  0  0  0
   -3.5249    1.8441    0.0000 C   0  0  0  0  0  0  0  0  0
   -2.8104   -0.2184    0.0000 C   0  0  0  0  0  0  0  0  0
   -2.1430   -0.7033    0.0000 C   0  0  0  0  0  0  0  0  0
   -2.3979   -1.4879    0.0000 N   0  0  0  0  0  0  0  0  0
   -3.2229   -1.4879    0.0000 O   0  0  0  0  0  0  0  0  0
   -3.4778   -0.7033    0.0000 C   0  0  0  0  0  0  0  0  0
   -4.2625   -0.4483    0.0000 C   0  0  0  0  0  0  0  0  0
   -1.3583   -0.4483    0.0000 C   0  0  0  0  0  0  0  0  0
   -1.1868    0.3586    0.0000 C   0  0  0  0  0  0  0  0  0
   -0.4022    0.6136    0.0000 C   0  0  0  0  0  0  0  0  0
    0.2109    0.0615    0.0000 C   0  0  0  0  0  0  0  0  0
    0.0394   -0.7454    0.0000 C   0  0  0  0  0  0  0  0  0
   -0.7452   -1.0004    0.0000 C   0  0  0  0  0  0  0  0  0
  1  2  2  0  0  0  0
  1  3  2  0  0  0  0
  1  4  1  0  0  0  0
  1  5  1  0  0  0  0
  5  6  4  0  0  0  0
  5 10  4  0  0  0  0
  6  7  4  0  0  0  0
  7  8  4  0  0  0  0
  8  9  4  0  0  0  0
  8 11  1  0  0  0  0
  9 10  4  0  0  0  0
 11 12  4  0  0  0  0
 11 15  4  0  0  0  0
 12 13  4  0  0  0  0
 12 17  1  0  0  0  0
 13 14  4  0  0  0  0
 14 15  4  0  0  0  0
 15 16  1  0  0  0  0
 17 18  4  0  0  0  0
 17 22  4  0  0  0  0
 18 19  4  0  0  0  0
 19 20  4  0  0  0  0
 20 21  4  0  0  0  0
 21 22  4  0  0  0  0
M  END
>  <Name_Molregno>
VALDECOXIB

>  <5-HT1A>
5

>  <5-HT1B>
5

>  <5-HT1D>
5

>  <5-HT1E>
5

>  <5-HT2A>
5

>  <5-HT3>
5

>  <5-HT6>
5

>  <5-HT7>
5

>  <Alpha-1A>
5

>  <Alpha-1B>
5

>  <Alpha-2A>
5

>  <Alpha-2B>
5

>  <Alpha-2C>
5

>  <DOPAMINE D1>
5

>  <DOPAMINE D2>
5

>  <DOPAMINE D5>
5

>  <Dopamine transporter>
5

>  <HISTAMINE H1>
5

>  <HISTAMINE H2>
5

>  <Muscarinic acetylcholine receptor M2>
5

>  <Muscarinic acetylcholine receptor M5>
5

>  <Serotonin transporter>
5

$$$$
valeryl-salicylate
  Marvin  02231216192D 0   1.00000     0.00000     0

 16 16  0  0  0  0  0  0  0  0999 V2000
   -0.4431    0.9218    0.0000 O   0  0  0  0  0  0  0  0  0
    0.2714    1.3343    0.0000 C   0  0  0  0  0  0  0  0  0
    0.2714    2.1593    0.0000 O   0  0  0  0  0  0  0  0  0
    0.9859    0.9218    0.0000 C   0  0  0  0  0  0  0  0  0
    1.7003    1.3343    0.0000 C   0  0  0  0  0  0  0  0  0
    2.4148    0.9218    0.0000 C   0  0  0  0  0  0  0  0  0
    2.4148    0.0968    0.0000 C   0  0  0  0  0  0  0  0  0
   -0.4431    0.0968    0.0000 C   0  0  0  0  0  0  0  0  0
    0.2714   -0.3157    0.0000 C   0  0  0  0  0  0  0  0  0
    0.2714   -1.1407    0.0000 C   0  0  0  0  0  0  0  0  0
   -0.4431   -1.5532    0.0000 C   0  0  0  0  0  0  0  0  0
   -1.1576   -1.1407    0.0000 C   0  0  0  0  0  0  0  0  0
   -1.1576   -0.3157    0.0000 C   0  0  0  0  0  0  0  0  0
   -1.8720    0.0968    0.0000 C   0  0  0  0  0  0  0  0  0
   -2.5865   -0.3157    0.0000 O   0  0  0  0  0  0  0  0  0
   -1.8720    0.9218    0.0000 O   0  0  0  0  0  0  0  0  0
  1  2  1  0  0  0  0
  1  8  1  0  0  0  0
  2  3  2  0  0  0  0
  2  4  1  0  0  0  0
  4  5  1  0  0  0  0
  5  6  1  0  0  0  0
  6  7  1  0  0  0  0
  8  9  4  0  0  0  0
  8 13  4  0  0  0  0
  9 10  4  0  0  0  0
 10 11  4  0  0  0  0
 11 12  4  0  0  0  0
 12 13  4  0  0  0  0
 13 14  1  0  0  0  0
 14 15  1  0  0  0  0
 14 16  2  0  0  0  0
M  END
>  <Name_Molregno>
valeryl-salicylate

>  <5-HT1A>
5

>  <5-HT1B>
5

>  <5-HT1D>
5

>  <5-HT1E>
5

>  <5-HT2A>
5

>  <5-HT3>
5

>  <5-HT5>
5

>  <5-HT6>
5

>  <5-HT7>
5

>  <Alpha-1A>
5

>  <Alpha-1B>
5

>  <Alpha-2A>
5

>  <Alpha-2B>
5

>  <Alpha-2C>
5

>  <DOPAMINE D1>
5

>  <DOPAMINE D2>
5

>  <DOPAMINE D4>
5

>  <DOPAMINE D5>
5

>  <HISTAMINE H1>
5

>  <HISTAMINE H2>
5

>  <HISTAMINE H4>
5

>  <Muscarinic acetylcholine receptor M2>
5

>  <Muscarinic acetylcholine receptor M5>
5

$$$$
ZIPRASIDONE
  Marvin  02231216192D 0   1.00000     0.00000     0

 28 32  0  0  0  0  0  0  0  0999 V2000
   -5.2868    0.2535    0.0000 Cl  0  0  0  0  0  0  0  0  0
   -4.7347    0.8666    0.0000 C   0  0  0  0  0  0  0  0  0
   -4.9897    1.6513    0.0000 C   0  0  0  0  0  0  0  0  0
   -4.4376    2.2643    0.0000 C   0  0  0  0  0  0  0  0  0
   -4.5239    3.0848    0.0000 N   0  0  0  0  0  0  0  0  0
   -3.7702    3.4204    0.0000 C   0  0  0  0  0  0  0  0  0
   -3.5987    4.2274    0.0000 O   0  0  0  0  0  0  0  0  0
   -3.2182    2.8073    0.0000 C   0  0  0  0  0  0  0  0  0
   -3.6307    2.0928    0.0000 C   0  0  0  0  0  0  0  0  0
   -3.3757    1.3082    0.0000 C   0  0  0  0  0  0  0  0  0
   -3.9278    0.6951    0.0000 C   0  0  0  0  0  0  0  0  0
   -3.6728   -0.0895    0.0000 C   0  0  0  0  0  0  0  0  0
   -2.8658   -0.2610    0.0000 C   0  0  0  0  0  0  0  0  0
   -2.6109   -1.0457    0.0000 N   0  0  0  0  0  0  0  0  0
   -1.8039   -1.2172    0.0000 C   0  0  0  0  0  0  0  0  0
   -1.5490   -2.0018    0.0000 C   0  0  0  0  0  0  0  0  0
   -2.1010   -2.6149    0.0000 N   0  0  0  0  0  0  0  0  0
   -2.9080   -2.4434    0.0000 C   0  0  0  0  0  0  0  0  0
   -3.1629   -1.6588    0.0000 C   0  0  0  0  0  0  0  0  0
   -1.8461   -3.3995    0.0000 C   0  0  0  0  0  0  0  0  0
   -2.3310   -4.0670    0.0000 N   0  0  0  0  0  0  0  0  0
   -1.8461   -4.7344    0.0000 S   0  0  0  0  0  0  0  0  0
   -1.0615   -4.4795    0.0000 C   0  0  0  0  0  0  0  0  0
   -1.0615   -3.6545    0.0000 C   0  0  0  0  0  0  0  0  0
   -0.3470   -3.2420    0.0000 C   0  0  0  0  0  0  0  0  0
    0.3675   -3.6545    0.0000 C   0  0  0  0  0  0  0  0  0
    0.3675   -4.4795    0.0000 C   0  0  0  0  0  0  0  0  0
   -0.3470   -4.8920    0.0000 C   0  0  0  0  0  0  0  0  0
  1  2  1  0  0  0  0
  2  3  4  0  0  0  0
  2 11  4  0  0  0  0
  3  4  4  0  0  0  0
  4  5  1  0  0  0  0
  4  9  4  0  0  0  0
  5  6  1  0  0  0  0
  6  7  2  0  0  0  0
  6  8  1  0  0  0  0
  8  9  1  0  0  0  0
  9 10  4  0  0  0  0
 10 11  4  0  0  0  0
 11 12  1  0  0  0  0
 12 13  1  0  0  0  0
 13 14  1  0  0  0  0
 14 15  1  0  0  0  0
 14 19  1  0  0  0  0
 15 16  1  0  0  0  0
 16 17  1  0  0  0  0
 17 18  1  0  0  0  0
 17 20  1  0  0  0  0
 18 19  1  0  0  0  0
 20 21  4  0  0  0  0
 20 24  4  0  0  0  0
 21 22  4  0  0  0  0
 22 23  4  0  0  0  0
 23 24  4  0  0  0  0
 23 28  4  0  0  0  0
 24 25  4  0  0  0  0
 25 26  4  0  0  0  0
 26 27  4  0  0  0  0
 27 28  4  0  0  0  0
M  END
>  <Name_Molregno>
ZIPRASIDONE

>  <5-HT1A>
8.19

>  <5-HT1B>
8.7

>  <5-HT1D>
8.32

>  <5-HT1E>
6.17

>  <5-HT2A>
9.54

>  <5-HT2C>
8.82

>  <5-HT3>
5.7

>  <5-HT5>
6.54

>  <5-HT6>
7.17

>  <5-HT7>
8.23

>  <Alpha-1A>
7.74

>  <Alpha-1B>
8.05

>  <Alpha-2A>
6.8

>  <Alpha-2B>
7.32

>  <Alpha-2C>
7.15

>  <Beta-1>
5.3

>  <Beta-2>
5.15

>  <DOPAMINE D1>
7.1

>  <DOPAMINE D2>
8.39

>  <DOPAMINE D3>
8.21

>  <DOPAMINE D4>
7.43

>  <DOPAMINE D5>
6.82

>  <Dopamine transporter>
5

>  <HISTAMINE H1>
7.51

>  <HISTAMINE H2>
5.46

>  <HISTAMINE H4>
5

>  <Muscarinic acetylcholine receptor M1>
5.53

>  <Muscarinic acetylcholine receptor M2>
5.26

>  <Muscarinic acetylcholine receptor M3>
5.3

>  <Muscarinic acetylcholine receptor M4>
5.4

>  <Muscarinic acetylcholine receptor M5>
5.4

>  <Norepinephrine transporter>
7.36

>  <Serotonin transporter>
6.92

$$$$
ZOTEPINE
  Marvin  02231216192D 0   1.00000     0.00000     0

 22 24  0  0  0  0  0  0  0  0999 V2000
    1.8575   -4.4413    0.0000 Cl  0  0  0  0  0  0  0  0  0
    1.0691   -4.1981    0.0000 C   0  0  0  0  0  0  0  0  0
    0.8856   -3.3938    0.0000 C   0  0  0  0  0  0  0  0  0
    0.0972   -3.1507    0.0000 C   0  0  0  0  0  0  0  0  0
   -0.5076   -3.7118    0.0000 C   0  0  0  0  0  0  0  0  0
   -1.3233   -3.5888    0.0000 S   0  0  0  0  0  0  0  0  0
   -1.7358   -2.8744    0.0000 C   0  0  0  0  0  0  0  0  0
   -1.4344   -2.1064    0.0000 C   0  0  0  0  0  0  0  0  0
   -0.6461   -1.8632    0.0000 C   0  0  0  0  0  0  0  0  0
    0.0356   -2.3280    0.0000 C   0  0  0  0  0  0  0  0  0
    0.7500   -1.9155    0.0000 O   0  0  0  0  0  0  0  0  0
    1.4645   -2.3280    0.0000 C   0  0  0  0  0  0  0  0  0
    2.1790   -1.9155    0.0000 C   0  0  0  0  0  0  0  0  0
    2.8934   -2.3280    0.0000 N   0  0  0  0  0  0  0  0  0
    3.6079   -1.9155    0.0000 C   0  0  0  0  0  0  0  0  0
    2.8934   -3.1530    0.0000 C   0  0  0  0  0  0  0  0  0
   -1.9488   -1.4614    0.0000 C   0  0  0  0  0  0  0  0  0
   -2.7646   -1.5843    0.0000 C   0  0  0  0  0  0  0  0  0
   -3.0660   -2.3523    0.0000 C   0  0  0  0  0  0  0  0  0
   -2.5516   -2.9973    0.0000 C   0  0  0  0  0  0  0  0  0
   -0.3240   -4.5161    0.0000 C   0  0  0  0  0  0  0  0  0
    0.4644   -4.7593    0.0000 C   0  0  0  0  0  0  0  0  0
  1  2  1  0  0  0  0
  2  3  4  0  0  0  0
  2 22  4  0  0  0  0
  3  4  4  0  0  0  0
  4  5  4  0  0  0  0
  4 10  1  0  0  0  0
  5  6  1  0  0  0  0
  5 21  4  0  0  0  0
  6  7  1  0  0  0  0
  7  8  4  0  0  0  0
  7 20  4  0  0  0  0
  8  9  1  0  0  0  0
  8 17  4  0  0  0  0
  9 10  2  0  0  0  0
 10 11  1  0  0  0  0
 11 12  1  0  0  0  0
 12 13  1  0  0  0  0
 13 14  1  0  0  0  0
 14 15  1  0  0  0  0
 14 16  1  0  0  0  0
 17 18  4  0  0  0  0
 18 19  4  0  0  0  0
 19 20  4  0  0  0  0
 21 22  4  0  0  0  0
M  END
>  <Name_Molregno>
ZOTEPINE

>  <5-HT1A>
6.41

>  <5-HT1B>
7.23

>  <5-HT1D>
7.02

>  <5-HT1E>
6.23

>  <5-HT2A>
8.58

>  <5-HT2C>
8.49

>  <5-HT3>
6.33

>  <5-HT5>
7.54

>  <5-HT6>
8.22

>  <5-HT7>
7.92

>  <Alpha-1A>
8.15

>  <Alpha-1B>
8.3

>  <Alpha-2A>
6.68

>  <Alpha-2B>
8.27

>  <Alpha-2C>
7.02

>  <Beta-1>
5.19

>  <Beta-2>
5.32

>  <DOPAMINE D1>
7.15

>  <DOPAMINE D2>
7.98

>  <DOPAMINE D3>
8.19

>  <DOPAMINE D4>
7.57

>  <DOPAMINE D5>
6.61

>  <Dopamine transporter>
5.44

>  <HISTAMINE H1>
8.64

>  <HISTAMINE H2>
6.3

>  <HISTAMINE H4>
5.7

>  <Muscarinic acetylcholine receptor M1>
6.37

>  <Muscarinic acetylcholine receptor M2>
5.92

>  <Muscarinic acetylcholine receptor M3>
6.07

>  <Muscarinic acetylcholine receptor M4>
6.06

>  <Muscarinic acetylcholine receptor M5>
5.8

>  <Norepinephrine transporter>
6.28

>  <Serotonin transporter>
6.41

$$$$
