2724
  Marvin  02231216192D 0   1.00000     0.00000     0

 16 17  0  0  1  0  0  0  0  0999 V2000
    1.7558    2.8334    0.0000 O   0  0  0  0  0  0  0  0  0
    1.7558    2.0084    0.0000 C   0  0  0  0  0  0  0  0  0
    2.4703    1.5959    0.0000 C   0  0  0  0  0  0  0  0  0
    2.4703    0.7709    0.0000 C   0  0  0  0  0  0  0  0  0
    1.7558    0.3584    0.0000 C   0  0  0  0  0  0  0  0  0
    1.0413    0.7709    0.0000 C   0  0  0  0  0  0  0  0  0
    1.0413    1.5959    0.0000 C   0  0  0  0  0  0  0  0  0
    3.1847    0.3584    0.0000 C   0  0  0  0  0  0  0  0  0
    3.8992    0.7709    0.0000 C   0  0  0  0  0  0  0  0  0
    4.6137    0.3584    0.0000 C   0  0  0  0  0  0  0  0  0
    4.6137   -0.4666    0.0000 C   0  0  0  0  0  0  0  0  0
    3.8992   -0.8791    0.0000 N   0  0  0  0  0  0  0  0  0
    3.1847   -0.4666    0.0000 C   0  0  0  0  0  0  0  0  0
    3.8992   -1.7041    0.0000 C   0  0  0  0  0  0  0  0  0
    3.1847   -2.1166    0.0000 C   0  0  0  0  0  0  0  0  0
    3.1847   -2.9416    0.0000 C   0  0  0  0  0  0  0  0  0
  1  2  1  0  0  0  0
  2  3  4  0  0  0  0
  2  7  4  0  0  0  0
  3  4  4  0  0  0  0
  4  5  4  0  0  0  0
  4  8  1  0  0  0  0
  5  6  4  0  0  0  0
  6  7  4  0  0  0  0
  8  9  1  0  0  0  0
  8 13  1  0  0  0  0
  9 10  1  0  0  0  0
 10 11  1  0  0  0  0
 11 12  1  0  0  0  0
 12 13  1  0  0  0  0
 12 14  1  0  0  0  0
 14 15  1  0  0  0  0
 15 16  1  0  0  0  0
M  END
>  <Name_Molregno>
2724

>  <5-HT1A>
5.73

>  <5-HT1E>
5

>  <5-HT3>
5

>  <5-HT5>
5

>  <5-HT6>
5

>  <Alpha-1A>
5

>  <Alpha-1B>
5

>  <Beta-2>
5

>  <DOPAMINE D1>
5

>  <DOPAMINE D2>
6.47

>  <DOPAMINE D3>
6.93

>  <DOPAMINE D4>
6.29

>  <DOPAMINE D5>
5.31

>  <Dopamine transporter>
5

>  <Muscarinic acetylcholine receptor M1>
5

>  <Muscarinic acetylcholine receptor M2>
5

>  <Muscarinic acetylcholine receptor M3>
5

>  <Muscarinic acetylcholine receptor M4>
5

>  <Muscarinic acetylcholine receptor M5>
5

>  <Norepinephrine transporter>
5.64

>  <Serotonin transporter>
5

$$$$
4181
  Marvin  02231216192D 0   1.00000     0.00000     0

 29 32  0  0  0  0  0  0  0  0999 V2000
   -7.1712   -1.9465    0.0000 O   0  0  0  0  0  0  0  0  0
   -7.5837   -2.6610    0.0000 C   0  0  0  0  0  0  0  0  0
   -7.5837   -1.2320    0.0000 C   0  0  0  0  0  0  0  0  0
   -8.4087   -1.2320    0.0000 C   0  0  0  0  0  0  0  0  0
   -8.8212   -0.5176    0.0000 C   0  0  0  0  0  0  0  0  0
   -8.4087    0.1969    0.0000 C   0  0  0  0  0  0  0  0  0
   -7.5837    0.1969    0.0000 C   0  0  0  0  0  0  0  0  0
   -7.1712   -0.5176    0.0000 C   0  0  0  0  0  0  0  0  0
   -6.3462   -0.5176    0.0000 N   0  0  0  0  0  0  0  0  0
   -5.9337    0.1969    0.0000 C   0  0  0  0  0  0  0  0  0
   -5.1087    0.1969    0.0000 C   0  0  0  0  0  0  0  0  0
   -4.6962   -0.5176    0.0000 N   0  0  0  0  0  0  0  0  0
   -5.1087   -1.2320    0.0000 C   0  0  0  0  0  0  0  0  0
   -5.9337   -1.2320    0.0000 C   0  0  0  0  0  0  0  0  0
   -3.8712   -0.5176    0.0000 C   0  0  0  0  0  0  0  0  0
   -3.4587    0.1969    0.0000 C   0  0  0  0  0  0  0  0  0
   -2.6337    0.1969    0.0000 C   0  0  0  0  0  0  0  0  0
   -2.2212    0.9114    0.0000 C   0  0  0  0  0  0  0  0  0
   -1.3962    0.9114    0.0000 N   0  0  0  0  0  0  0  0  0
   -0.9112    0.2439    0.0000 C   0  0  0  0  0  0  0  0  0
   -1.1662   -0.5407    0.0000 O   0  0  0  0  0  0  0  0  0
   -0.1266    0.4989    0.0000 C   0  0  0  0  0  0  0  0  0
   -0.1266    1.3239    0.0000 C   0  0  0  0  0  0  0  0  0
    0.5879    1.7364    0.0000 C   0  0  0  0  0  0  0  0  0
    1.3023    1.3239    0.0000 C   0  0  0  0  0  0  0  0  0
    1.3023    0.4989    0.0000 C   0  0  0  0  0  0  0  0  0
    0.5879    0.0864    0.0000 C   0  0  0  0  0  0  0  0  0
   -0.9112    1.5788    0.0000 C   0  0  0  0  0  0  0  0  0
   -1.1662    2.3634    0.0000 O   0  0  0  0  0  0  0  0  0
  1  2  1  0  0  0  0
  1  3  1  0  0  0  0
  3  4  4  0  0  0  0
  3  8  4  0  0  0  0
  4  5  4  0  0  0  0
  5  6  4  0  0  0  0
  6  7  4  0  0  0  0
  7  8  4  0  0  0  0
  8  9  1  0  0  0  0
  9 10  1  0  0  0  0
  9 14  1  0  0  0  0
 10 11  1  0  0  0  0
 11 12  1  0  0  0  0
 12 13  1  0  0  0  0
 12 15  1  0  0  0  0
 13 14  1  0  0  0  0
 15 16  1  0  0  0  0
 16 17  1  0  0  0  0
 17 18  1  0  0  0  0
 18 19  1  0  0  0  0
 19 20  1  0  0  0  0
 19 28  1  0  0  0  0
 20 21  2  0  0  0  0
 20 22  1  0  0  0  0
 22 23  4  0  0  0  0
 22 27  4  0  0  0  0
 23 24  4  0  0  0  0
 23 28  1  0  0  0  0
 24 25  4  0  0  0  0
 25 26  4  0  0  0  0
 26 27  4  0  0  0  0
 28 29  2  0  0  0  0
M  END
>  <Name_Molregno>
4181

>  <5-HT1A>
8.88

>  <Alpha-1A>
9.15

>  <Alpha-1B>
9.02

>  <DOPAMINE D1>
5.35

>  <DOPAMINE D2>
7.33

>  <DOPAMINE D3>
8.47

$$$$
4259
  Marvin  02231216192D 0   1.00000     0.00000     0

 27 31  0  0  1  0  0  0  0  0999 V2000
   -0.2544   -2.3296    0.0000 O   0  0  0  0  0  0  0  0  0
    0.3866   -1.8102    0.0000 C   0  0  0  0  0  0  0  0  0
    0.8114   -1.1029    0.0000 C   0  0  0  0  0  0  0  0  0
    1.6362   -1.1171    0.0000 C   0  0  0  0  0  0  0  0  0
    2.0364   -1.8386    0.0000 N   0  0  0  0  0  0  0  0  0
    1.6117   -2.5458    0.0000 C   0  0  0  0  0  0  0  0  0
    0.7868   -2.5317    0.0000 C   0  0  0  0  0  0  0  0  0
    2.8613   -1.8527    0.0000 C   0  0  0  0  0  0  0  0  0
    3.1740   -1.1970    0.0000 C   0  0  0  0  0  0  0  0  0
    2.8858   -0.4240    0.0000 C   0  0  0  0  0  0  0  0  0
    2.0609   -0.4098    0.0000 C   0  0  0  0  0  0  0  0  0
    1.6608    0.3116    0.0000 C   0  0  0  0  0  0  0  0  0
    2.0855    1.0189    0.0000 C   0  0  0  0  0  0  0  0  0
    2.9104    1.0047    0.0000 C   0  0  0  0  0  0  0  0  0
    3.3105    0.2833    0.0000 C   0  0  0  0  0  0  0  0  0
    4.1283    0.3922    0.0000 C   0  0  0  0  0  0  0  0  0
    4.7234   -0.1792    0.0000 C   0  0  0  0  0  0  0  0  0
    4.6476   -1.0008    0.0000 C   0  0  0  0  0  0  0  0  0
    3.9581   -1.4537    0.0000 C   0  0  0  0  0  0  0  0  0
    4.0056   -2.2773    0.0000 C   0  0  0  0  0  0  0  0  0
    4.7426   -2.6480    0.0000 C   0  0  0  0  0  0  0  0  0
    5.4321   -2.1951    0.0000 C   0  0  0  0  0  0  0  0  0
    5.3846   -1.3714    0.0000 C   0  0  0  0  0  0  0  0  0
   -0.2361   -1.2691    0.0000 C   0  0  0  0  0  0  0  0  0
   -0.8589   -0.7281    0.0000 C   0  0  0  0  0  0  0  0  0
    0.3049   -0.6464    0.0000 C   0  0  0  0  0  0  0  0  0
   -0.7772   -1.8919    0.0000 C   0  0  0  0  0  0  0  0  0
  1  2  1  0  0  0  0
  2  3  1  0  0  0  0
  2  7  1  0  0  0  0
  2 24  1  0  0  0  0
  3  4  1  0  0  0  0
  4  5  1  0  0  0  0
  4 11  1  0  0  0  0
  5  6  1  0  0  0  0
  5  8  1  0  0  0  0
  6  7  1  0  0  0  0
  8  9  1  0  0  0  0
  9 10  1  0  0  0  0
  9 19  1  0  0  0  0
 10 11  4  0  0  0  0
 10 15  4  0  0  0  0
 11 12  4  0  0  0  0
 12 13  4  0  0  0  0
 13 14  4  0  0  0  0
 14 15  4  0  0  0  0
 15 16  1  0  0  0  0
 16 17  1  0  0  0  0
 17 18  1  0  0  0  0
 18 19  4  0  0  0  0
 18 23  4  0  0  0  0
 19 20  4  0  0  0  0
 20 21  4  0  0  0  0
 21 22  4  0  0  0  0
 22 23  4  0  0  0  0
 24 25  1  0  0  0  0
 24 26  1  0  0  0  0
 24 27  1  0  0  0  0
M  END
>  <Name_Molregno>
4259

>  <5-HT1A>
6.08

>  <5-HT2A>
8.67

>  <DOPAMINE D1>
8.63

>  <DOPAMINE D2>
8.72

>  <DOPAMINE D3>
8.22

>  <DOPAMINE D4>
7.2

>  <DOPAMINE D5>
7.57

>  <HISTAMINE H1>
6.55

$$$$
4778
  Marvin  02231216192D 0   1.00000     0.00000     0

 20 22  0  0  1  0  0  0  0  0999 V2000
    0.1938   -0.4763    0.0000 Cl  0  0  0  0  0  0  0  0  0
    0.9083   -0.0638    0.0000 C   0  0  0  0  0  0  0  0  0
    1.6227   -0.4763    0.0000 C   0  0  0  0  0  0  0  0  0
    2.3372   -0.0638    0.0000 C   0  0  0  0  0  0  0  0  0
    2.3372    0.7612    0.0000 C   0  0  0  0  0  0  0  0  0
    1.6227    1.1737    0.0000 C   0  0  0  0  0  0  0  0  0
    0.9083    0.7612    0.0000 C   0  0  0  0  0  0  0  0  0
    0.1938    1.1737    0.0000 O   0  0  0  0  0  0  0  0  0
    2.9822    1.2756    0.0000 C   0  0  0  0  0  0  0  0  0
    3.7865    1.0920    0.0000 C   0  0  0  0  0  0  0  0  0
    4.1445    0.3487    0.0000 N   0  0  0  0  0  0  0  0  0
    3.7865   -0.3946    0.0000 C   0  0  0  0  0  0  0  0  0
    2.9822   -0.5782    0.0000 C   0  0  0  0  0  0  0  0  0
    4.9695    0.3487    0.0000 C   0  0  0  0  0  0  0  0  0
    2.7986    2.0799    0.0000 C   0  0  0  0  0  0  0  0  0
    2.0103    2.3230    0.0000 C   0  0  0  0  0  0  0  0  0
    1.8267    3.1274    0.0000 C   0  0  0  0  0  0  0  0  0
    2.4315    3.6885    0.0000 C   0  0  0  0  0  0  0  0  0
    3.2198    3.4453    0.0000 C   0  0  0  0  0  0  0  0  0
    3.4034    2.6410    0.0000 C   0  0  0  0  0  0  0  0  0
  1  2  1  0  0  0  0
  2  3  4  0  0  0  0
  2  7  4  0  0  0  0
  3  4  4  0  0  0  0
  4  5  4  0  0  0  0
  4 13  1  0  0  0  0
  5  6  4  0  0  0  0
  5  9  1  0  0  0  0
  6  7  4  0  0  0  0
  7  8  1  0  0  0  0
  9 10  1  0  0  0  0
  9 15  1  0  0  0  0
 10 11  1  0  0  0  0
 11 12  1  0  0  0  0
 11 14  1  0  0  0  0
 12 13  1  0  0  0  0
 15 16  4  0  0  0  0
 15 20  4  0  0  0  0
 16 17  4  0  0  0  0
 17 18  4  0  0  0  0
 18 19  4  0  0  0  0
 19 20  4  0  0  0  0
M  END
>  <Name_Molregno>
4778

>  <5-HT1A>
6.18

>  <5-HT2A>
7.88

>  <5-HT2C>
7.39

>  <5-HT3>
5

>  <DOPAMINE D1>
8.84

>  <DOPAMINE D2>
6.09

>  <DOPAMINE D3>
5.65

>  <DOPAMINE D4>
5.51

>  <DOPAMINE D5>
8.49

>  <HISTAMINE H1>
7

$$$$
6593
  Marvin  02231216192D 0   1.00000     0.00000     0

 26 30  0  0  1  0  0  0  0  0999 V2000
    6.3424    1.1120    0.0000 O   0  0  0  0  0  0  0  0  0
    5.8040    0.4869    0.0000 C   0  0  0  0  0  0  0  0  0
    6.0761   -0.2920    0.0000 C   0  0  0  0  0  0  0  0  0
    5.5377   -0.9170    0.0000 C   0  0  0  0  0  0  0  0  0
    4.7272   -0.7633    0.0000 C   0  0  0  0  0  0  0  0  0
    4.4550    0.0155    0.0000 C   0  0  0  0  0  0  0  0  0
    3.6445    0.1692    0.0000 C   0  0  0  0  0  0  0  0  0
    3.1061   -0.4559    0.0000 C   0  0  0  0  0  0  0  0  0
    3.3782   -1.2347    0.0000 N   0  0  0  0  0  0  0  0  0
    4.1888   -1.3884    0.0000 C   0  0  0  0  0  0  0  0  0
    2.8398   -1.8598    0.0000 C   0  0  0  0  0  0  0  0  0
    2.0292   -1.7061    0.0000 C   0  0  0  0  0  0  0  0  0
    1.7571   -0.9272    0.0000 C   0  0  0  0  0  0  0  0  0
    2.2955   -0.3021    0.0000 C   0  0  0  0  0  0  0  0  0
    1.8674    0.4031    0.0000 N   0  0  0  0  0  0  0  0  0
    1.0644    0.2138    0.0000 C   0  0  0  0  0  0  0  0  0
    0.9962   -0.6083    0.0000 C   0  0  0  0  0  0  0  0  0
    0.2501   -0.9604    0.0000 C   0  0  0  0  0  0  0  0  0
   -0.4278   -0.4903    0.0000 C   0  0  0  0  0  0  0  0  0
   -0.3597    0.3319    0.0000 C   0  0  0  0  0  0  0  0  0
    0.3864    0.6840    0.0000 C   0  0  0  0  0  0  0  0  0
    4.9934    0.6406    0.0000 C   0  0  0  0  0  0  0  0  0
    4.7213    1.4194    0.0000 C   0  0  0  0  0  0  0  0  0
    5.2597    2.0445    0.0000 O   0  0  0  0  0  0  0  0  0
    4.9875    2.8233    0.0000 C   0  0  0  0  0  0  0  0  0
    3.9107    1.5731    0.0000 O   0  0  0  0  0  0  0  0  0
  1  2  1  0  0  0  0
  2  3  1  0  0  0  0
  2 22  1  0  0  0  0
  3  4  1  0  0  0  0
  4  5  1  0  0  0  0
  5  6  1  0  0  0  0
  5 10  1  0  0  0  0
  6  7  1  0  0  0  0
  6 22  1  0  0  0  0
  7  8  1  0  0  0  0
  8  9  1  0  0  0  0
  8 14  1  0  0  0  0
  9 10  1  0  0  0  0
  9 11  1  0  0  0  0
 11 12  1  0  0  0  0
 12 13  1  0  0  0  0
 13 14  4  0  0  0  0
 13 17  4  0  0  0  0
 14 15  4  0  0  0  0
 15 16  4  0  0  0  0
 16 17  4  0  0  0  0
 16 21  4  0  0  0  0
 17 18  4  0  0  0  0
 18 19  4  0  0  0  0
 19 20  4  0  0  0  0
 20 21  4  0  0  0  0
 22 23  1  0  0  0  0
 23 24  1  0  0  0  0
 23 26  2  0  0  0  0
 24 25  1  0  0  0  0
M  STY  1   1 DAT
M  SAL   1  1  15
M  SDT   1 MRV_IMPLICIT_H                                        
M  SDD   1     0.0000    0.0000    DR    ALL  0       0  
M  SED   1 IMPL_H1
M  END
>  <Name_Molregno>
6593

>  <5-HT1A>
6.3

>  <5-HT1B>
7.45

>  <5-HT1D>
7.09

>  <5-HT1E>
5.75

>  <5-HT2A>
5.66

>  <5-HT2C>
5.49

>  <5-HT7>
5.55

>  <Alpha-1A>
6.32

>  <Alpha-1B>
6.42

>  <Alpha-2A>
8.74

>  <Alpha-2B>
8.53

>  <Alpha-2C>
9.21

>  <DOPAMINE D1>
5

>  <DOPAMINE D2>
6.48

>  <DOPAMINE D3>
5.5

>  <Serotonin transporter>
6

$$$$
6713
  Marvin  02231216192D 0   1.00000     0.00000     0

 31 34  0  0  0  0  0  0  0  0999 V2000
   -0.8130   -1.5379    0.0000 O   0  0  0  0  0  0  0  0  0
   -0.0986   -1.1254    0.0000 C   0  0  0  0  0  0  0  0  0
   -0.0986   -0.3004    0.0000 C   0  0  0  0  0  0  0  0  0
    0.6159   -1.5379    0.0000 C   0  0  0  0  0  0  0  0  0
   -0.8130   -2.3629    0.0000 C   0  0  0  0  0  0  0  0  0
   -0.0986   -2.7754    0.0000 C   0  0  0  0  0  0  0  0  0
   -0.0986   -3.6004    0.0000 C   0  0  0  0  0  0  0  0  0
   -0.8130   -4.0129    0.0000 C   0  0  0  0  0  0  0  0  0
   -1.5275   -3.6004    0.0000 C   0  0  0  0  0  0  0  0  0
   -1.5275   -2.7754    0.0000 C   0  0  0  0  0  0  0  0  0
   -2.2420   -2.3629    0.0000 N   0  0  0  0  0  0  0  0  0
   -2.9564   -2.7754    0.0000 C   0  0  0  0  0  0  0  0  0
   -3.6709   -2.3629    0.0000 C   0  0  0  0  0  0  0  0  0
   -3.6709   -1.5379    0.0000 N   0  0  0  0  0  0  0  0  0
   -2.9564   -1.1254    0.0000 C   0  0  0  0  0  0  0  0  0
   -2.2420   -1.5379    0.0000 C   0  0  0  0  0  0  0  0  0
   -4.3854   -1.1254    0.0000 C   0  0  0  0  0  0  0  0  0
   -4.3854   -0.3004    0.0000 C   0  0  0  0  0  0  0  0  0
   -5.0999    0.1121    0.0000 C   0  0  0  0  0  0  0  0  0
   -5.0999    0.9371    0.0000 C   0  0  0  0  0  0  0  0  0
   -4.3854    1.3496    0.0000 C   0  0  0  0  0  0  0  0  0
   -3.6709    0.9371    0.0000 C   0  0  0  0  0  0  0  0  0
   -3.6709    0.1121    0.0000 C   0  0  0  0  0  0  0  0  0
   -5.8143    1.3496    0.0000 C   0  0  0  0  0  0  0  0  0
   -6.5288    0.9371    0.0000 O   0  0  0  0  0  0  0  0  0
   -5.8143    2.1746    0.0000 N   0  0  0  0  0  0  0  0  0
   -6.5288    2.5871    0.0000 C   0  0  0  0  0  0  0  0  0
   -6.5288    3.4121    0.0000 C   0  0  0  0  0  0  0  0  0
   -5.8143    3.8246    0.0000 C   0  0  0  0  0  0  0  0  0
   -5.0999    3.4121    0.0000 C   0  0  0  0  0  0  0  0  0
   -5.0999    2.5871    0.0000 C   0  0  0  0  0  0  0  0  0
  1  2  1  0  0  0  0
  1  5  1  0  0  0  0
  2  3  1  0  0  0  0
  2  4  1  0  0  0  0
  5  6  4  0  0  0  0
  5 10  4  0  0  0  0
  6  7  4  0  0  0  0
  7  8  4  0  0  0  0
  8  9  4  0  0  0  0
  9 10  4  0  0  0  0
 10 11  1  0  0  0  0
 11 12  1  0  0  0  0
 11 16  1  0  0  0  0
 12 13  1  0  0  0  0
 13 14  1  0  0  0  0
 14 15  1  0  0  0  0
 14 17  1  0  0  0  0
 15 16  1  0  0  0  0
 17 18  1  0  0  0  0
 18 19  4  0  0  0  0
 18 23  4  0  0  0  0
 19 20  4  0  0  0  0
 20 21  4  0  0  0  0
 20 24  1  0  0  0  0
 21 22  4  0  0  0  0
 22 23  4  0  0  0  0
 24 25  2  0  0  0  0
 24 26  1  0  0  0  0
 26 27  1  0  0  0  0
 26 31  1  0  0  0  0
 27 28  1  0  0  0  0
 28 29  1  0  0  0  0
 29 30  1  0  0  0  0
 30 31  1  0  0  0  0
M  END
>  <Name_Molregno>
6713

>  <DOPAMINE D1>
5.3

$$$$
16396
  Marvin  02231216192D 0   1.00000     0.00000     0

 37 41  0  0  0  0  0  0  0  0999 V2000
    9.4469    5.2044    0.0000 O   0  0  0  0  0  0  0  0  0
    9.1920    4.4198    0.0000 N   0  0  0  0  0  0  0  0  0
    8.3670    4.4198    0.0000 C   0  0  0  0  0  0  0  0  0
    8.1121    5.2044    0.0000 N   0  0  0  0  0  0  0  0  0
    8.7795    5.6894    0.0000 C   0  0  0  0  0  0  0  0  0
    8.7795    6.5144    0.0000 C   0  0  0  0  0  0  0  0  0
    7.8821    3.7524    0.0000 C   0  0  0  0  0  0  0  0  0
    8.2176    2.9987    0.0000 C   0  0  0  0  0  0  0  0  0
    7.7327    2.3313    0.0000 C   0  0  0  0  0  0  0  0  0
    8.0683    1.5776    0.0000 C   0  0  0  0  0  0  0  0  0
    6.9122    2.4175    0.0000 C   0  0  0  0  0  0  0  0  0
    6.5767    3.1712    0.0000 C   0  0  0  0  0  0  0  0  0
    7.0616    3.8386    0.0000 C   0  0  0  0  0  0  0  0  0
    6.4273    1.7501    0.0000 C   0  0  0  0  0  0  0  0  0
    6.7629    0.9964    0.0000 C   0  0  0  0  0  0  0  0  0
    6.2779    0.3289    0.0000 C   0  0  0  0  0  0  0  0  0
    5.4575    0.4152    0.0000 C   0  0  0  0  0  0  0  0  0
    5.1219    1.1689    0.0000 C   0  0  0  0  0  0  0  0  0
    5.6068    1.8363    0.0000 C   0  0  0  0  0  0  0  0  0
    4.9725   -0.2523    0.0000 C   0  0  0  0  0  0  0  0  0
    4.1521   -0.1660    0.0000 O   0  0  0  0  0  0  0  0  0
    5.3081   -1.0059    0.0000 N   0  0  0  0  0  0  0  0  0
    4.8232   -1.6734    0.0000 C   0  0  0  0  0  0  0  0  0
    5.1587   -2.4270    0.0000 C   0  0  0  0  0  0  0  0  0
    4.6738   -3.0945    0.0000 C   0  0  0  0  0  0  0  0  0
    5.0094   -3.8482    0.0000 N   0  0  0  0  0  0  0  0  0
    5.8298   -3.9344    0.0000 C   0  0  0  0  0  0  0  0  0
    6.1654   -4.6881    0.0000 C   0  0  0  0  0  0  0  0  0
    5.6805   -5.3555    0.0000 N   0  0  0  0  0  0  0  0  0
    4.8600   -5.2693    0.0000 C   0  0  0  0  0  0  0  0  0
    4.5244   -4.5156    0.0000 C   0  0  0  0  0  0  0  0  0
    6.0160   -6.1092    0.0000 C   0  0  0  0  0  0  0  0  0
    3.8533   -3.0082    0.0000 C   0  0  0  0  0  0  0  0  0
    3.3684   -3.6757    0.0000 O   0  0  0  0  0  0  0  0  0
    2.5479   -3.5894    0.0000 C   0  0  0  0  0  0  0  0  0
    3.5178   -2.2546    0.0000 C   0  0  0  0  0  0  0  0  0
    4.0027   -1.5871    0.0000 C   0  0  0  0  0  0  0  0  0
  1  2  4  0  0  0  0
  1  5  4  0  0  0  0
  2  3  4  0  0  0  0
  3  4  4  0  0  0  0
  3  7  1  0  0  0  0
  4  5  4  0  0  0  0
  5  6  1  0  0  0  0
  7  8  4  0  0  0  0
  7 13  4  0  0  0  0
  8  9  4  0  0  0  0
  9 10  1  0  0  0  0
  9 11  4  0  0  0  0
 11 12  4  0  0  0  0
 11 14  1  0  0  0  0
 12 13  4  0  0  0  0
 14 15  4  0  0  0  0
 14 19  4  0  0  0  0
 15 16  4  0  0  0  0
 16 17  4  0  0  0  0
 17 18  4  0  0  0  0
 17 20  1  0  0  0  0
 18 19  4  0  0  0  0
 20 21  2  0  0  0  0
 20 22  1  0  0  0  0
 22 23  1  0  0  0  0
 23 24  4  0  0  0  0
 23 37  4  0  0  0  0
 24 25  4  0  0  0  0
 25 26  1  0  0  0  0
 25 33  4  0  0  0  0
 26 27  1  0  0  0  0
 26 31  1  0  0  0  0
 27 28  1  0  0  0  0
 28 29  1  0  0  0  0
 29 30  1  0  0  0  0
 29 32  1  0  0  0  0
 30 31  1  0  0  0  0
 33 34  1  0  0  0  0
 33 36  4  0  0  0  0
 34 35  1  0  0  0  0
 36 37  4  0  0  0  0
M  END
>  <Name_Molregno>
16396

>  <5-HT1A>
7.14

>  <5-HT1B>
9.05

>  <5-HT1D>
8.78

>  <5-HT1E>
5.4

>  <5-HT2A>
7.59

>  <5-HT2C>
6.99

>  <5-HT5>
5.2

>  <5-HT6>
5.27

>  <5-HT7>
5.4

>  <DOPAMINE D1>
5

>  <DOPAMINE D2>
5

>  <DOPAMINE D3>
5

>  <DOPAMINE D4>
5

>  <DOPAMINE D5>
5

>  <HISTAMINE H1>
5

>  <Muscarinic acetylcholine receptor M1>
5

>  <Muscarinic acetylcholine receptor M2>
5

>  <Muscarinic acetylcholine receptor M3>
5

>  <Muscarinic acetylcholine receptor M4>
5

>  <Muscarinic acetylcholine receptor M5>
5

$$$$
22470
  Marvin  02231216192D 0   1.00000     0.00000     0

 22 24  0  0  1  0  0  0  0  0999 V2000
    1.4966    1.5869    0.0000 O   0  0  0  0  0  0  0  0  0
    2.2110    1.1744    0.0000 C   0  0  0  0  0  0  0  0  0
    2.2110    0.3494    0.0000 C   0  0  0  0  0  0  0  0  0
    2.9255   -0.0631    0.0000 C   0  0  0  0  0  0  0  0  0
    2.9255   -0.8881    0.0000 C   0  0  0  0  0  0  0  0  0
    2.2110   -1.3006    0.0000 N   0  0  0  0  0  0  0  0  0
    1.4966   -0.8881    0.0000 C   0  0  0  0  0  0  0  0  0
    1.4966   -0.0631    0.0000 C   0  0  0  0  0  0  0  0  0
    2.2110   -2.1256    0.0000 C   0  0  0  0  0  0  0  0  0
    1.4966   -2.5381    0.0000 C   0  0  0  0  0  0  0  0  0
    1.4966   -3.3631    0.0000 C   0  0  0  0  0  0  0  0  0
    2.2110   -3.7756    0.0000 C   0  0  0  0  0  0  0  0  0
    2.2110   -4.6006    0.0000 C   0  0  0  0  0  0  0  0  0
    1.4966   -5.0131    0.0000 C   0  0  0  0  0  0  0  0  0
    0.7821   -4.6006    0.0000 C   0  0  0  0  0  0  0  0  0
    0.7821   -3.7756    0.0000 C   0  0  0  0  0  0  0  0  0
    2.9255    1.5869    0.0000 C   0  0  0  0  0  0  0  0  0
    2.9255    2.4119    0.0000 C   0  0  0  0  0  0  0  0  0
    3.6400    2.8244    0.0000 C   0  0  0  0  0  0  0  0  0
    4.3544    2.4119    0.0000 C   0  0  0  0  0  0  0  0  0
    4.3544    1.5869    0.0000 C   0  0  0  0  0  0  0  0  0
    3.6400    1.1744    0.0000 C   0  0  0  0  0  0  0  0  0
  1  2  1  0  0  0  0
  2  3  1  0  0  0  0
  2 17  1  0  0  0  0
  3  4  1  0  0  0  0
  3  8  1  0  0  0  0
  4  5  1  0  0  0  0
  5  6  1  0  0  0  0
  6  7  1  0  0  0  0
  6  9  1  0  0  0  0
  7  8  1  0  0  0  0
  9 10  1  0  0  0  0
 10 11  1  0  0  0  0
 11 12  4  0  0  0  0
 11 16  4  0  0  0  0
 12 13  4  0  0  0  0
 13 14  4  0  0  0  0
 14 15  4  0  0  0  0
 15 16  4  0  0  0  0
 17 18  4  0  0  0  0
 17 22  4  0  0  0  0
 18 19  4  0  0  0  0
 19 20  4  0  0  0  0
 20 21  4  0  0  0  0
 21 22  4  0  0  0  0
M  END
>  <Name_Molregno>
22470

>  <5-HT1A>
5.47

>  <5-HT2A>
8.13

>  <5-HT2C>
6.28

>  <5-HT6>
5.56

>  <Alpha-1A>
5.73

>  <Alpha-1B>
5.8

>  <Alpha-2A>
5.8

>  <Alpha-2C>
5.93

>  <DOPAMINE D1>
6.49

>  <DOPAMINE D4>
5.41

>  <DOPAMINE D5>
5.54

>  <Dopamine transporter>
5

>  <HISTAMINE H1>
5.79

>  <Norepinephrine transporter>
5

>  <Serotonin transporter>
5.59

$$$$
33870
  Marvin  02231216192D 0   1.00000     0.00000     0

 31 34  0  0  0  0  0  0  0  0999 V2000
   -7.8766   -2.2666    0.0000 O   0  0  0  0  0  0  0  0  0
   -7.8766   -3.0916    0.0000 C   0  0  0  0  0  0  0  0  0
   -8.5911   -1.8541    0.0000 C   0  0  0  0  0  0  0  0  0
   -9.3056   -2.2666    0.0000 C   0  0  0  0  0  0  0  0  0
  -10.0200   -1.8541    0.0000 C   0  0  0  0  0  0  0  0  0
  -10.0200   -1.0291    0.0000 C   0  0  0  0  0  0  0  0  0
   -9.3056   -0.6166    0.0000 C   0  0  0  0  0  0  0  0  0
   -8.5911   -1.0291    0.0000 C   0  0  0  0  0  0  0  0  0
   -7.8766   -0.6166    0.0000 N   0  0  0  0  0  0  0  0  0
   -7.8766    0.2084    0.0000 C   0  0  0  0  0  0  0  0  0
   -7.1621    0.6209    0.0000 C   0  0  0  0  0  0  0  0  0
   -6.4477    0.2084    0.0000 N   0  0  0  0  0  0  0  0  0
   -6.4477   -0.6166    0.0000 C   0  0  0  0  0  0  0  0  0
   -7.1621   -1.0291    0.0000 C   0  0  0  0  0  0  0  0  0
   -5.7332    0.6209    0.0000 C   0  0  0  0  0  0  0  0  0
   -5.0187    0.2084    0.0000 C   0  0  0  0  0  0  0  0  0
   -4.3043    0.6209    0.0000 C   0  0  0  0  0  0  0  0  0
   -3.5898    0.2084    0.0000 C   0  0  0  0  0  0  0  0  0
   -2.8753    0.6209    0.0000 N   0  0  0  0  0  0  0  0  0
   -2.1608    0.2084    0.0000 C   0  0  0  0  0  0  0  0  0
   -2.1608   -0.6166    0.0000 O   0  0  0  0  0  0  0  0  0
   -1.4464    0.6209    0.0000 C   0  0  0  0  0  0  0  0  0
   -0.7319    0.2084    0.0000 C   0  0  0  0  0  0  0  0  0
   -0.0174    0.6209    0.0000 C   0  0  0  0  0  0  0  0  0
   -0.0174    1.4459    0.0000 C   0  0  0  0  0  0  0  0  0
   -0.7319    1.8584    0.0000 C   0  0  0  0  0  0  0  0  0
   -1.4464    1.4459    0.0000 C   0  0  0  0  0  0  0  0  0
    0.6970    1.8584    0.0000 C   0  0  0  0  0  0  0  0  0
    1.4115    1.4459    0.0000 C   0  0  0  0  0  0  0  0  0
    1.4115    0.6209    0.0000 C   0  0  0  0  0  0  0  0  0
    0.6970    0.2084    0.0000 C   0  0  0  0  0  0  0  0  0
  1  2  1  0  0  0  0
  1  3  1  0  0  0  0
  3  4  4  0  0  0  0
  3  8  4  0  0  0  0
  4  5  4  0  0  0  0
  5  6  4  0  0  0  0
  6  7  4  0  0  0  0
  7  8  4  0  0  0  0
  8  9  1  0  0  0  0
  9 10  1  0  0  0  0
  9 14  1  0  0  0  0
 10 11  1  0  0  0  0
 11 12  1  0  0  0  0
 12 13  1  0  0  0  0
 12 15  1  0  0  0  0
 13 14  1  0  0  0  0
 15 16  1  0  0  0  0
 16 17  1  0  0  0  0
 17 18  1  0  0  0  0
 18 19  1  0  0  0  0
 19 20  1  0  0  0  0
 20 21  2  0  0  0  0
 20 22  1  0  0  0  0
 22 23  4  0  0  0  0
 22 27  4  0  0  0  0
 23 24  4  0  0  0  0
 24 25  4  0  0  0  0
 24 31  4  0  0  0  0
 25 26  4  0  0  0  0
 25 28  4  0  0  0  0
 26 27  4  0  0  0  0
 28 29  4  0  0  0  0
 29 30  4  0  0  0  0
 30 31  4  0  0  0  0
M  END
>  <Name_Molregno>
33870

>  <5-HT1A>
6.93

>  <Alpha-2A>
8.56

>  <DOPAMINE D1>
6.12

>  <DOPAMINE D2>
6.85

>  <DOPAMINE D3>
8.86

>  <DOPAMINE D4>
7.1

$$$$
35324
  Marvin  02231216192D 0   1.00000     0.00000     0

 18 19  0  0  1  0  0  0  0  0999 V2000
    0.9450   -1.8585    0.0000 O   0  0  0  0  0  0  0  0  0
    0.5325   -1.1440    0.0000 C   0  0  0  0  0  0  0  0  0
   -0.2925   -1.1440    0.0000 C   0  0  0  0  0  0  0  0  0
   -0.7050   -1.8585    0.0000 C   0  0  0  0  0  0  0  0  0
   -1.5300   -1.8585    0.0000 C   0  0  0  0  0  0  0  0  0
   -1.9425   -2.5729    0.0000 N   0  0  0  0  0  0  0  0  0
   -2.7675   -2.5729    0.0000 C   0  0  0  0  0  0  0  0  0
   -3.1800   -3.2874    0.0000 C   0  0  0  0  0  0  0  0  0
   -4.0050   -3.2874    0.0000 C   0  0  0  0  0  0  0  0  0
   -1.5300   -3.2874    0.0000 C   0  0  0  0  0  0  0  0  0
   -0.7050   -3.2874    0.0000 C   0  0  0  0  0  0  0  0  0
   -0.2925   -4.0019    0.0000 C   0  0  0  0  0  0  0  0  0
   -1.9425   -1.1440    0.0000 C   0  0  0  0  0  0  0  0  0
   -1.5300   -0.4295    0.0000 C   0  0  0  0  0  0  0  0  0
   -0.7050   -0.4295    0.0000 C   0  0  0  0  0  0  0  0  0
   -0.2925    0.2849    0.0000 C   0  0  0  0  0  0  0  0  0
    0.5325    0.2849    0.0000 C   0  0  0  0  0  0  0  0  0
    0.9450   -0.4295    0.0000 C   0  0  0  0  0  0  0  0  0
  1  2  1  0  0  0  0
  2  3  4  0  0  0  0
  2 18  4  0  0  0  0
  3  4  1  0  0  0  0
  3 15  4  0  0  0  0
  4  5  1  0  0  0  0
  5  6  1  0  0  0  0
  5 13  1  0  0  0  0
  6  7  1  0  0  0  0
  6 10  1  0  0  0  0
  7  8  1  0  0  0  0
  8  9  1  0  0  0  0
 10 11  1  0  0  0  0
 11 12  1  0  0  0  0
 13 14  1  0  0  0  0
 14 15  1  0  0  0  0
 15 16  4  0  0  0  0
 16 17  4  0  0  0  0
 17 18  4  0  0  0  0
M  END
>  <Name_Molregno>
35324

>  <5-HT1A>
8.41

>  <5-HT1B>
6.44

>  <5-HT1D>
6.48

>  <5-HT1E>
5.78

>  <5-HT2A>
5.34

>  <5-HT2C>
5.46

>  <5-HT5>
5.6

>  <5-HT6>
5

>  <5-HT7>
6.52

>  <Alpha-1A>
6.21

>  <Alpha-1B>
6

>  <DOPAMINE D1>
5

>  <DOPAMINE D2>
6.1

>  <DOPAMINE D3>
6.35

>  <DOPAMINE D4>
5.38

$$$$
38445
  Marvin  02231216192D 0   1.00000     0.00000     0

 29 32  0  0  0  0  0  0  0  0999 V2000
    9.5911   -1.5592    0.0000 Cl  0  0  0  0  0  0  0  0  0
    8.8766   -1.1467    0.0000 C   0  0  0  0  0  0  0  0  0
    8.1622   -1.5592    0.0000 C   0  0  0  0  0  0  0  0  0
    7.4477   -1.1467    0.0000 C   0  0  0  0  0  0  0  0  0
    7.4477   -0.3217    0.0000 C   0  0  0  0  0  0  0  0  0
    6.6631   -0.0667    0.0000 S   0  0  0  0  0  0  0  0  0
    6.1782   -0.7342    0.0000 C   0  0  0  0  0  0  0  0  0
    5.3532   -0.7342    0.0000 S   0  0  0  0  0  0  0  0  0
    5.3532    0.0908    0.0000 O   0  0  0  0  0  0  0  0  0
    5.3532   -1.5592    0.0000 O   0  0  0  0  0  0  0  0  0
    4.5282   -0.7342    0.0000 N   0  0  0  0  0  0  0  0  0
    4.1157   -0.0197    0.0000 C   0  0  0  0  0  0  0  0  0
    3.2907   -0.0197    0.0000 C   0  0  0  0  0  0  0  0  0
    2.8782    0.6948    0.0000 C   0  0  0  0  0  0  0  0  0
    2.0532    0.6948    0.0000 N   0  0  0  0  0  0  0  0  0
    1.6407   -0.0197    0.0000 C   0  0  0  0  0  0  0  0  0
    0.8157   -0.0197    0.0000 C   0  0  0  0  0  0  0  0  0
    0.4032    0.6948    0.0000 N   0  0  0  0  0  0  0  0  0
    0.8157    1.4092    0.0000 C   0  0  0  0  0  0  0  0  0
    1.6407    1.4092    0.0000 C   0  0  0  0  0  0  0  0  0
    3.2907    1.4092    0.0000 C   0  0  0  0  0  0  0  0  0
    2.8782    2.1237    0.0000 O   0  0  0  0  0  0  0  0  0
    3.2907    2.8382    0.0000 C   0  0  0  0  0  0  0  0  0
    4.1157    1.4092    0.0000 C   0  0  0  0  0  0  0  0  0
    4.5282    0.6948    0.0000 C   0  0  0  0  0  0  0  0  0
    6.6631   -1.4016    0.0000 C   0  0  0  0  0  0  0  0  0
    6.4081   -2.1862    0.0000 C   0  0  0  0  0  0  0  0  0
    8.1622    0.0908    0.0000 C   0  0  0  0  0  0  0  0  0
    8.8766   -0.3217    0.0000 C   0  0  0  0  0  0  0  0  0
  1  2  1  0  0  0  0
  2  3  4  0  0  0  0
  2 29  4  0  0  0  0
  3  4  4  0  0  0  0
  4  5  4  0  0  0  0
  4 26  4  0  0  0  0
  5  6  4  0  0  0  0
  5 28  4  0  0  0  0
  6  7  4  0  0  0  0
  7  8  1  0  0  0  0
  7 26  4  0  0  0  0
  8  9  2  0  0  0  0
  8 10  2  0  0  0  0
  8 11  1  0  0  0  0
 11 12  1  0  0  0  0
 12 13  4  0  0  0  0
 12 25  4  0  0  0  0
 13 14  4  0  0  0  0
 14 15  1  0  0  0  0
 14 21  4  0  0  0  0
 15 16  1  0  0  0  0
 15 20  1  0  0  0  0
 16 17  1  0  0  0  0
 17 18  1  0  0  0  0
 18 19  1  0  0  0  0
 19 20  1  0  0  0  0
 21 22  1  0  0  0  0
 21 24  4  0  0  0  0
 22 23  1  0  0  0  0
 24 25  4  0  0  0  0
 26 27  1  0  0  0  0
 28 29  4  0  0  0  0
M  END
>  <Name_Molregno>
38445

>  <5-HT1A>
6.47

>  <5-HT2A>
5.76

>  <5-HT2C>
6.28

>  <5-HT6>
8.87

>  <5-HT7>
6.59

>  <DOPAMINE D1>
6.92

>  <DOPAMINE D2>
6.34

>  <DOPAMINE D3>
5.88

>  <DOPAMINE D4>
6.89

$$$$
41198
  Marvin  02231216192D 0   1.00000     0.00000     0

 21 24  0  0  1  0  0  0  0  0999 V2000
   -0.6586   -2.1588    0.0000 O   0  0  0  0  0  0  0  0  0
   -0.6586   -1.3338    0.0000 C   0  0  0  0  0  0  0  0  0
   -1.3731   -0.9213    0.0000 C   0  0  0  0  0  0  0  0  0
   -1.3731   -0.0963    0.0000 C   0  0  0  0  0  0  0  0  0
   -2.0876    0.3162    0.0000 C   0  0  0  0  0  0  0  0  0
   -2.8020   -0.0963    0.0000 C   0  0  0  0  0  0  0  0  0
   -3.5165    0.3162    0.0000 N   0  0  0  0  0  0  0  0  0
   -4.2310   -0.0963    0.0000 C   0  0  0  0  0  0  0  0  0
   -4.2310   -0.9213    0.0000 C   0  0  0  0  0  0  0  0  0
   -3.5165   -1.3338    0.0000 C   0  0  0  0  0  0  0  0  0
   -2.8020   -0.9213    0.0000 C   0  0  0  0  0  0  0  0  0
   -2.0876   -1.3338    0.0000 C   0  0  0  0  0  0  0  0  0
   -2.0876   -2.1588    0.0000 C   0  0  0  0  0  0  0  0  0
   -2.8020   -2.5713    0.0000 C   0  0  0  0  0  0  0  0  0
   -3.5165   -2.1588    0.0000 C   0  0  0  0  0  0  0  0  0
   -3.5165    1.1412    0.0000 C   0  0  0  0  0  0  0  0  0
   -2.8020    1.5537    0.0000 C   0  0  0  0  0  0  0  0  0
   -2.8020    2.3787    0.0000 C   0  0  0  0  0  0  0  0  0
   -0.6586    0.3162    0.0000 C   0  0  0  0  0  0  0  0  0
    0.0558   -0.0963    0.0000 C   0  0  0  0  0  0  0  0  0
    0.0558   -0.9213    0.0000 C   0  0  0  0  0  0  0  0  0
  1  2  1  0  0  0  0
  2  3  4  0  0  0  0
  2 21  4  0  0  0  0
  3  4  4  0  0  0  0
  3 12  1  0  0  0  0
  4  5  1  0  0  0  0
  4 19  4  0  0  0  0
  5  6  1  0  0  0  0
  6  7  1  0  0  0  0
  6 11  1  0  0  0  0
  7  8  1  0  0  0  0
  7 16  1  0  0  0  0
  8  9  1  0  0  0  0
  9 10  1  0  0  0  0
 10 11  4  0  0  0  0
 10 15  4  0  0  0  0
 11 12  4  0  0  0  0
 12 13  4  0  0  0  0
 13 14  4  0  0  0  0
 14 15  4  0  0  0  0
 16 17  1  0  0  0  0
 17 18  1  0  0  0  0
 19 20  4  0  0  0  0
 20 21  4  0  0  0  0
M  END
>  <Name_Molregno>
41198

>  <5-HT2A>
6.94

>  <DOPAMINE D1>
7.35

>  <DOPAMINE D2>
6.45

$$$$
42179
  Marvin  02231216192D 0   1.00000     0.00000     0

 31 34  0  0  0  0  0  0  0  0999 V2000
    0.8929    1.6421    0.0000 O   0  0  0  0  0  0  0  0  0
    1.6074    2.0546    0.0000 C   0  0  0  0  0  0  0  0  0
    0.8929    0.8171    0.0000 C   0  0  0  0  0  0  0  0  0
    1.6074    0.4046    0.0000 C   0  0  0  0  0  0  0  0  0
    1.6074   -0.4204    0.0000 C   0  0  0  0  0  0  0  0  0
    0.8929   -0.8329    0.0000 C   0  0  0  0  0  0  0  0  0
    0.1785   -0.4204    0.0000 C   0  0  0  0  0  0  0  0  0
    0.1785    0.4046    0.0000 C   0  0  0  0  0  0  0  0  0
   -0.5360    0.8171    0.0000 N   0  0  0  0  0  0  0  0  0
   -1.2505    0.4046    0.0000 C   0  0  0  0  0  0  0  0  0
   -1.9649    0.8171    0.0000 C   0  0  0  0  0  0  0  0  0
   -1.9649    1.6421    0.0000 N   0  0  0  0  0  0  0  0  0
   -1.2505    2.0546    0.0000 C   0  0  0  0  0  0  0  0  0
   -0.5360    1.6421    0.0000 C   0  0  0  0  0  0  0  0  0
   -2.6794    2.0546    0.0000 C   0  0  0  0  0  0  0  0  0
   -3.3939    1.6421    0.0000 C   0  0  0  0  0  0  0  0  0
   -4.1083    2.0546    0.0000 N   0  0  0  0  0  0  0  0  0
   -4.8228    1.6421    0.0000 C   0  0  0  0  0  0  0  0  0
   -4.8228    0.8171    0.0000 O   0  0  0  0  0  0  0  0  0
   -5.5373    2.0546    0.0000 C   0  0  0  0  0  0  0  0  0
   -6.2518    1.6421    0.0000 C   0  0  0  0  0  0  0  0  0
   -6.9662    2.0546    0.0000 C   0  0  0  0  0  0  0  0  0
   -6.9662    2.8796    0.0000 C   0  0  0  0  0  0  0  0  0
   -6.2518    3.2921    0.0000 C   0  0  0  0  0  0  0  0  0
   -5.5373    2.8796    0.0000 C   0  0  0  0  0  0  0  0  0
   -4.1083    2.8796    0.0000 C   0  0  0  0  0  0  0  0  0
   -4.8228    3.2921    0.0000 N   0  0  0  0  0  0  0  0  0
   -4.8228    4.1171    0.0000 C   0  0  0  0  0  0  0  0  0
   -4.1083    4.5296    0.0000 C   0  0  0  0  0  0  0  0  0
   -3.3939    4.1171    0.0000 C   0  0  0  0  0  0  0  0  0
   -3.3939    3.2921    0.0000 C   0  0  0  0  0  0  0  0  0
  1  2  1  0  0  0  0
  1  3  1  0  0  0  0
  3  4  4  0  0  0  0
  3  8  4  0  0  0  0
  4  5  4  0  0  0  0
  5  6  4  0  0  0  0
  6  7  4  0  0  0  0
  7  8  4  0  0  0  0
  8  9  1  0  0  0  0
  9 10  1  0  0  0  0
  9 14  1  0  0  0  0
 10 11  1  0  0  0  0
 11 12  1  0  0  0  0
 12 13  1  0  0  0  0
 12 15  1  0  0  0  0
 13 14  1  0  0  0  0
 15 16  1  0  0  0  0
 16 17  1  0  0  0  0
 17 18  1  0  0  0  0
 17 26  1  0  0  0  0
 18 19  2  0  0  0  0
 18 20  1  0  0  0  0
 20 21  1  0  0  0  0
 20 25  1  0  0  0  0
 21 22  1  0  0  0  0
 22 23  1  0  0  0  0
 23 24  1  0  0  0  0
 24 25  1  0  0  0  0
 26 27  4  0  0  0  0
 26 31  4  0  0  0  0
 27 28  4  0  0  0  0
 28 29  4  0  0  0  0
 29 30  4  0  0  0  0
 30 31  4  0  0  0  0
M  END
>  <Name_Molregno>
42179

>  <5-HT1A>
9.12

>  <5-HT1B>
5

>  <5-HT1D>
5

>  <5-HT1E>
5

>  <5-HT2A>
5.2

>  <5-HT5>
5

>  <5-HT6>
5

>  <5-HT7>
5

>  <Alpha-1A>
7.71

>  <Alpha-1B>
6.33

>  <Alpha-2A>
5

>  <Alpha-2B>
5

>  <Alpha-2C>
5.59

>  <DOPAMINE D1>
5

>  <DOPAMINE D2>
6.57

>  <DOPAMINE D3>
7.17

>  <DOPAMINE D4>
7.79

>  <DOPAMINE D5>
5

>  <HISTAMINE H1>
5

>  <HISTAMINE H2>
5

>  <HISTAMINE H4>
5

>  <Muscarinic acetylcholine receptor M2>
5

>  <Muscarinic acetylcholine receptor M5>
5

$$$$
66613
  Marvin  02231216192D 0   1.00000     0.00000     0

 14 15  0  0  1  0  0  0  0  0999 V2000
   -3.5937   -0.7341    0.0000 O   0  0  0  0  0  0  0  0  0
   -2.8091   -0.9890    0.0000 C   0  0  0  0  0  0  0  0  0
   -2.0946   -0.5765    0.0000 C   0  0  0  0  0  0  0  0  0
   -1.3801   -0.9890    0.0000 C   0  0  0  0  0  0  0  0  0
   -1.3801   -1.8140    0.0000 C   0  0  0  0  0  0  0  0  0
   -2.0946   -2.2265    0.0000 C   0  0  0  0  0  0  0  0  0
   -2.8091   -1.8140    0.0000 C   0  0  0  0  0  0  0  0  0
   -3.5937   -2.0690    0.0000 O   0  0  0  0  0  0  0  0  0
   -4.0786   -1.4015    0.0000 C   0  0  0  0  0  0  0  0  0
   -0.6657   -0.5765    0.0000 C   0  0  0  0  0  0  0  0  0
   -0.6657    0.2485    0.0000 C   0  0  0  0  0  0  0  0  0
    0.0488    0.6610    0.0000 N   0  0  0  0  0  0  0  0  0
    0.0488    1.4860    0.0000 C   0  0  0  0  0  0  0  0  0
   -1.3801    0.6610    0.0000 C   0  0  0  0  0  0  0  0  0
  1  2  1  0  0  0  0
  1  9  1  0  0  0  0
  2  3  4  0  0  0  0
  2  7  4  0  0  0  0
  3  4  4  0  0  0  0
  4  5  4  0  0  0  0
  4 10  1  0  0  0  0
  5  6  4  0  0  0  0
  6  7  4  0  0  0  0
  7  8  1  0  0  0  0
  8  9  1  0  0  0  0
 10 11  1  0  0  0  0
 11 12  1  0  0  0  0
 11 14  1  0  0  0  0
 12 13  1  0  0  0  0
M  END
>  <Name_Molregno>
66613

>  <5-HT1A>
5

>  <5-HT1B>
5

>  <5-HT1D>
5

>  <5-HT1E>
5

>  <5-HT2A>
5

>  <5-HT3>
5

>  <5-HT5>
5

>  <5-HT6>
5

>  <5-HT7>
5

>  <Alpha-1A>
5

>  <Alpha-1B>
5

>  <Alpha-2A>
5.6

>  <Alpha-2B>
5.75

>  <Alpha-2C>
5.95

>  <Beta-1>
5

>  <Beta-2>
5

>  <DOPAMINE D1>
5

>  <DOPAMINE D2>
5

>  <DOPAMINE D3>
5

>  <DOPAMINE D4>
5

>  <DOPAMINE D5>
5

>  <Dopamine transporter>
5

>  <HISTAMINE H1>
5.67

>  <HISTAMINE H2>
5

>  <Muscarinic acetylcholine receptor M1>
5

>  <Muscarinic acetylcholine receptor M2>
5

>  <Muscarinic acetylcholine receptor M3>
5.73

>  <Muscarinic acetylcholine receptor M4>
5.08

>  <Muscarinic acetylcholine receptor M5>
5.2

>  <Norepinephrine transporter>
5

>  <Serotonin transporter>
7.24

$$$$
82738
  Marvin  02231216192D 0   1.00000     0.00000     0

 23 26  0  0  1  0  0  0  0  0999 V2000
    0.0943   -0.2888    0.0000 O   0  0  0  0  0  0  0  0  0
   -0.7127   -0.4603    0.0000 C   0  0  0  0  0  0  0  0  0
   -0.9676   -1.2450    0.0000 C   0  0  0  0  0  0  0  0  0
   -1.7746   -1.4165    0.0000 O   0  0  0  0  0  0  0  0  0
   -0.4156   -1.8581    0.0000 N   0  0  0  0  0  0  0  0  0
   -0.6705   -2.6427    0.0000 C   0  0  0  0  0  0  0  0  0
   -0.1700   -3.3633    0.0000 C   0  0  0  0  0  0  0  0  0
   -0.3533   -4.1522    0.0000 C   0  0  0  0  0  0  0  0  0
   -1.0724   -4.4494    0.0000 C   0  0  0  0  0  0  0  0  0
   -0.8767   -3.6479    0.0000 N   0  0  0  0  0  0  0  0  0
   -1.3910   -2.8938    0.0000 C   0  0  0  0  0  0  0  0  0
    0.1693   -3.5844    0.0000 C   0  0  0  0  0  0  0  0  0
    0.7165   -3.2272    0.0000 C   0  0  0  0  0  0  0  0  0
   -1.2647    0.1528    0.0000 C   0  0  0  0  0  0  0  0  0
   -1.0932    0.9597    0.0000 C   0  0  0  0  0  0  0  0  0
   -1.8077    1.3722    0.0000 C   0  0  0  0  0  0  0  0  0
   -2.4207    0.8202    0.0000 N   0  0  0  0  0  0  0  0  0
   -2.0852    0.0665    0.0000 C   0  0  0  0  0  0  0  0  0
   -3.2277    0.9917    0.0000 C   0  0  0  0  0  0  0  0  0
   -1.8077    2.1972    0.0000 C   0  0  0  0  0  0  0  0  0
   -1.0932    2.6097    0.0000 C   0  0  0  0  0  0  0  0  0
   -0.3787    2.1972    0.0000 C   0  0  0  0  0  0  0  0  0
   -0.3787    1.3722    0.0000 C   0  0  0  0  0  0  0  0  0
  1  2  2  0  0  0  0
  2  3  1  0  0  0  0
  2 14  1  0  0  0  0
  3  4  2  0  0  0  0
  3  5  1  0  0  0  0
  5  6  1  0  0  0  0
  6  7  1  0  0  0  0
  6 11  1  0  0  0  0
  7  8  1  0  0  0  0
  7 13  1  0  0  0  0
  8  9  1  0  0  0  0
  9 10  1  0  0  0  0
 10 11  1  0  0  0  0
 10 12  1  0  0  0  0
 12 13  1  0  0  0  0
 14 15  4  0  0  0  0
 14 18  4  0  0  0  0
 15 16  4  0  0  0  0
 15 23  4  0  0  0  0
 16 17  4  0  0  0  0
 16 20  4  0  0  0  0
 17 18  4  0  0  0  0
 17 19  1  0  0  0  0
 20 21  4  0  0  0  0
 21 22  4  0  0  0  0
 22 23  4  0  0  0  0
M  END
>  <Name_Molregno>
82738

>  <5-HT1D>
4.2

>  <5-HT2A>
4.75

>  <5-HT2C>
4.85

>  <Alpha-1B>
4.9

>  <Alpha-2A>
4.8

>  <Alpha-2B>
5.05

>  <DOPAMINE D1>
4

>  <DOPAMINE D2>
4

>  <Muscarinic acetylcholine receptor M1>
4.8

>  <Muscarinic acetylcholine receptor M2>
4.3

>  <Muscarinic acetylcholine receptor M3>
4.4

>  <Muscarinic acetylcholine receptor M4>
4.6

$$$$
88815
  Marvin  02231216192D 0   1.00000     0.00000     0

 14 15  0  0  1  0  0  0  0  0999 V2000
   -3.2072   -0.1654    0.0000 S   0  0  0  0  0  0  0  0  0
   -2.4226   -0.4204    0.0000 C   0  0  0  0  0  0  0  0  0
   -1.7081   -0.0079    0.0000 C   0  0  0  0  0  0  0  0  0
   -0.9937   -0.4204    0.0000 C   0  0  0  0  0  0  0  0  0
   -0.2792   -0.0079    0.0000 N   0  0  0  0  0  0  0  0  0
    0.4353   -0.4204    0.0000 C   0  0  0  0  0  0  0  0  0
    1.1498   -0.0079    0.0000 C   0  0  0  0  0  0  0  0  0
    1.8642   -0.4204    0.0000 C   0  0  0  0  0  0  0  0  0
   -0.9937   -1.2454    0.0000 C   0  0  0  0  0  0  0  0  0
   -1.7081   -1.6579    0.0000 C   0  0  0  0  0  0  0  0  0
   -2.4226   -1.2454    0.0000 C   0  0  0  0  0  0  0  0  0
   -3.2072   -1.5003    0.0000 N   0  0  0  0  0  0  0  0  0
   -3.6921   -0.8329    0.0000 C   0  0  0  0  0  0  0  0  0
   -4.5171   -0.8329    0.0000 N   0  0  0  0  0  0  0  0  0
  1  2  4  0  0  0  0
  1 13  4  0  0  0  0
  2  3  1  0  0  0  0
  2 11  4  0  0  0  0
  3  4  1  0  0  0  0
  4  5  1  0  0  0  0
  4  9  1  0  0  0  0
  5  6  1  0  0  0  0
  6  7  1  0  0  0  0
  7  8  1  0  0  0  0
  9 10  1  0  0  0  0
 10 11  1  0  0  0  0
 11 12  4  0  0  0  0
 12 13  4  0  0  0  0
 13 14  1  0  0  0  0
M  END
>  <Name_Molregno>
88815

>  <5-HT1A>
5.67

>  <5-HT1B>
5.26

>  <5-HT1D>
5.39

>  <5-HT1E>
5

>  <5-HT2A>
5

>  <5-HT2C>
5

>  <5-HT3>
5

>  <5-HT5>
5

>  <5-HT6>
5

>  <5-HT7>
5.93

>  <Alpha-1A>
5

>  <Alpha-1B>
5

>  <Alpha-2A>
6.44

>  <Alpha-2B>
6.68

>  <Alpha-2C>
6.14

>  <Beta-1>
5

>  <Beta-2>
5

>  <DOPAMINE D1>
5

>  <DOPAMINE D2>
6.55

>  <DOPAMINE D3>
8.51

>  <DOPAMINE D4>
7.4

>  <DOPAMINE D5>
5

>  <Dopamine transporter>
5

>  <HISTAMINE H1>
5

>  <HISTAMINE H2>
5.57

>  <HISTAMINE H4>
5

>  <Muscarinic acetylcholine receptor M1>
5

>  <Muscarinic acetylcholine receptor M2>
5

>  <Muscarinic acetylcholine receptor M3>
5

>  <Muscarinic acetylcholine receptor M4>
5

>  <Muscarinic acetylcholine receptor M5>
5

>  <Norepinephrine transporter>
5

>  <Serotonin transporter>
5

$$$$
100867
  Marvin  02231216192D 0   1.00000     0.00000     0

 22 25  0  0  0  0  0  0  0  0999 V2000
    0.1405   -0.4939    0.0000 N   0  0  0  0  0  0  0  0  0
    0.3912   -1.2799    0.0000 C   0  0  0  0  0  0  0  0  0
    1.1431   -1.6195    0.0000 C   0  0  0  0  0  0  0  0  0
    1.8131   -1.1381    0.0000 C   0  0  0  0  0  0  0  0  0
    2.5650   -1.4777    0.0000 C   0  0  0  0  0  0  0  0  0
    2.6469   -2.2986    0.0000 C   0  0  0  0  0  0  0  0  0
    1.9769   -2.7800    0.0000 C   0  0  0  0  0  0  0  0  0
    1.2250   -2.4404    0.0000 N   0  0  0  0  0  0  0  0  0
    0.5550   -2.9218    0.0000 C   0  0  0  0  0  0  0  0  0
   -0.1969   -2.5822    0.0000 C   0  0  0  0  0  0  0  0  0
   -0.2788   -1.7613    0.0000 C   0  0  0  0  0  0  0  0  0
   -0.9436   -1.2728    0.0000 C   0  0  0  0  0  0  0  0  0
   -0.6845   -0.4895    0.0000 C   0  0  0  0  0  0  0  0  0
   -1.2333    0.1265    0.0000 C   0  0  0  0  0  0  0  0  0
   -2.0411   -0.0407    0.0000 C   0  0  0  0  0  0  0  0  0
   -2.3002   -0.8240    0.0000 C   0  0  0  0  0  0  0  0  0
   -1.7515   -1.4400    0.0000 C   0  0  0  0  0  0  0  0  0
    0.6762   -1.8244    0.0000 C   0  0  0  0  0  0  0  0  0
    3.2350   -0.9963    0.0000 C   0  0  0  0  0  0  0  0  0
    3.1532   -0.1754    0.0000 C   0  0  0  0  0  0  0  0  0
    2.4013    0.1642    0.0000 C   0  0  0  0  0  0  0  0  0
    1.7313   -0.3172    0.0000 C   0  0  0  0  0  0  0  0  0
  1  2  4  0  0  0  0
  1 13  4  0  0  0  0
  2  3  1  0  0  0  0
  2 11  4  0  0  0  0
  3  4  1  0  0  0  0
  4  5  4  0  0  0  0
  4 22  4  0  0  0  0
  5  6  1  0  0  0  0
  5 19  4  0  0  0  0
  6  7  1  0  0  0  0
  7  8  1  0  0  0  0
  8  9  1  0  0  0  0
  8 18  1  0  0  0  0
  9 10  1  0  0  0  0
 10 11  1  0  0  0  0
 11 12  4  0  0  0  0
 12 13  4  0  0  0  0
 12 17  4  0  0  0  0
 13 14  4  0  0  0  0
 14 15  4  0  0  0  0
 15 16  4  0  0  0  0
 16 17  4  0  0  0  0
 19 20  4  0  0  0  0
 20 21  4  0  0  0  0
 21 22  4  0  0  0  0
M  STY  1   1 DAT
M  SAL   1  1   1
M  SDT   1 MRV_IMPLICIT_H                                        
M  SDD   1     0.0000    0.0000    DR    ALL  0       0  
M  SED   1 IMPL_H1
M  END
>  <Name_Molregno>
100867

>  <DOPAMINE D1>
8.22

>  <DOPAMINE D2>
7.48

>  <DOPAMINE D3>
7.49

>  <DOPAMINE D4>
6.97

>  <DOPAMINE D5>
8.03

$$$$
120674
  Marvin  02231216192D 0   1.00000     0.00000     0

 27 29  0  0  1  0  0  0  0  0999 V2000
    4.4208    6.3587    0.0000 F   0  0  0  0  0  0  0  0  0
    4.4208    5.5337    0.0000 C   0  0  0  0  0  0  0  0  0
    5.1353    5.1212    0.0000 C   0  0  0  0  0  0  0  0  0
    5.1353    4.2962    0.0000 C   0  0  0  0  0  0  0  0  0
    4.4208    3.8837    0.0000 C   0  0  0  0  0  0  0  0  0
    3.7063    4.2962    0.0000 C   0  0  0  0  0  0  0  0  0
    3.7063    5.1212    0.0000 C   0  0  0  0  0  0  0  0  0
    4.4208    3.0587    0.0000 C   0  0  0  0  0  0  0  0  0
    5.1353    2.6462    0.0000 C   0  0  0  0  0  0  0  0  0
    5.1353    1.8212    0.0000 N   0  0  0  0  0  0  0  0  0
    5.8497    1.4087    0.0000 C   0  0  0  0  0  0  0  0  0
    5.8497    0.5837    0.0000 C   0  0  0  0  0  0  0  0  0
    5.1353    0.1712    0.0000 C   0  0  0  0  0  0  0  0  0
    4.4208    0.5837    0.0000 C   0  0  0  0  0  0  0  0  0
    4.4208    1.4087    0.0000 C   0  0  0  0  0  0  0  0  0
    5.1353   -0.6538    0.0000 C   0  0  0  0  0  0  0  0  0
    4.4208   -1.0663    0.0000 O   0  0  0  0  0  0  0  0  0
    5.8497   -1.0663    0.0000 C   0  0  0  0  0  0  0  0  0
    6.5642   -0.6538    0.0000 C   0  0  0  0  0  0  0  0  0
    7.2787   -1.0663    0.0000 C   0  0  0  0  0  0  0  0  0
    7.2787   -1.8913    0.0000 C   0  0  0  0  0  0  0  0  0
    6.5642   -2.3038    0.0000 C   0  0  0  0  0  0  0  0  0
    6.5642   -3.1288    0.0000 O   0  0  0  0  0  0  0  0  0
    7.2787   -3.5413    0.0000 C   0  0  0  0  0  0  0  0  0
    5.8497   -1.8913    0.0000 C   0  0  0  0  0  0  0  0  0
    5.1353   -2.3038    0.0000 O   0  0  0  0  0  0  0  0  0
    5.1353   -3.1288    0.0000 C   0  0  0  0  0  0  0  0  0
  1  2  1  0  0  0  0
  2  3  4  0  0  0  0
  2  7  4  0  0  0  0
  3  4  4  0  0  0  0
  4  5  4  0  0  0  0
  5  6  4  0  0  0  0
  5  8  1  0  0  0  0
  6  7  4  0  0  0  0
  8  9  1  0  0  0  0
  9 10  1  0  0  0  0
 10 11  1  0  0  0  0
 10 15  1  0  0  0  0
 11 12  1  0  0  0  0
 12 13  1  0  0  0  0
 13 14  1  0  0  0  0
 13 16  1  0  0  0  0
 14 15  1  0  0  0  0
 16 17  1  0  0  0  0
 16 18  1  0  0  0  0
 18 19  4  0  0  0  0
 18 25  4  0  0  0  0
 19 20  4  0  0  0  0
 20 21  4  0  0  0  0
 21 22  4  0  0  0  0
 22 23  1  0  0  0  0
 22 25  4  0  0  0  0
 23 24  1  0  0  0  0
 25 26  1  0  0  0  0
 26 27  1  0  0  0  0
M  END
>  <Name_Molregno>
120674

>  <5-HT1A>
5

>  <5-HT1E>
5

>  <5-HT2A>
9.16

>  <5-HT2C>
7.37

>  <5-HT3>
5

>  <5-HT5>
5

>  <5-HT6>
5.46

>  <Alpha-1A>
6.41

>  <Alpha-1B>
6.37

>  <Alpha-2A>
5.72

>  <Alpha-2B>
6.57

>  <Alpha-2C>
5.84

>  <Beta-1>
5

>  <Beta-2>
5

>  <DOPAMINE D1>
5.67

>  <DOPAMINE D2>
5.23

>  <DOPAMINE D4>
5.42

>  <DOPAMINE D5>
5

>  <Dopamine transporter>
5

>  <HISTAMINE H1>
7.18

>  <HISTAMINE H4>
5

>  <Muscarinic acetylcholine receptor M1>
5

>  <Muscarinic acetylcholine receptor M2>
5

>  <Muscarinic acetylcholine receptor M3>
5

>  <Muscarinic acetylcholine receptor M4>
5

>  <Muscarinic acetylcholine receptor M5>
5

>  <Norepinephrine transporter>
5

>  <Serotonin transporter>
5

$$$$
164829
  Marvin  02231216192D 0   1.00000     0.00000     0

 20 23  0  0  1  0  0  0  0  0999 V2000
    0.7858    0.8924    0.0000 O   0  0  0  0  0  0  0  0  0
    0.7858    0.0674    0.0000 C   0  0  0  0  0  0  0  0  0
    1.5002   -0.3451    0.0000 C   0  0  0  0  0  0  0  0  0
    1.5002   -1.1701    0.0000 C   0  0  0  0  0  0  0  0  0
    2.2147   -1.5826    0.0000 C   0  0  0  0  0  0  0  0  0
    2.2147   -2.4076    0.0000 C   0  0  0  0  0  0  0  0  0
    2.9292   -2.8201    0.0000 N   0  0  0  0  0  0  0  0  0
    3.6436   -2.4076    0.0000 C   0  0  0  0  0  0  0  0  0
    3.6436   -1.5826    0.0000 C   0  0  0  0  0  0  0  0  0
    2.9292   -1.1701    0.0000 C   0  0  0  0  0  0  0  0  0
    2.9292   -0.3451    0.0000 C   0  0  0  0  0  0  0  0  0
    3.6436    0.0674    0.0000 C   0  0  0  0  0  0  0  0  0
    4.3581   -0.3451    0.0000 C   0  0  0  0  0  0  0  0  0
    4.3581   -1.1701    0.0000 C   0  0  0  0  0  0  0  0  0
    1.5002   -2.8201    0.0000 C   0  0  0  0  0  0  0  0  0
    0.7858   -2.4076    0.0000 C   0  0  0  0  0  0  0  0  0
    0.7858   -1.5826    0.0000 C   0  0  0  0  0  0  0  0  0
    0.0713   -1.1701    0.0000 C   0  0  0  0  0  0  0  0  0
    0.0713   -0.3451    0.0000 C   0  0  0  0  0  0  0  0  0
   -0.6432    0.0674    0.0000 O   0  0  0  0  0  0  0  0  0
  1  2  1  0  0  0  0
  2  3  4  0  0  0  0
  2 19  4  0  0  0  0
  3  4  4  0  0  0  0
  4  5  1  0  0  0  0
  4 17  4  0  0  0  0
  5  6  1  0  0  0  0
  5 10  1  0  0  0  0
  6  7  1  0  0  0  0
  6 15  1  0  0  0  0
  7  8  1  0  0  0  0
  8  9  1  0  0  0  0
  9 10  4  0  0  0  0
  9 14  4  0  0  0  0
 10 11  4  0  0  0  0
 11 12  4  0  0  0  0
 12 13  4  0  0  0  0
 13 14  4  0  0  0  0
 15 16  1  0  0  0  0
 16 17  1  0  0  0  0
 17 18  4  0  0  0  0
 18 19  4  0  0  0  0
 19 20  1  0  0  0  0
M  END
>  <Name_Molregno>
164829

>  <DOPAMINE D1>
7.46

>  <DOPAMINE D2>
5.66

$$$$
178068
  Marvin  02231216192D 0   1.00000     0.00000     0

 32 35  0  0  0  0  0  0  0  0999 V2000
    3.7835    3.5848    0.0000 O   0  0  0  0  0  0  0  0  0
    3.0690    3.9973    0.0000 C   0  0  0  0  0  0  0  0  0
    3.7835    2.7598    0.0000 C   0  0  0  0  0  0  0  0  0
    4.4980    2.3473    0.0000 C   0  0  0  0  0  0  0  0  0
    4.4980    1.5223    0.0000 C   0  0  0  0  0  0  0  0  0
    3.7835    1.1098    0.0000 C   0  0  0  0  0  0  0  0  0
    3.7835    0.2848    0.0000 N   0  0  0  0  0  0  0  0  0
    4.4980   -0.1277    0.0000 C   0  0  0  0  0  0  0  0  0
    5.2124    0.2848    0.0000 O   0  0  0  0  0  0  0  0  0
    4.4980   -0.9527    0.0000 N   0  0  0  0  0  0  0  0  0
    5.2124   -1.3652    0.0000 C   0  0  0  0  0  0  0  0  0
    5.2124   -2.1902    0.0000 C   0  0  0  0  0  0  0  0  0
    4.4980   -2.6027    0.0000 N   0  0  0  0  0  0  0  0  0
    3.7835   -2.1902    0.0000 C   0  0  0  0  0  0  0  0  0
    3.7835   -1.3652    0.0000 C   0  0  0  0  0  0  0  0  0
    4.4980   -3.4277    0.0000 C   0  0  0  0  0  0  0  0  0
    5.2124   -3.8402    0.0000 C   0  0  0  0  0  0  0  0  0
    5.2124   -4.6652    0.0000 C   0  0  0  0  0  0  0  0  0
    4.4980   -5.0777    0.0000 C   0  0  0  0  0  0  0  0  0
    3.7835   -4.6652    0.0000 C   0  0  0  0  0  0  0  0  0
    3.7835   -3.8402    0.0000 C   0  0  0  0  0  0  0  0  0
    3.0690   -3.4277    0.0000 O   0  0  0  0  0  0  0  0  0
    2.3546   -3.8402    0.0000 C   0  0  0  0  0  0  0  0  0
    3.0690    1.5223    0.0000 C   0  0  0  0  0  0  0  0  0
    3.0690    2.3473    0.0000 C   0  0  0  0  0  0  0  0  0
    2.3546    2.7598    0.0000 N   0  0  0  0  0  0  0  0  0
    1.6401    2.3473    0.0000 C   0  0  0  0  0  0  0  0  0
    0.9256    2.7598    0.0000 C   0  0  0  0  0  0  0  0  0
    0.9256    3.5848    0.0000 N   0  0  0  0  0  0  0  0  0
    1.6401    3.9973    0.0000 C   0  0  0  0  0  0  0  0  0
    2.3546    3.5848    0.0000 C   0  0  0  0  0  0  0  0  0
    0.2111    3.9973    0.0000 C   0  0  0  0  0  0  0  0  0
  1  2  1  0  0  0  0
  1  3  1  0  0  0  0
  3  4  4  0  0  0  0
  3 25  4  0  0  0  0
  4  5  4  0  0  0  0
  5  6  4  0  0  0  0
  6  7  1  0  0  0  0
  6 24  4  0  0  0  0
  7  8  1  0  0  0  0
  8  9  2  0  0  0  0
  8 10  1  0  0  0  0
 10 11  1  0  0  0  0
 10 15  1  0  0  0  0
 11 12  1  0  0  0  0
 12 13  1  0  0  0  0
 13 14  1  0  0  0  0
 13 16  1  0  0  0  0
 14 15  1  0  0  0  0
 16 17  4  0  0  0  0
 16 21  4  0  0  0  0
 17 18  4  0  0  0  0
 18 19  4  0  0  0  0
 19 20  4  0  0  0  0
 20 21  4  0  0  0  0
 21 22  1  0  0  0  0
 22 23  1  0  0  0  0
 24 25  4  0  0  0  0
 25 26  1  0  0  0  0
 26 27  1  0  0  0  0
 26 31  1  0  0  0  0
 27 28  1  0  0  0  0
 28 29  1  0  0  0  0
 29 30  1  0  0  0  0
 29 32  1  0  0  0  0
 30 31  1  0  0  0  0
M  END
>  <Name_Molregno>
178068

>  <5-HT1A>
6.17

>  <5-HT1B>
8.44

>  <5-HT1D>
7.02

>  <5-HT2A>
5.17

>  <5-HT2C>
5.71

>  <5-HT6>
5.62

>  <5-HT7>
5.85

>  <DOPAMINE D1>
5

>  <DOPAMINE D2>
5

>  <DOPAMINE D3>
5

>  <DOPAMINE D4>
5

>  <DOPAMINE D5>
5

>  <HISTAMINE H1>
5

>  <Muscarinic acetylcholine receptor M1>
5

>  <Muscarinic acetylcholine receptor M2>
5

>  <Muscarinic acetylcholine receptor M3>
5

>  <Muscarinic acetylcholine receptor M4>
5

>  <Muscarinic acetylcholine receptor M5>
5

$$$$
199111
  Marvin  02231216192D 0   1.00000     0.00000     0

 14 15  0  0  1  0  0  0  0  0999 V2000
   -0.1663    0.8600    0.0000 N   0  0  0  0  0  0  0  0  0
    0.5482    0.4475    0.0000 C   0  0  0  0  0  0  0  0  0
    1.2627    0.8600    0.0000 C   0  0  0  0  0  0  0  0  0
    1.2627    1.6850    0.0000 C   0  0  0  0  0  0  0  0  0
    1.9771    2.0975    0.0000 C   0  0  0  0  0  0  0  0  0
    2.6916    1.6850    0.0000 C   0  0  0  0  0  0  0  0  0
    2.6916    0.8600    0.0000 C   0  0  0  0  0  0  0  0  0
    1.9771    0.4475    0.0000 C   0  0  0  0  0  0  0  0  0
    1.9771   -0.3775    0.0000 N   0  0  0  0  0  0  0  0  0
    2.6916   -0.7900    0.0000 C   0  0  0  0  0  0  0  0  0
    2.6916   -1.6150    0.0000 C   0  0  0  0  0  0  0  0  0
    1.2627   -0.7900    0.0000 C   0  0  0  0  0  0  0  0  0
    0.5482    2.0975    0.0000 C   0  0  0  0  0  0  0  0  0
   -0.1663    1.6850    0.0000 C   0  0  0  0  0  0  0  0  0
  1  2  4  0  0  0  0
  1 14  4  0  0  0  0
  2  3  4  0  0  0  0
  3  4  4  0  0  0  0
  3  8  1  0  0  0  0
  4  5  1  0  0  0  0
  4 13  4  0  0  0  0
  5  6  1  0  0  0  0
  6  7  1  0  0  0  0
  7  8  1  0  0  0  0
  8  9  1  0  0  0  0
  9 10  1  0  0  0  0
  9 12  1  0  0  0  0
 10 11  1  0  0  0  0
 13 14  4  0  0  0  0
M  END
>  <Name_Molregno>
199111

>  <5-HT1A>
5

>  <5-HT1B>
5

>  <5-HT2C>
5

>  <5-HT3>
5

>  <5-HT5>
5

>  <5-HT6>
5

>  <5-HT7>
5

>  <Beta-1>
5

>  <Beta-2>
5

>  <DOPAMINE D1>
5

>  <DOPAMINE D2>
5

>  <DOPAMINE D3>
5

>  <DOPAMINE D4>
5

>  <DOPAMINE D5>
5

>  <HISTAMINE H1>
5

>  <HISTAMINE H2>
5

>  <Muscarinic acetylcholine receptor M1>
5

>  <Muscarinic acetylcholine receptor M2>
5

>  <Muscarinic acetylcholine receptor M3>
5

>  <Muscarinic acetylcholine receptor M4>
5

>  <Muscarinic acetylcholine receptor M5>
5

$$$$
214771
  Marvin  02231216192D 0   1.00000     0.00000     0

 14 15  0  0  0  0  0  0  0  0999 V2000
   -0.0559    1.6285    0.0000 Cl  0  0  0  0  0  0  0  0  0
    0.6585    1.2160    0.0000 C   0  0  0  0  0  0  0  0  0
    1.3730    1.6285    0.0000 C   0  0  0  0  0  0  0  0  0
    2.0875    1.2160    0.0000 C   0  0  0  0  0  0  0  0  0
    2.7325    1.7304    0.0000 C   0  0  0  0  0  0  0  0  0
    3.5368    1.5468    0.0000 C   0  0  0  0  0  0  0  0  0
    3.8948    0.8035    0.0000 N   0  0  0  0  0  0  0  0  0
    3.5368    0.0602    0.0000 C   0  0  0  0  0  0  0  0  0
    2.7325   -0.1233    0.0000 C   0  0  0  0  0  0  0  0  0
    2.0875    0.3910    0.0000 C   0  0  0  0  0  0  0  0  0
    1.3730   -0.0215    0.0000 C   0  0  0  0  0  0  0  0  0
    0.6585    0.3910    0.0000 C   0  0  0  0  0  0  0  0  0
   -0.0559   -0.0215    0.0000 O   0  0  0  0  0  0  0  0  0
    4.7198    0.8035    0.0000 C   0  0  0  0  0  0  0  0  0
  1  2  1  0  0  0  0
  2  3  4  0  0  0  0
  2 12  4  0  0  0  0
  3  4  4  0  0  0  0
  4  5  1  0  0  0  0
  4 10  4  0  0  0  0
  5  6  1  0  0  0  0
  6  7  1  0  0  0  0
  7  8  1  0  0  0  0
  7 14  1  0  0  0  0
  8  9  1  0  0  0  0
  9 10  1  0  0  0  0
 10 11  4  0  0  0  0
 11 12  4  0  0  0  0
 12 13  1  0  0  0  0
M  END
>  <Name_Molregno>
214771

>  <DOPAMINE D1>
7.3

$$$$
217067
  Marvin  02231216192D 0   1.00000     0.00000     0

 29 31  0  0  1  0  0  0  0  0999 V2000
   -1.2017    1.0936    0.0000 S   0  0  0  0  0  0  0  0  0
   -1.2017    0.2686    0.0000 O   0  0  0  0  0  0  0  0  0
   -1.2017    1.9186    0.0000 O   0  0  0  0  0  0  0  0  0
   -2.0267    1.0936    0.0000 C   0  0  0  0  0  0  0  0  0
   -2.4392    0.3791    0.0000 C   0  0  0  0  0  0  0  0  0
   -2.0267   -0.3354    0.0000 C   0  0  0  0  0  0  0  0  0
   -2.4392   -1.0498    0.0000 C   0  0  0  0  0  0  0  0  0
   -2.0267   -1.7643    0.0000 C   0  0  0  0  0  0  0  0  0
   -2.4392   -2.4788    0.0000 C   0  0  0  0  0  0  0  0  0
   -3.2642   -2.4788    0.0000 C   0  0  0  0  0  0  0  0  0
   -3.6767   -3.1932    0.0000 N   0  0  0  0  0  0  0  0  0
   -4.5017   -3.1932    0.0000 C   0  0  0  0  0  0  0  0  0
   -4.9142   -3.9077    0.0000 C   0  0  0  0  0  0  0  0  0
   -5.7392   -3.9077    0.0000 C   0  0  0  0  0  0  0  0  0
   -3.2642   -3.9077    0.0000 C   0  0  0  0  0  0  0  0  0
   -2.4392   -3.9077    0.0000 C   0  0  0  0  0  0  0  0  0
   -2.0267   -4.6222    0.0000 C   0  0  0  0  0  0  0  0  0
   -3.6767   -1.7643    0.0000 C   0  0  0  0  0  0  0  0  0
   -3.2642   -1.0498    0.0000 C   0  0  0  0  0  0  0  0  0
   -3.6767   -0.3354    0.0000 C   0  0  0  0  0  0  0  0  0
   -3.2642    0.3791    0.0000 C   0  0  0  0  0  0  0  0  0
   -0.3767    1.0936    0.0000 C   0  0  0  0  0  0  0  0  0
    0.0358    1.8081    0.0000 C   0  0  0  0  0  0  0  0  0
    0.8608    1.8081    0.0000 C   0  0  0  0  0  0  0  0  0
    1.2733    1.0936    0.0000 C   0  0  0  0  0  0  0  0  0
    2.0983    1.0936    0.0000 O   0  0  0  0  0  0  0  0  0
    2.5108    1.8081    0.0000 C   0  0  0  0  0  0  0  0  0
    0.8608    0.3791    0.0000 C   0  0  0  0  0  0  0  0  0
    0.0358    0.3791    0.0000 C   0  0  0  0  0  0  0  0  0
  1  2  2  0  0  0  0
  1  3  2  0  0  0  0
  1  4  1  0  0  0  0
  1 22  1  0  0  0  0
  4  5  1  0  0  0  0
  5  6  4  0  0  0  0
  5 21  4  0  0  0  0
  6  7  4  0  0  0  0
  7  8  1  0  0  0  0
  7 19  4  0  0  0  0
  8  9  1  0  0  0  0
  9 10  1  0  0  0  0
 10 11  1  0  0  0  0
 10 18  1  0  0  0  0
 11 12  1  0  0  0  0
 11 15  1  0  0  0  0
 12 13  1  0  0  0  0
 13 14  1  0  0  0  0
 15 16  1  0  0  0  0
 16 17  1  0  0  0  0
 18 19  1  0  0  0  0
 19 20  4  0  0  0  0
 20 21  4  0  0  0  0
 22 23  4  0  0  0  0
 22 29  4  0  0  0  0
 23 24  4  0  0  0  0
 24 25  4  0  0  0  0
 25 26  1  0  0  0  0
 25 28  4  0  0  0  0
 26 27  1  0  0  0  0
 28 29  4  0  0  0  0
M  END
>  <Name_Molregno>
217067

>  <5-HT1A>
6.8

>  <5-HT1B>
6

>  <5-HT1D>
6

>  <5-HT2A>
6

>  <5-HT2C>
6

>  <DOPAMINE D1>
6

>  <DOPAMINE D2>
7.03

>  <DOPAMINE D3>
8.88

>  <DOPAMINE D4>
5

>  <DOPAMINE D5>
6

$$$$
259724
  Marvin  02231216192D 0   1.00000     0.00000     0

 18 20  0  0  1  0  0  0  0  0999 V2000
    0.3094   -0.9505    0.0000 N   0  0  0  0  0  0  0  0  0
    1.0239   -0.5380    0.0000 C   0  0  0  0  0  0  0  0  0
    1.7384   -0.9505    0.0000 C   0  0  0  0  0  0  0  0  0
    2.4528   -0.5380    0.0000 C   0  0  0  0  0  0  0  0  0
    2.4528    0.2870    0.0000 C   0  0  0  0  0  0  0  0  0
    3.1673    0.6995    0.0000 N   0  0  0  0  0  0  0  0  0
    3.8818    0.2870    0.0000 C   0  0  0  0  0  0  0  0  0
    3.8818   -0.5380    0.0000 C   0  0  0  0  0  0  0  0  0
    3.1673   -0.9505    0.0000 C   0  0  0  0  0  0  0  0  0
    3.1673    1.5245    0.0000 C   0  0  0  0  0  0  0  0  0
    3.8818    1.9370    0.0000 C   0  0  0  0  0  0  0  0  0
    3.8818    2.7620    0.0000 C   0  0  0  0  0  0  0  0  0
    1.7384    0.6995    0.0000 C   0  0  0  0  0  0  0  0  0
    1.0239    0.2870    0.0000 C   0  0  0  0  0  0  0  0  0
    0.3094    0.6995    0.0000 C   0  0  0  0  0  0  0  0  0
   -0.4050    0.2870    0.0000 N   0  0  0  0  0  0  0  0  0
   -0.4050   -0.5380    0.0000 C   0  0  0  0  0  0  0  0  0
   -1.1195   -0.9505    0.0000 N   0  0  0  0  0  0  0  0  0
  1  2  4  0  0  0  0
  1 17  4  0  0  0  0
  2  3  1  0  0  0  0
  2 14  4  0  0  0  0
  3  4  1  0  0  0  0
  4  5  1  0  0  0  0
  4  9  1  0  0  0  0
  5  6  1  0  0  0  0
  5 13  1  0  0  0  0
  6  7  1  0  0  0  0
  6 10  1  0  0  0  0
  7  8  1  0  0  0  0
  8  9  1  0  0  0  0
 10 11  1  0  0  0  0
 11 12  1  0  0  0  0
 13 14  1  0  0  0  0
 14 15  4  0  0  0  0
 15 16  4  0  0  0  0
 16 17  4  0  0  0  0
 17 18  1  0  0  0  0
M  END
>  <Name_Molregno>
259724

>  <5-HT1A>
5

>  <5-HT1B>
5

>  <5-HT1D>
5

>  <5-HT2A>
5

>  <5-HT2C>
5.58

>  <Alpha-1A>
5

>  <Alpha-1B>
5

>  <Alpha-2A>
5

>  <Alpha-2B>
5

>  <Alpha-2C>
5

>  <Beta-1>
5

>  <Beta-2>
5

>  <DOPAMINE D1>
5

>  <DOPAMINE D2>
6.33

>  <DOPAMINE D3>
8.65

>  <DOPAMINE D4>
7.72

>  <DOPAMINE D5>
5

$$$$
263740
  Marvin  02231216192D 0   1.00000     0.00000     0

 17 20  0  0  1  0  0  0  0  0999 V2000
    0.0367   -1.7225    0.0000 N   0  0  0  0  0  0  0  0  0
    0.5528   -1.0788    0.0000 C   0  0  0  0  0  0  0  0  0
    1.3765   -1.0317    0.0000 C   0  0  0  0  0  0  0  0  0
    1.7475   -0.2948    0.0000 N   0  0  0  0  0  0  0  0  0
    2.5711   -0.2477    0.0000 C   0  0  0  0  0  0  0  0  0
    3.0238   -0.9374    0.0000 C   0  0  0  0  0  0  0  0  0
    2.6528   -1.6743    0.0000 C   0  0  0  0  0  0  0  0  0
    1.8291   -1.7214    0.0000 C   0  0  0  0  0  0  0  0  0
    1.2948    0.3949    0.0000 C   0  0  0  0  0  0  0  0  0
    0.4712    0.3478    0.0000 C   0  0  0  0  0  0  0  0  0
    0.1002   -0.3891    0.0000 C   0  0  0  0  0  0  0  0  0
   -0.6957   -0.6065    0.0000 C   0  0  0  0  0  0  0  0  0
   -0.7349   -1.4305    0.0000 C   0  0  0  0  0  0  0  0  0
   -1.4682   -1.8086    0.0000 C   0  0  0  0  0  0  0  0  0
   -2.1622   -1.3626    0.0000 C   0  0  0  0  0  0  0  0  0
   -2.1230   -0.5386    0.0000 C   0  0  0  0  0  0  0  0  0
   -1.3897   -0.1605    0.0000 C   0  0  0  0  0  0  0  0  0
  1  2  4  0  0  0  0
  1 13  4  0  0  0  0
  2  3  1  0  0  0  0
  2 11  4  0  0  0  0
  3  4  1  0  0  0  0
  3  8  1  0  0  0  0
  4  5  1  0  0  0  0
  4  9  1  0  0  0  0
  5  6  1  0  0  0  0
  6  7  1  0  0  0  0
  7  8  1  0  0  0  0
  9 10  1  0  0  0  0
 10 11  1  0  0  0  0
 11 12  4  0  0  0  0
 12 13  4  0  0  0  0
 12 17  4  0  0  0  0
 13 14  4  0  0  0  0
 14 15  4  0  0  0  0
 15 16  4  0  0  0  0
 16 17  4  0  0  0  0
M  STY  1   1 DAT
M  SAL   1  1   1
M  SDT   1 MRV_IMPLICIT_H                                        
M  SDD   1     0.0000    0.0000    DR    ALL  0       0  
M  SED   1 IMPL_H1
M  END
>  <Name_Molregno>
263740

>  <DOPAMINE D1>
5

>  <DOPAMINE D2>
5

>  <DOPAMINE D5>
5

$$$$
292963
  Marvin  02231216192D 0   1.00000     0.00000     0

 21 24  0  0  0  0  0  0  0  0999 V2000
    1.0851    1.0587    0.0000 S   0  0  0  0  0  0  0  0  0
    1.8243    0.6925    0.0000 C   0  0  0  0  0  0  0  0  0
    1.9989   -0.1138    0.0000 C   0  0  0  0  0  0  0  0  0
    2.7845   -0.3658    0.0000 C   0  0  0  0  0  0  0  0  0
    3.3955    0.1885    0.0000 C   0  0  0  0  0  0  0  0  0
    3.2209    0.9948    0.0000 C   0  0  0  0  0  0  0  0  0
    2.4353    1.2468    0.0000 C   0  0  0  0  0  0  0  0  0
    1.4774   -0.7531    0.0000 C   0  0  0  0  0  0  0  0  0
    1.8270   -1.5003    0.0000 N   0  0  0  0  0  0  0  0  0
    2.6489   -1.5712    0.0000 C   0  0  0  0  0  0  0  0  0
    2.9986   -2.3184    0.0000 C   0  0  0  0  0  0  0  0  0
    2.5262   -2.9948    0.0000 N   0  0  0  0  0  0  0  0  0
    1.7043   -2.9240    0.0000 C   0  0  0  0  0  0  0  0  0
    1.3546   -2.1767    0.0000 C   0  0  0  0  0  0  0  0  0
    2.8758   -3.7421    0.0000 C   0  0  0  0  0  0  0  0  0
    0.6524   -0.7438    0.0000 C   0  0  0  0  0  0  0  0  0
    0.1453   -0.0931    0.0000 N   0  0  0  0  0  0  0  0  0
    0.3378    0.7091    0.0000 C   0  0  0  0  0  0  0  0  0
   -0.3656    1.1401    0.0000 C   0  0  0  0  0  0  0  0  0
   -0.9929    0.6043    0.0000 C   0  0  0  0  0  0  0  0  0
   -0.6772   -0.1579    0.0000 C   0  0  0  0  0  0  0  0  0
  1  2  1  0  0  0  0
  1 18  1  0  0  0  0
  2  3  4  0  0  0  0
  2  7  4  0  0  0  0
  3  4  4  0  0  0  0
  3  8  1  0  0  0  0
  4  5  4  0  0  0  0
  5  6  4  0  0  0  0
  6  7  4  0  0  0  0
  8  9  1  0  0  0  0
  8 16  2  0  0  0  0
  9 10  1  0  0  0  0
  9 14  1  0  0  0  0
 10 11  1  0  0  0  0
 11 12  1  0  0  0  0
 12 13  1  0  0  0  0
 12 15  1  0  0  0  0
 13 14  1  0  0  0  0
 16 17  1  0  0  0  0
 17 18  4  0  0  0  0
 17 21  4  0  0  0  0
 18 19  4  0  0  0  0
 19 20  4  0  0  0  0
 20 21  4  0  0  0  0
M  END
>  <Name_Molregno>
292963

>  <DOPAMINE D1>
7.71

>  <DOPAMINE D2>
7.76

>  <DOPAMINE D3>
8.08

$$$$
293106
  Marvin  02231216192D 0   1.00000     0.00000     0

 22 25  0  0  0  0  0  0  0  0999 V2000
    1.0170    1.1356    0.0000 S   0  0  0  0  0  0  0  0  0
    1.7563    0.7694    0.0000 C   0  0  0  0  0  0  0  0  0
    1.9309   -0.0369    0.0000 C   0  0  0  0  0  0  0  0  0
    2.7164   -0.2889    0.0000 C   0  0  0  0  0  0  0  0  0
    3.3274    0.2655    0.0000 C   0  0  0  0  0  0  0  0  0
    4.1130    0.0135    0.0000 F   0  0  0  0  0  0  0  0  0
    3.1529    1.0718    0.0000 C   0  0  0  0  0  0  0  0  0
    2.3673    1.3238    0.0000 C   0  0  0  0  0  0  0  0  0
    1.4093   -0.6761    0.0000 C   0  0  0  0  0  0  0  0  0
    1.7589   -1.4234    0.0000 N   0  0  0  0  0  0  0  0  0
    2.5809   -1.4942    0.0000 C   0  0  0  0  0  0  0  0  0
    2.9305   -2.2415    0.0000 C   0  0  0  0  0  0  0  0  0
    2.4582   -2.9179    0.0000 N   0  0  0  0  0  0  0  0  0
    1.6362   -2.8470    0.0000 C   0  0  0  0  0  0  0  0  0
    1.2866   -2.0998    0.0000 C   0  0  0  0  0  0  0  0  0
    2.8078   -3.6651    0.0000 C   0  0  0  0  0  0  0  0  0
    0.5844   -0.6669    0.0000 C   0  0  0  0  0  0  0  0  0
    0.0772   -0.0162    0.0000 N   0  0  0  0  0  0  0  0  0
    0.2698    0.7860    0.0000 C   0  0  0  0  0  0  0  0  0
   -0.4337    1.2171    0.0000 C   0  0  0  0  0  0  0  0  0
   -1.0610    0.6812    0.0000 C   0  0  0  0  0  0  0  0  0
   -0.7452   -0.0809    0.0000 C   0  0  0  0  0  0  0  0  0
  1  2  1  0  0  0  0
  1 19  1  0  0  0  0
  2  3  4  0  0  0  0
  2  8  4  0  0  0  0
  3  4  4  0  0  0  0
  3  9  1  0  0  0  0
  4  5  4  0  0  0  0
  5  6  1  0  0  0  0
  5  7  4  0  0  0  0
  7  8  4  0  0  0  0
  9 10  1  0  0  0  0
  9 17  2  0  0  0  0
 10 11  1  0  0  0  0
 10 15  1  0  0  0  0
 11 12  1  0  0  0  0
 12 13  1  0  0  0  0
 13 14  1  0  0  0  0
 13 16  1  0  0  0  0
 14 15  1  0  0  0  0
 17 18  1  0  0  0  0
 18 19  4  0  0  0  0
 18 22  4  0  0  0  0
 19 20  4  0  0  0  0
 20 21  4  0  0  0  0
 21 22  4  0  0  0  0
M  END
>  <Name_Molregno>
293106

>  <DOPAMINE D1>
8.11

>  <DOPAMINE D2>
8.07

>  <DOPAMINE D3>
8.57

$$$$
293107
  Marvin  02231216192D 0   1.00000     0.00000     0

 22 25  0  0  0  0  0  0  0  0999 V2000
    3.2813    1.8112    0.0000 Cl  0  0  0  0  0  0  0  0  0
    2.4957    1.5592    0.0000 C   0  0  0  0  0  0  0  0  0
    1.8847    2.1135    0.0000 C   0  0  0  0  0  0  0  0  0
    1.0991    1.8616    0.0000 C   0  0  0  0  0  0  0  0  0
    0.9245    1.0553    0.0000 C   0  0  0  0  0  0  0  0  0
    0.1853    0.6890    0.0000 S   0  0  0  0  0  0  0  0  0
   -0.5620    1.0386    0.0000 C   0  0  0  0  0  0  0  0  0
   -0.7546    1.8409    0.0000 N   0  0  0  0  0  0  0  0  0
   -0.2474    2.4916    0.0000 C   0  0  0  0  0  0  0  0  0
    0.5775    2.5008    0.0000 C   0  0  0  0  0  0  0  0  0
    0.9272    3.2481    0.0000 N   0  0  0  0  0  0  0  0  0
    0.4548    3.9245    0.0000 C   0  0  0  0  0  0  0  0  0
    0.8044    4.6717    0.0000 C   0  0  0  0  0  0  0  0  0
    1.6264    4.7426    0.0000 N   0  0  0  0  0  0  0  0  0
    2.0987    4.0662    0.0000 C   0  0  0  0  0  0  0  0  0
    1.7491    3.3189    0.0000 C   0  0  0  0  0  0  0  0  0
    1.9760    5.4898    0.0000 C   0  0  0  0  0  0  0  0  0
   -1.5770    1.9056    0.0000 C   0  0  0  0  0  0  0  0  0
   -1.8928    1.1434    0.0000 C   0  0  0  0  0  0  0  0  0
   -1.2654    0.6076    0.0000 C   0  0  0  0  0  0  0  0  0
    1.5355    0.5009    0.0000 C   0  0  0  0  0  0  0  0  0
    2.3211    0.7529    0.0000 C   0  0  0  0  0  0  0  0  0
  1  2  1  0  0  0  0
  2  3  4  0  0  0  0
  2 22  4  0  0  0  0
  3  4  4  0  0  0  0
  4  5  4  0  0  0  0
  4 10  1  0  0  0  0
  5  6  1  0  0  0  0
  5 21  4  0  0  0  0
  6  7  1  0  0  0  0
  7  8  4  0  0  0  0
  7 20  4  0  0  0  0
  8  9  1  0  0  0  0
  8 18  4  0  0  0  0
  9 10  2  0  0  0  0
 10 11  1  0  0  0  0
 11 12  1  0  0  0  0
 11 16  1  0  0  0  0
 12 13  1  0  0  0  0
 13 14  1  0  0  0  0
 14 15  1  0  0  0  0
 14 17  1  0  0  0  0
 15 16  1  0  0  0  0
 18 19  4  0  0  0  0
 19 20  4  0  0  0  0
 21 22  4  0  0  0  0
M  END
>  <Name_Molregno>
293107

>  <DOPAMINE D1>
8.72

>  <DOPAMINE D2>
9.37

>  <DOPAMINE D3>
8.7

$$$$
294514
  Marvin  02231216192D 0   1.00000     0.00000     0

 22 25  0  0  0  0  0  0  0  0999 V2000
    1.1411    0.9642    0.0000 S   0  0  0  0  0  0  0  0  0
    1.8804    0.5980    0.0000 C   0  0  0  0  0  0  0  0  0
    2.0550   -0.2083    0.0000 C   0  0  0  0  0  0  0  0  0
    2.8405   -0.4603    0.0000 C   0  0  0  0  0  0  0  0  0
    3.4515    0.0940    0.0000 C   0  0  0  0  0  0  0  0  0
    3.2770    0.9004    0.0000 C   0  0  0  0  0  0  0  0  0
    2.4914    1.1523    0.0000 C   0  0  0  0  0  0  0  0  0
    1.5334   -0.8475    0.0000 C   0  0  0  0  0  0  0  0  0
    1.8830   -1.5948    0.0000 N   0  0  0  0  0  0  0  0  0
    2.7050   -1.6656    0.0000 C   0  0  0  0  0  0  0  0  0
    3.0546   -2.4129    0.0000 C   0  0  0  0  0  0  0  0  0
    2.5823   -3.0893    0.0000 N   0  0  0  0  0  0  0  0  0
    1.7603   -3.0185    0.0000 C   0  0  0  0  0  0  0  0  0
    1.4107   -2.2712    0.0000 C   0  0  0  0  0  0  0  0  0
    2.9319   -3.8366    0.0000 C   0  0  0  0  0  0  0  0  0
    0.7085   -0.8383    0.0000 C   0  0  0  0  0  0  0  0  0
    0.2013   -0.1876    0.0000 N   0  0  0  0  0  0  0  0  0
    0.3939    0.6146    0.0000 C   0  0  0  0  0  0  0  0  0
   -0.3096    1.0456    0.0000 C   0  0  0  0  0  0  0  0  0
   -0.9369    0.5098    0.0000 C   0  0  0  0  0  0  0  0  0
   -0.6211   -0.2524    0.0000 C   0  0  0  0  0  0  0  0  0
   -1.0522   -0.9558    0.0000 C   0  0  0  0  0  0  0  0  0
  1  2  1  0  0  0  0
  1 18  1  0  0  0  0
  2  3  4  0  0  0  0
  2  7  4  0  0  0  0
  3  4  4  0  0  0  0
  3  8  1  0  0  0  0
  4  5  4  0  0  0  0
  5  6  4  0  0  0  0
  6  7  4  0  0  0  0
  8  9  1  0  0  0  0
  8 16  2  0  0  0  0
  9 10  1  0  0  0  0
  9 14  1  0  0  0  0
 10 11  1  0  0  0  0
 11 12  1  0  0  0  0
 12 13  1  0  0  0  0
 12 15  1  0  0  0  0
 13 14  1  0  0  0  0
 16 17  1  0  0  0  0
 17 18  4  0  0  0  0
 17 21  4  0  0  0  0
 18 19  4  0  0  0  0
 19 20  4  0  0  0  0
 20 21  4  0  0  0  0
 21 22  1  0  0  0  0
M  END
>  <Name_Molregno>
294514

>  <DOPAMINE D1>
7.15

>  <DOPAMINE D2>
6.9

>  <DOPAMINE D3>
7.74

$$$$
294635
  Marvin  02231216192D 0   1.00000     0.00000     0

 23 26  0  0  0  0  0  0  0  0999 V2000
    3.0939    1.7742    0.0000 Cl  0  0  0  0  0  0  0  0  0
    2.3083    1.5222    0.0000 C   0  0  0  0  0  0  0  0  0
    1.6973    2.0766    0.0000 C   0  0  0  0  0  0  0  0  0
    0.9118    1.8246    0.0000 C   0  0  0  0  0  0  0  0  0
    0.7372    1.0183    0.0000 C   0  0  0  0  0  0  0  0  0
   -0.0021    0.6520    0.0000 S   0  0  0  0  0  0  0  0  0
   -0.7493    1.0017    0.0000 C   0  0  0  0  0  0  0  0  0
   -0.9419    1.8039    0.0000 N   0  0  0  0  0  0  0  0  0
   -0.4348    2.4546    0.0000 C   0  0  0  0  0  0  0  0  0
    0.3902    2.4638    0.0000 C   0  0  0  0  0  0  0  0  0
    0.7398    3.2111    0.0000 N   0  0  0  0  0  0  0  0  0
    0.2183    3.8503    0.0000 C   0  0  0  0  0  0  0  0  0
    0.3928    4.6566    0.0000 C   0  0  0  0  0  0  0  0  0
    1.1321    5.0228    0.0000 C   0  0  0  0  0  0  0  0  0
    1.8793    4.6732    0.0000 N   0  0  0  0  0  0  0  0  0
    2.0719    3.8710    0.0000 C   0  0  0  0  0  0  0  0  0
    1.5648    3.2203    0.0000 C   0  0  0  0  0  0  0  0  0
    2.5186    5.1948    0.0000 C   0  0  0  0  0  0  0  0  0
   -1.7643    1.8686    0.0000 C   0  0  0  0  0  0  0  0  0
   -2.0801    1.1064    0.0000 C   0  0  0  0  0  0  0  0  0
   -1.4528    0.5706    0.0000 C   0  0  0  0  0  0  0  0  0
    1.3482    0.4639    0.0000 C   0  0  0  0  0  0  0  0  0
    2.1338    0.7159    0.0000 C   0  0  0  0  0  0  0  0  0
  1  2  1  0  0  0  0
  2  3  4  0  0  0  0
  2 23  4  0  0  0  0
  3  4  4  0  0  0  0
  4  5  4  0  0  0  0
  4 10  1  0  0  0  0
  5  6  1  0  0  0  0
  5 22  4  0  0  0  0
  6  7  1  0  0  0  0
  7  8  4  0  0  0  0
  7 21  4  0  0  0  0
  8  9  1  0  0  0  0
  8 19  4  0  0  0  0
  9 10  2  0  0  0  0
 10 11  1  0  0  0  0
 11 12  1  0  0  0  0
 11 17  1  0  0  0  0
 12 13  1  0  0  0  0
 13 14  1  0  0  0  0
 14 15  1  0  0  0  0
 15 16  1  0  0  0  0
 15 18  1  0  0  0  0
 16 17  1  0  0  0  0
 19 20  4  0  0  0  0
 20 21  4  0  0  0  0
 22 23  4  0  0  0  0
M  END
>  <Name_Molregno>
294635

>  <DOPAMINE D1>
8.23

>  <DOPAMINE D2>
8.46

>  <DOPAMINE D3>
8.37

$$$$
295617
  Marvin  02231216192D 0   1.00000     0.00000     0

 23 26  0  0  0  0  0  0  0  0999 V2000
    0.6213    0.3276    0.0000 S   0  0  0  0  0  0  0  0  0
    1.3606   -0.0386    0.0000 C   0  0  0  0  0  0  0  0  0
    1.5352   -0.8450    0.0000 C   0  0  0  0  0  0  0  0  0
    2.3207   -1.0969    0.0000 C   0  0  0  0  0  0  0  0  0
    2.9317   -0.5426    0.0000 C   0  0  0  0  0  0  0  0  0
    2.7572    0.2637    0.0000 C   0  0  0  0  0  0  0  0  0
    1.9716    0.5157    0.0000 C   0  0  0  0  0  0  0  0  0
    1.0136   -1.4842    0.0000 C   0  0  0  0  0  0  0  0  0
    1.3632   -2.2314    0.0000 N   0  0  0  0  0  0  0  0  0
    2.1852   -2.3023    0.0000 C   0  0  0  0  0  0  0  0  0
    2.5348   -3.0495    0.0000 C   0  0  0  0  0  0  0  0  0
    2.0625   -3.7259    0.0000 N   0  0  0  0  0  0  0  0  0
    1.2405   -3.6551    0.0000 C   0  0  0  0  0  0  0  0  0
    0.8909   -2.9078    0.0000 C   0  0  0  0  0  0  0  0  0
    2.4121   -4.4732    0.0000 C   0  0  0  0  0  0  0  0  0
    0.1887   -1.4750    0.0000 C   0  0  0  0  0  0  0  0  0
   -0.3185   -0.8242    0.0000 N   0  0  0  0  0  0  0  0  0
   -0.1259   -0.0220    0.0000 C   0  0  0  0  0  0  0  0  0
   -0.8294    0.4090    0.0000 C   0  0  0  0  0  0  0  0  0
   -1.4567   -0.1268    0.0000 C   0  0  0  0  0  0  0  0  0
   -1.1409   -0.8890    0.0000 C   0  0  0  0  0  0  0  0  0
   -1.5720   -1.5924    0.0000 C   0  0  0  0  0  0  0  0  0
   -1.1783   -2.3174    0.0000 O   0  0  0  0  0  0  0  0  0
  1  2  1  0  0  0  0
  1 18  1  0  0  0  0
  2  3  4  0  0  0  0
  2  7  4  0  0  0  0
  3  4  4  0  0  0  0
  3  8  1  0  0  0  0
  4  5  4  0  0  0  0
  5  6  4  0  0  0  0
  6  7  4  0  0  0  0
  8  9  1  0  0  0  0
  8 16  2  0  0  0  0
  9 10  1  0  0  0  0
  9 14  1  0  0  0  0
 10 11  1  0  0  0  0
 11 12  1  0  0  0  0
 12 13  1  0  0  0  0
 12 15  1  0  0  0  0
 13 14  1  0  0  0  0
 16 17  1  0  0  0  0
 17 18  4  0  0  0  0
 17 21  4  0  0  0  0
 18 19  4  0  0  0  0
 19 20  4  0  0  0  0
 20 21  4  0  0  0  0
 21 22  1  0  0  0  0
 22 23  1  0  0  0  0
M  END
>  <Name_Molregno>
295617

>  <DOPAMINE D1>
5.76

>  <DOPAMINE D2>
6.07

>  <DOPAMINE D3>
6.95

$$$$
295621
  Marvin  02231216192D 0   1.00000     0.00000     0

 26 29  0  0  0  0  0  0  0  0999 V2000
   -0.1188    0.1555    0.0000 S   0  0  0  0  0  0  0  0  0
    0.6205   -0.2107    0.0000 C   0  0  0  0  0  0  0  0  0
    0.7951   -1.0171    0.0000 C   0  0  0  0  0  0  0  0  0
    1.5806   -1.2690    0.0000 C   0  0  0  0  0  0  0  0  0
    2.1916   -0.7147    0.0000 C   0  0  0  0  0  0  0  0  0
    2.0171    0.0916    0.0000 C   0  0  0  0  0  0  0  0  0
    1.2315    0.3436    0.0000 C   0  0  0  0  0  0  0  0  0
    0.2735   -1.6563    0.0000 C   0  0  0  0  0  0  0  0  0
    0.6231   -2.4035    0.0000 N   0  0  0  0  0  0  0  0  0
    1.4451   -2.4744    0.0000 C   0  0  0  0  0  0  0  0  0
    1.7947   -3.2216    0.0000 C   0  0  0  0  0  0  0  0  0
    1.3224   -3.8980    0.0000 N   0  0  0  0  0  0  0  0  0
    0.5004   -3.8272    0.0000 C   0  0  0  0  0  0  0  0  0
    0.1508   -3.0799    0.0000 C   0  0  0  0  0  0  0  0  0
    1.6720   -4.6453    0.0000 C   0  0  0  0  0  0  0  0  0
   -0.5514   -1.6471    0.0000 C   0  0  0  0  0  0  0  0  0
   -1.0586   -0.9963    0.0000 N   0  0  0  0  0  0  0  0  0
   -0.8660   -0.1941    0.0000 C   0  0  0  0  0  0  0  0  0
   -1.5695    0.2369    0.0000 C   0  0  0  0  0  0  0  0  0
   -2.1968   -0.2989    0.0000 C   0  0  0  0  0  0  0  0  0
   -1.8810   -1.0611    0.0000 C   0  0  0  0  0  0  0  0  0
   -2.3121   -1.7645    0.0000 C   0  0  0  0  0  0  0  0  0
   -1.9184   -2.4896    0.0000 O   0  0  0  0  0  0  0  0  0
   -2.3494   -3.1930    0.0000 C   0  0  0  0  0  0  0  0  0
   -1.9557   -3.9180    0.0000 C   0  0  0  0  0  0  0  0  0
   -3.1741   -3.1714    0.0000 C   0  0  0  0  0  0  0  0  0
  1  2  1  0  0  0  0
  1 18  1  0  0  0  0
  2  3  4  0  0  0  0
  2  7  4  0  0  0  0
  3  4  4  0  0  0  0
  3  8  1  0  0  0  0
  4  5  4  0  0  0  0
  5  6  4  0  0  0  0
  6  7  4  0  0  0  0
  8  9  1  0  0  0  0
  8 16  2  0  0  0  0
  9 10  1  0  0  0  0
  9 14  1  0  0  0  0
 10 11  1  0  0  0  0
 11 12  1  0  0  0  0
 12 13  1  0  0  0  0
 12 15  1  0  0  0  0
 13 14  1  0  0  0  0
 16 17  1  0  0  0  0
 17 18  4  0  0  0  0
 17 21  4  0  0  0  0
 18 19  4  0  0  0  0
 19 20  4  0  0  0  0
 20 21  4  0  0  0  0
 21 22  1  0  0  0  0
 22 23  1  0  0  0  0
 23 24  1  0  0  0  0
 24 25  1  0  0  0  0
 24 26  1  0  0  0  0
M  END
>  <Name_Molregno>
295621

>  <DOPAMINE D1>
5.12

>  <DOPAMINE D2>
5.42

>  <DOPAMINE D3>
6.56

$$$$
295697
  Marvin  02231216192D 0   1.00000     0.00000     0

 22 25  0  0  0  0  0  0  0  0999 V2000
    3.2813    1.8112    0.0000 Br  0  0  0  0  0  0  0  0  0
    2.4957    1.5592    0.0000 C   0  0  0  0  0  0  0  0  0
    1.8847    2.1135    0.0000 C   0  0  0  0  0  0  0  0  0
    1.0991    1.8616    0.0000 C   0  0  0  0  0  0  0  0  0
    0.9245    1.0553    0.0000 C   0  0  0  0  0  0  0  0  0
    0.1853    0.6890    0.0000 S   0  0  0  0  0  0  0  0  0
   -0.5620    1.0386    0.0000 C   0  0  0  0  0  0  0  0  0
   -0.7546    1.8409    0.0000 N   0  0  0  0  0  0  0  0  0
   -0.2474    2.4916    0.0000 C   0  0  0  0  0  0  0  0  0
    0.5775    2.5008    0.0000 C   0  0  0  0  0  0  0  0  0
    0.9272    3.2481    0.0000 N   0  0  0  0  0  0  0  0  0
    0.4548    3.9245    0.0000 C   0  0  0  0  0  0  0  0  0
    0.8044    4.6717    0.0000 C   0  0  0  0  0  0  0  0  0
    1.6264    4.7426    0.0000 N   0  0  0  0  0  0  0  0  0
    2.0987    4.0662    0.0000 C   0  0  0  0  0  0  0  0  0
    1.7491    3.3189    0.0000 C   0  0  0  0  0  0  0  0  0
    1.9760    5.4898    0.0000 C   0  0  0  0  0  0  0  0  0
   -1.5770    1.9056    0.0000 C   0  0  0  0  0  0  0  0  0
   -1.8928    1.1434    0.0000 C   0  0  0  0  0  0  0  0  0
   -1.2654    0.6076    0.0000 C   0  0  0  0  0  0  0  0  0
    1.5355    0.5009    0.0000 C   0  0  0  0  0  0  0  0  0
    2.3211    0.7529    0.0000 C   0  0  0  0  0  0  0  0  0
  1  2  1  0  0  0  0
  2  3  4  0  0  0  0
  2 22  4  0  0  0  0
  3  4  4  0  0  0  0
  4  5  4  0  0  0  0
  4 10  1  0  0  0  0
  5  6  1  0  0  0  0
  5 21  4  0  0  0  0
  6  7  1  0  0  0  0
  7  8  4  0  0  0  0
  7 20  4  0  0  0  0
  8  9  1  0  0  0  0
  8 18  4  0  0  0  0
  9 10  2  0  0  0  0
 10 11  1  0  0  0  0
 11 12  1  0  0  0  0
 11 16  1  0  0  0  0
 12 13  1  0  0  0  0
 13 14  1  0  0  0  0
 14 15  1  0  0  0  0
 14 17  1  0  0  0  0
 15 16  1  0  0  0  0
 18 19  4  0  0  0  0
 19 20  4  0  0  0  0
 21 22  4  0  0  0  0
M  END
>  <Name_Molregno>
295697

>  <DOPAMINE D1>
8.47

>  <DOPAMINE D2>
9.35

>  <DOPAMINE D3>
9.6

$$$$
295698
  Marvin  02231216192D 0   1.00000     0.00000     0

 23 26  0  0  0  0  0  0  0  0999 V2000
    0.6213    0.3276    0.0000 S   0  0  0  0  0  0  0  0  0
    1.3606   -0.0386    0.0000 C   0  0  0  0  0  0  0  0  0
    1.5352   -0.8450    0.0000 C   0  0  0  0  0  0  0  0  0
    2.3207   -1.0969    0.0000 C   0  0  0  0  0  0  0  0  0
    2.9317   -0.5426    0.0000 C   0  0  0  0  0  0  0  0  0
    2.7572    0.2637    0.0000 C   0  0  0  0  0  0  0  0  0
    1.9716    0.5157    0.0000 C   0  0  0  0  0  0  0  0  0
    1.0136   -1.4842    0.0000 C   0  0  0  0  0  0  0  0  0
    1.3632   -2.2314    0.0000 N   0  0  0  0  0  0  0  0  0
    2.1852   -2.3023    0.0000 C   0  0  0  0  0  0  0  0  0
    2.5348   -3.0495    0.0000 C   0  0  0  0  0  0  0  0  0
    2.0625   -3.7259    0.0000 N   0  0  0  0  0  0  0  0  0
    1.2405   -3.6551    0.0000 C   0  0  0  0  0  0  0  0  0
    0.8909   -2.9078    0.0000 C   0  0  0  0  0  0  0  0  0
    2.4121   -4.4732    0.0000 C   0  0  0  0  0  0  0  0  0
    0.1887   -1.4750    0.0000 C   0  0  0  0  0  0  0  0  0
   -0.3185   -0.8242    0.0000 N   0  0  0  0  0  0  0  0  0
   -0.1259   -0.0220    0.0000 C   0  0  0  0  0  0  0  0  0
   -0.8294    0.4090    0.0000 C   0  0  0  0  0  0  0  0  0
   -1.4567   -0.1268    0.0000 C   0  0  0  0  0  0  0  0  0
   -1.1409   -0.8890    0.0000 C   0  0  0  0  0  0  0  0  0
   -1.5720   -1.5924    0.0000 C   0  0  0  0  0  0  0  0  0
   -1.1783   -2.3174    0.0000 O   0  0  0  0  0  0  0  0  0
  1  2  1  0  0  0  0
  1 18  1  0  0  0  0
  2  3  4  0  0  0  0
  2  7  4  0  0  0  0
  3  4  4  0  0  0  0
  3  8  1  0  0  0  0
  4  5  4  0  0  0  0
  5  6  4  0  0  0  0
  6  7  4  0  0  0  0
  8  9  1  0  0  0  0
  8 16  2  0  0  0  0
  9 10  1  0  0  0  0
  9 14  1  0  0  0  0
 10 11  1  0  0  0  0
 11 12  1  0  0  0  0
 12 13  1  0  0  0  0
 12 15  1  0  0  0  0
 13 14  1  0  0  0  0
 16 17  1  0  0  0  0
 17 18  4  0  0  0  0
 17 21  4  0  0  0  0
 18 19  4  0  0  0  0
 19 20  4  0  0  0  0
 20 21  4  0  0  0  0
 21 22  1  0  0  0  0
 22 23  2  0  0  0  0
M  END
>  <Name_Molregno>
295698

>  <DOPAMINE D1>
5.37

>  <DOPAMINE D2>
5.87

>  <DOPAMINE D3>
6.99

$$$$
311687
  Marvin  02231216192D 0   1.00000     0.00000     0

 23 25  0  0  1  0  0  0  0  0999 V2000
    6.3313    2.7251    0.0000 O   0  0  0  0  0  0  0  0  0
    6.3313    1.9001    0.0000 C   0  0  0  0  0  0  0  0  0
    5.6168    1.4876    0.0000 C   0  0  0  0  0  0  0  0  0
    4.9024    1.9001    0.0000 N   0  0  0  0  0  0  0  0  0
    4.9024    2.7251    0.0000 C   0  0  0  0  0  0  0  0  0
    5.6168    3.1376    0.0000 C   0  0  0  0  0  0  0  0  0
    5.6168    3.9626    0.0000 C   0  0  0  0  0  0  0  0  0
    4.1879    1.4876    0.0000 C   0  0  0  0  0  0  0  0  0
    4.1879    0.6626    0.0000 C   0  0  0  0  0  0  0  0  0
    3.4734    0.2501    0.0000 O   0  0  0  0  0  0  0  0  0
    3.4734   -0.5749    0.0000 C   0  0  0  0  0  0  0  0  0
    4.1879   -0.9874    0.0000 C   0  0  0  0  0  0  0  0  0
    4.1879   -1.8124    0.0000 C   0  0  0  0  0  0  0  0  0
    3.4734   -2.2249    0.0000 C   0  0  0  0  0  0  0  0  0
    2.7590   -1.8124    0.0000 C   0  0  0  0  0  0  0  0  0
    2.7590   -0.9874    0.0000 C   0  0  0  0  0  0  0  0  0
    2.0445   -0.5749    0.0000 C   0  0  0  0  0  0  0  0  0
    2.0445    0.2501    0.0000 C   0  0  0  0  0  0  0  0  0
    1.3300    0.6626    0.0000 C   0  0  0  0  0  0  0  0  0
    1.3300    1.4876    0.0000 C   0  0  0  0  0  0  0  0  0
    2.0445    1.9001    0.0000 C   0  0  0  0  0  0  0  0  0
    2.7590    1.4876    0.0000 C   0  0  0  0  0  0  0  0  0
    2.7590    0.6626    0.0000 C   0  0  0  0  0  0  0  0  0
  1  2  1  0  0  0  0
  1  6  1  0  0  0  0
  2  3  1  0  0  0  0
  3  4  1  0  0  0  0
  4  5  1  0  0  0  0
  4  8  1  0  0  0  0
  5  6  1  0  0  0  0
  6  7  1  0  0  0  0
  8  9  1  0  0  0  0
  9 10  1  0  0  0  0
 10 11  1  0  0  0  0
 11 12  4  0  0  0  0
 11 16  4  0  0  0  0
 12 13  4  0  0  0  0
 13 14  4  0  0  0  0
 14 15  4  0  0  0  0
 15 16  4  0  0  0  0
 16 17  1  0  0  0  0
 17 18  1  0  0  0  0
 18 19  4  0  0  0  0
 18 23  4  0  0  0  0
 19 20  4  0  0  0  0
 20 21  4  0  0  0  0
 21 22  4  0  0  0  0
 22 23  4  0  0  0  0
M  END
>  <Name_Molregno>
311687

>  <DOPAMINE D1>
5.78

>  <DOPAMINE D2>
5

>  <DOPAMINE D3>
5

>  <DOPAMINE D4>
5

$$$$
311694
  Marvin  02231216192D 0   1.00000     0.00000     0

 28 31  0  0  0  0  0  0  0  0999 V2000
    0.5437    1.4502    0.0000 O   0  0  0  0  0  0  0  0  0
    0.5437    0.6252    0.0000 C   0  0  0  0  0  0  0  0  0
    1.2582    0.2127    0.0000 C   0  0  0  0  0  0  0  0  0
    1.2582   -0.6123    0.0000 N   0  0  0  0  0  0  0  0  0
    1.9726   -1.0248    0.0000 C   0  0  0  0  0  0  0  0  0
    1.9726   -1.8498    0.0000 C   0  0  0  0  0  0  0  0  0
    1.2582   -2.2623    0.0000 N   0  0  0  0  0  0  0  0  0
    0.5437   -1.8498    0.0000 C   0  0  0  0  0  0  0  0  0
    0.5437   -1.0248    0.0000 C   0  0  0  0  0  0  0  0  0
    1.2582   -3.0873    0.0000 C   0  0  0  0  0  0  0  0  0
    1.9726   -3.4998    0.0000 C   0  0  0  0  0  0  0  0  0
    1.9726   -4.3248    0.0000 C   0  0  0  0  0  0  0  0  0
    1.2582   -4.7373    0.0000 C   0  0  0  0  0  0  0  0  0
    0.5437   -4.3248    0.0000 C   0  0  0  0  0  0  0  0  0
    0.5437   -3.4998    0.0000 C   0  0  0  0  0  0  0  0  0
   -0.1708    1.8627    0.0000 C   0  0  0  0  0  0  0  0  0
   -0.8852    1.4502    0.0000 C   0  0  0  0  0  0  0  0  0
   -1.5997    1.8627    0.0000 C   0  0  0  0  0  0  0  0  0
   -1.5997    2.6877    0.0000 C   0  0  0  0  0  0  0  0  0
   -0.8852    3.1002    0.0000 C   0  0  0  0  0  0  0  0  0
   -0.1708    2.6877    0.0000 C   0  0  0  0  0  0  0  0  0
    0.5437    3.1002    0.0000 C   0  0  0  0  0  0  0  0  0
    1.2582    2.6877    0.0000 C   0  0  0  0  0  0  0  0  0
    1.9726    3.1002    0.0000 C   0  0  0  0  0  0  0  0  0
    2.6871    2.6877    0.0000 C   0  0  0  0  0  0  0  0  0
    2.6871    1.8627    0.0000 C   0  0  0  0  0  0  0  0  0
    1.9726    1.4502    0.0000 C   0  0  0  0  0  0  0  0  0
    1.2582    1.8627    0.0000 C   0  0  0  0  0  0  0  0  0
  1  2  1  0  0  0  0
  1 16  1  0  0  0  0
  2  3  1  0  0  0  0
  3  4  1  0  0  0  0
  4  5  1  0  0  0  0
  4  9  1  0  0  0  0
  5  6  1  0  0  0  0
  6  7  1  0  0  0  0
  7  8  1  0  0  0  0
  7 10  1  0  0  0  0
  8  9  1  0  0  0  0
 10 11  4  0  0  0  0
 10 15  4  0  0  0  0
 11 12  4  0  0  0  0
 12 13  4  0  0  0  0
 13 14  4  0  0  0  0
 14 15  4  0  0  0  0
 16 17  4  0  0  0  0
 16 21  4  0  0  0  0
 17 18  4  0  0  0  0
 18 19  4  0  0  0  0
 19 20  4  0  0  0  0
 20 21  4  0  0  0  0
 21 22  1  0  0  0  0
 22 23  1  0  0  0  0
 23 24  4  0  0  0  0
 23 28  4  0  0  0  0
 24 25  4  0  0  0  0
 25 26  4  0  0  0  0
 26 27  4  0  0  0  0
 27 28  4  0  0  0  0
M  END
>  <Name_Molregno>
311694

>  <DOPAMINE D1>
5.83

>  <DOPAMINE D2>
5.38

>  <DOPAMINE D3>
5.54

>  <DOPAMINE D4>
5

>  <DOPAMINE D5>
6.21

$$$$
311772
  Marvin  02231216192D 0   1.00000     0.00000     0

 22 24  0  0  0  0  0  0  0  0999 V2000
   -0.1092   -0.4388    0.0000 O   0  0  0  0  0  0  0  0  0
    0.6053   -0.8513    0.0000 C   0  0  0  0  0  0  0  0  0
    1.3197   -0.4388    0.0000 C   0  0  0  0  0  0  0  0  0
    2.0342   -0.8513    0.0000 C   0  0  0  0  0  0  0  0  0
    2.7487   -0.4388    0.0000 N   0  0  0  0  0  0  0  0  0
    2.8349    0.3817    0.0000 C   0  0  0  0  0  0  0  0  0
    3.6419    0.5532    0.0000 C   0  0  0  0  0  0  0  0  0
    4.0544   -0.1612    0.0000 C   0  0  0  0  0  0  0  0  0
    3.5023   -0.7743    0.0000 C   0  0  0  0  0  0  0  0  0
   -0.8237   -0.8513    0.0000 C   0  0  0  0  0  0  0  0  0
   -0.8237   -1.6763    0.0000 C   0  0  0  0  0  0  0  0  0
   -1.5382   -2.0888    0.0000 C   0  0  0  0  0  0  0  0  0
   -2.2526   -1.6763    0.0000 C   0  0  0  0  0  0  0  0  0
   -2.2526   -0.8513    0.0000 C   0  0  0  0  0  0  0  0  0
   -1.5382   -0.4388    0.0000 C   0  0  0  0  0  0  0  0  0
   -1.5382    0.3862    0.0000 C   0  0  0  0  0  0  0  0  0
   -2.2526    0.7987    0.0000 C   0  0  0  0  0  0  0  0  0
   -2.9671    0.3862    0.0000 C   0  0  0  0  0  0  0  0  0
   -3.6816    0.7987    0.0000 C   0  0  0  0  0  0  0  0  0
   -3.6816    1.6237    0.0000 C   0  0  0  0  0  0  0  0  0
   -2.9671    2.0362    0.0000 C   0  0  0  0  0  0  0  0  0
   -2.2526    1.6237    0.0000 C   0  0  0  0  0  0  0  0  0
  1  2  1  0  0  0  0
  1 10  1  0  0  0  0
  2  3  1  0  0  0  0
  3  4  1  0  0  0  0
  4  5  1  0  0  0  0
  5  6  1  0  0  0  0
  5  9  1  0  0  0  0
  6  7  1  0  0  0  0
  7  8  1  0  0  0  0
  8  9  1  0  0  0  0
 10 11  4  0  0  0  0
 10 15  4  0  0  0  0
 11 12  4  0  0  0  0
 12 13  4  0  0  0  0
 13 14  4  0  0  0  0
 14 15  4  0  0  0  0
 15 16  1  0  0  0  0
 16 17  1  0  0  0  0
 17 18  4  0  0  0  0
 17 22  4  0  0  0  0
 18 19  4  0  0  0  0
 19 20  4  0  0  0  0
 20 21  4  0  0  0  0
 21 22  4  0  0  0  0
M  END
>  <Name_Molregno>
311772

>  <DOPAMINE D1>
6.95

>  <DOPAMINE D2>
6

>  <DOPAMINE D3>
5.53

>  <DOPAMINE D4>
5.9

>  <DOPAMINE D5>
6.95

$$$$
311773
  Marvin  02231216192D 0   1.00000     0.00000     0

 21 23  0  0  0  0  0  0  0  0999 V2000
   -0.6931    0.4024    0.0000 N   0  0  0  0  0  0  0  0  0
   -0.6931   -0.4226    0.0000 C   0  0  0  0  0  0  0  0  0
    0.0214   -0.8351    0.0000 C   0  0  0  0  0  0  0  0  0
    0.0214   -1.6601    0.0000 N   0  0  0  0  0  0  0  0  0
    0.6888   -2.1451    0.0000 C   0  0  0  0  0  0  0  0  0
    0.4339   -2.9297    0.0000 C   0  0  0  0  0  0  0  0  0
   -0.3911   -2.9297    0.0000 C   0  0  0  0  0  0  0  0  0
   -0.6460   -2.1451    0.0000 C   0  0  0  0  0  0  0  0  0
   -1.4075    0.8149    0.0000 C   0  0  0  0  0  0  0  0  0
   -2.1220    0.4024    0.0000 C   0  0  0  0  0  0  0  0  0
   -2.8365    0.8149    0.0000 C   0  0  0  0  0  0  0  0  0
   -2.8365    1.6399    0.0000 C   0  0  0  0  0  0  0  0  0
   -2.1220    2.0524    0.0000 C   0  0  0  0  0  0  0  0  0
   -1.4075    1.6399    0.0000 C   0  0  0  0  0  0  0  0  0
   -0.6931    2.0524    0.0000 C   0  0  0  0  0  0  0  0  0
    0.0214    1.6399    0.0000 C   0  0  0  0  0  0  0  0  0
    0.7359    2.0524    0.0000 C   0  0  0  0  0  0  0  0  0
    1.4503    1.6399    0.0000 C   0  0  0  0  0  0  0  0  0
    1.4503    0.8149    0.0000 C   0  0  0  0  0  0  0  0  0
    0.7359    0.4024    0.0000 C   0  0  0  0  0  0  0  0  0
    0.0214    0.8149    0.0000 C   0  0  0  0  0  0  0  0  0
  1  2  1  0  0  0  0
  1  9  1  0  0  0  0
  2  3  1  0  0  0  0
  3  4  1  0  0  0  0
  4  5  1  0  0  0  0
  4  8  1  0  0  0  0
  5  6  1  0  0  0  0
  6  7  1  0  0  0  0
  7  8  1  0  0  0  0
  9 10  4  0  0  0  0
  9 14  4  0  0  0  0
 10 11  4  0  0  0  0
 11 12  4  0  0  0  0
 12 13  4  0  0  0  0
 13 14  4  0  0  0  0
 14 15  1  0  0  0  0
 15 16  1  0  0  0  0
 16 17  4  0  0  0  0
 16 21  4  0  0  0  0
 17 18  4  0  0  0  0
 18 19  4  0  0  0  0
 19 20  4  0  0  0  0
 20 21  4  0  0  0  0
M  END
>  <Name_Molregno>
311773

>  <DOPAMINE D1>
5

>  <DOPAMINE D2>
5

>  <DOPAMINE D3>
5.33

>  <DOPAMINE D4>
5

$$$$
311934
  Marvin  02231216192D 0   1.00000     0.00000     0

 19 20  0  0  0  0  0  0  0  0999 V2000
    0.0515   -0.4871    0.0000 O   0  0  0  0  0  0  0  0  0
    0.7660   -0.8996    0.0000 C   0  0  0  0  0  0  0  0  0
    1.4804   -0.4871    0.0000 C   0  0  0  0  0  0  0  0  0
    2.1949   -0.8996    0.0000 N   0  0  0  0  0  0  0  0  0
    2.9094   -0.4871    0.0000 C   0  0  0  0  0  0  0  0  0
    2.1949   -1.7246    0.0000 C   0  0  0  0  0  0  0  0  0
   -0.6630   -0.8996    0.0000 C   0  0  0  0  0  0  0  0  0
   -0.6630   -1.7246    0.0000 C   0  0  0  0  0  0  0  0  0
   -1.3775   -2.1371    0.0000 C   0  0  0  0  0  0  0  0  0
   -2.0919   -1.7246    0.0000 C   0  0  0  0  0  0  0  0  0
   -2.0919   -0.8996    0.0000 C   0  0  0  0  0  0  0  0  0
   -1.3775   -0.4871    0.0000 C   0  0  0  0  0  0  0  0  0
   -1.3775    0.3379    0.0000 C   0  0  0  0  0  0  0  0  0
   -2.0919    0.7504    0.0000 C   0  0  0  0  0  0  0  0  0
   -2.8064    0.3379    0.0000 C   0  0  0  0  0  0  0  0  0
   -3.5209    0.7504    0.0000 C   0  0  0  0  0  0  0  0  0
   -3.5209    1.5754    0.0000 C   0  0  0  0  0  0  0  0  0
   -2.8064    1.9879    0.0000 C   0  0  0  0  0  0  0  0  0
   -2.0919    1.5754    0.0000 C   0  0  0  0  0  0  0  0  0
  1  2  1  0  0  0  0
  1  7  1  0  0  0  0
  2  3  1  0  0  0  0
  3  4  1  0  0  0  0
  4  5  1  0  0  0  0
  4  6  1  0  0  0  0
  7  8  4  0  0  0  0
  7 12  4  0  0  0  0
  8  9  4  0  0  0  0
  9 10  4  0  0  0  0
 10 11  4  0  0  0  0
 11 12  4  0  0  0  0
 12 13  1  0  0  0  0
 13 14  1  0  0  0  0
 14 15  4  0  0  0  0
 14 19  4  0  0  0  0
 15 16  4  0  0  0  0
 16 17  4  0  0  0  0
 17 18  4  0  0  0  0
 18 19  4  0  0  0  0
M  END
>  <Name_Molregno>
311934

>  <DOPAMINE D1>
6.46

>  <DOPAMINE D2>
5.56

>  <DOPAMINE D3>
5

>  <DOPAMINE D4>
5.56

>  <DOPAMINE D5>
6.38

$$$$
311955
  Marvin  02231216192D 0   1.00000     0.00000     0

 22 24  0  0  0  0  0  0  0  0999 V2000
   -0.5375    0.5150    0.0000 O   0  0  0  0  0  0  0  0  0
   -0.5375   -0.3100    0.0000 C   0  0  0  0  0  0  0  0  0
    0.1770   -0.7225    0.0000 C   0  0  0  0  0  0  0  0  0
    0.1770   -1.5475    0.0000 N   0  0  0  0  0  0  0  0  0
    0.8915   -1.9600    0.0000 C   0  0  0  0  0  0  0  0  0
    0.8915   -2.7850    0.0000 C   0  0  0  0  0  0  0  0  0
    0.1770   -3.1975    0.0000 C   0  0  0  0  0  0  0  0  0
   -0.5375   -2.7850    0.0000 C   0  0  0  0  0  0  0  0  0
   -0.5375   -1.9600    0.0000 C   0  0  0  0  0  0  0  0  0
   -1.2520    0.9275    0.0000 C   0  0  0  0  0  0  0  0  0
   -1.9664    0.5150    0.0000 C   0  0  0  0  0  0  0  0  0
   -2.6809    0.9275    0.0000 C   0  0  0  0  0  0  0  0  0
   -2.6809    1.7525    0.0000 C   0  0  0  0  0  0  0  0  0
   -1.9664    2.1650    0.0000 C   0  0  0  0  0  0  0  0  0
   -1.2520    1.7525    0.0000 C   0  0  0  0  0  0  0  0  0
   -0.5375    2.1650    0.0000 C   0  0  0  0  0  0  0  0  0
    0.1770    1.7525    0.0000 C   0  0  0  0  0  0  0  0  0
    0.8915    2.1650    0.0000 C   0  0  0  0  0  0  0  0  0
    1.6059    1.7525    0.0000 C   0  0  0  0  0  0  0  0  0
    1.6059    0.9275    0.0000 C   0  0  0  0  0  0  0  0  0
    0.8915    0.5150    0.0000 C   0  0  0  0  0  0  0  0  0
    0.1770    0.9275    0.0000 C   0  0  0  0  0  0  0  0  0
  1  2  1  0  0  0  0
  1 10  1  0  0  0  0
  2  3  1  0  0  0  0
  3  4  1  0  0  0  0
  4  5  1  0  0  0  0
  4  9  1  0  0  0  0
  5  6  1  0  0  0  0
  6  7  1  0  0  0  0
  7  8  1  0  0  0  0
  8  9  1  0  0  0  0
 10 11  4  0  0  0  0
 10 15  4  0  0  0  0
 11 12  4  0  0  0  0
 12 13  4  0  0  0  0
 13 14  4  0  0  0  0
 14 15  4  0  0  0  0
 15 16  1  0  0  0  0
 16 17  1  0  0  0  0
 17 18  4  0  0  0  0
 17 22  4  0  0  0  0
 18 19  4  0  0  0  0
 19 20  4  0  0  0  0
 20 21  4  0  0  0  0
 21 22  4  0  0  0  0
M  END
>  <Name_Molregno>
311955

>  <DOPAMINE D1>
7.47

>  <DOPAMINE D2>
5.99

>  <DOPAMINE D3>
5.11

>  <DOPAMINE D4>
5.35

>  <DOPAMINE D5>
7.37

$$$$
311956
  Marvin  02231216192D 0   1.00000     0.00000     0

 22 24  0  0  0  0  0  0  0  0999 V2000
    4.4118   -2.4938    0.0000 O   0  0  0  0  0  0  0  0  0
    3.6973   -2.0813    0.0000 C   0  0  0  0  0  0  0  0  0
    3.6973   -1.2563    0.0000 C   0  0  0  0  0  0  0  0  0
    4.4118   -0.8438    0.0000 N   0  0  0  0  0  0  0  0  0
    5.1263   -1.2563    0.0000 C   0  0  0  0  0  0  0  0  0
    5.1263   -2.0813    0.0000 C   0  0  0  0  0  0  0  0  0
    4.4118   -0.0188    0.0000 C   0  0  0  0  0  0  0  0  0
    3.6973    0.3937    0.0000 C   0  0  0  0  0  0  0  0  0
    3.6973    1.2187    0.0000 O   0  0  0  0  0  0  0  0  0
    2.9829    1.6312    0.0000 C   0  0  0  0  0  0  0  0  0
    2.2684    1.2187    0.0000 C   0  0  0  0  0  0  0  0  0
    1.5539    1.6312    0.0000 C   0  0  0  0  0  0  0  0  0
    1.5539    2.4562    0.0000 C   0  0  0  0  0  0  0  0  0
    2.2684    2.8687    0.0000 C   0  0  0  0  0  0  0  0  0
    2.9829    2.4562    0.0000 C   0  0  0  0  0  0  0  0  0
    3.6973    2.8687    0.0000 C   0  0  0  0  0  0  0  0  0
    4.4118    2.4562    0.0000 C   0  0  0  0  0  0  0  0  0
    5.1263    2.8687    0.0000 C   0  0  0  0  0  0  0  0  0
    5.8407    2.4562    0.0000 C   0  0  0  0  0  0  0  0  0
    5.8407    1.6312    0.0000 C   0  0  0  0  0  0  0  0  0
    5.1263    1.2187    0.0000 C   0  0  0  0  0  0  0  0  0
    4.4118    1.6312    0.0000 C   0  0  0  0  0  0  0  0  0
  1  2  1  0  0  0  0
  1  6  1  0  0  0  0
  2  3  1  0  0  0  0
  3  4  1  0  0  0  0
  4  5  1  0  0  0  0
  4  7  1  0  0  0  0
  5  6  1  0  0  0  0
  7  8  1  0  0  0  0
  8  9  1  0  0  0  0
  9 10  1  0  0  0  0
 10 11  4  0  0  0  0
 10 15  4  0  0  0  0
 11 12  4  0  0  0  0
 12 13  4  0  0  0  0
 13 14  4  0  0  0  0
 14 15  4  0  0  0  0
 15 16  1  0  0  0  0
 16 17  1  0  0  0  0
 17 18  4  0  0  0  0
 17 22  4  0  0  0  0
 18 19  4  0  0  0  0
 19 20  4  0  0  0  0
 20 21  4  0  0  0  0
 21 22  4  0  0  0  0
M  END
>  <Name_Molregno>
311956

>  <DOPAMINE D1>
6.7

>  <DOPAMINE D2>
5

>  <DOPAMINE D3>
5

>  <DOPAMINE D4>
5.19

>  <DOPAMINE D5>
6.44

$$$$
311980
  Marvin  02231216192D 0   1.00000     0.00000     0

 22 24  0  0  0  0  0  0  0  0999 V2000
   -0.7152    0.2427    0.0000 O   0  0  0  0  0  0  0  0  0
   -0.7152   -0.5823    0.0000 C   0  0  0  0  0  0  0  0  0
   -0.0008   -0.9948    0.0000 C   0  0  0  0  0  0  0  0  0
   -0.0008   -1.8198    0.0000 N   0  0  0  0  0  0  0  0  0
    0.6667   -2.3048    0.0000 C   0  0  0  0  0  0  0  0  0
    0.4117   -3.0894    0.0000 C   0  0  0  0  0  0  0  0  0
   -0.4133   -3.0894    0.0000 C   0  0  0  0  0  0  0  0  0
   -0.6682   -2.3048    0.0000 C   0  0  0  0  0  0  0  0  0
   -1.4297    0.6552    0.0000 C   0  0  0  0  0  0  0  0  0
   -2.1442    0.2427    0.0000 C   0  0  0  0  0  0  0  0  0
   -2.8586    0.6552    0.0000 C   0  0  0  0  0  0  0  0  0
   -2.8586    1.4802    0.0000 C   0  0  0  0  0  0  0  0  0
   -2.1442    1.8927    0.0000 C   0  0  0  0  0  0  0  0  0
   -1.4297    1.4802    0.0000 C   0  0  0  0  0  0  0  0  0
   -0.7152    1.8927    0.0000 C   0  0  0  0  0  0  0  0  0
   -0.7152    2.7177    0.0000 O   0  0  0  0  0  0  0  0  0
   -0.0008    1.4802    0.0000 C   0  0  0  0  0  0  0  0  0
    0.7137    1.8927    0.0000 C   0  0  0  0  0  0  0  0  0
    1.4282    1.4802    0.0000 C   0  0  0  0  0  0  0  0  0
    1.4282    0.6552    0.0000 C   0  0  0  0  0  0  0  0  0
    0.7137    0.2427    0.0000 C   0  0  0  0  0  0  0  0  0
   -0.0008    0.6552    0.0000 C   0  0  0  0  0  0  0  0  0
  1  2  1  0  0  0  0
  1  9  1  0  0  0  0
  2  3  1  0  0  0  0
  3  4  1  0  0  0  0
  4  5  1  0  0  0  0
  4  8  1  0  0  0  0
  5  6  1  0  0  0  0
  6  7  1  0  0  0  0
  7  8  1  0  0  0  0
  9 10  4  0  0  0  0
  9 14  4  0  0  0  0
 10 11  4  0  0  0  0
 11 12  4  0  0  0  0
 12 13  4  0  0  0  0
 13 14  4  0  0  0  0
 14 15  1  0  0  0  0
 15 16  2  0  0  0  0
 15 17  1  0  0  0  0
 17 18  4  0  0  0  0
 17 22  4  0  0  0  0
 18 19  4  0  0  0  0
 19 20  4  0  0  0  0
 20 21  4  0  0  0  0
 21 22  4  0  0  0  0
M  END
>  <Name_Molregno>
311980

>  <DOPAMINE D1>
5.78

>  <DOPAMINE D2>
5.27

>  <DOPAMINE D3>
5.62

>  <DOPAMINE D4>
5

$$$$
311981
  Marvin  02231216192D 0   1.00000     0.00000     0

 22 24  0  0  1  0  0  0  0  0999 V2000
   -0.7152    0.2427    0.0000 O   0  0  0  0  0  0  0  0  0
   -0.7152   -0.5823    0.0000 C   0  0  0  0  0  0  0  0  0
   -0.0008   -0.9948    0.0000 C   0  0  0  0  0  0  0  0  0
   -0.0008   -1.8198    0.0000 N   0  0  0  0  0  0  0  0  0
    0.6667   -2.3048    0.0000 C   0  0  0  0  0  0  0  0  0
    0.4117   -3.0894    0.0000 C   0  0  0  0  0  0  0  0  0
   -0.4133   -3.0894    0.0000 C   0  0  0  0  0  0  0  0  0
   -0.6682   -2.3048    0.0000 C   0  0  0  0  0  0  0  0  0
   -1.4297    0.6552    0.0000 C   0  0  0  0  0  0  0  0  0
   -2.1442    0.2427    0.0000 C   0  0  0  0  0  0  0  0  0
   -2.8586    0.6552    0.0000 C   0  0  0  0  0  0  0  0  0
   -2.8586    1.4802    0.0000 C   0  0  0  0  0  0  0  0  0
   -2.1442    1.8927    0.0000 C   0  0  0  0  0  0  0  0  0
   -1.4297    1.4802    0.0000 C   0  0  0  0  0  0  0  0  0
   -0.7152    1.8927    0.0000 C   0  0  0  0  0  0  0  0  0
   -0.7152    2.7177    0.0000 O   0  0  0  0  0  0  0  0  0
   -0.0008    1.4802    0.0000 C   0  0  0  0  0  0  0  0  0
    0.7137    1.8927    0.0000 C   0  0  0  0  0  0  0  0  0
    1.4282    1.4802    0.0000 C   0  0  0  0  0  0  0  0  0
    1.4282    0.6552    0.0000 C   0  0  0  0  0  0  0  0  0
    0.7137    0.2427    0.0000 C   0  0  0  0  0  0  0  0  0
   -0.0008    0.6552    0.0000 C   0  0  0  0  0  0  0  0  0
  1  2  1  0  0  0  0
  1  9  1  0  0  0  0
  2  3  1  0  0  0  0
  3  4  1  0  0  0  0
  4  5  1  0  0  0  0
  4  8  1  0  0  0  0
  5  6  1  0  0  0  0
  6  7  1  0  0  0  0
  7  8  1  0  0  0  0
  9 10  4  0  0  0  0
  9 14  4  0  0  0  0
 10 11  4  0  0  0  0
 11 12  4  0  0  0  0
 12 13  4  0  0  0  0
 13 14  4  0  0  0  0
 14 15  1  0  0  0  0
 15 16  1  0  0  0  0
 15 17  1  0  0  0  0
 17 18  4  0  0  0  0
 17 22  4  0  0  0  0
 18 19  4  0  0  0  0
 19 20  4  0  0  0  0
 20 21  4  0  0  0  0
 21 22  4  0  0  0  0
M  END
>  <Name_Molregno>
311981

>  <DOPAMINE D1>
5.58

>  <DOPAMINE D2>
5.2

>  <DOPAMINE D3>
5

>  <DOPAMINE D4>
5

$$$$
312002
  Marvin  02231216192D 0   1.00000     0.00000     0

 21 22  0  0  0  0  0  0  0  0999 V2000
    0.0162    0.4086    0.0000 O   0  0  0  0  0  0  0  0  0
    0.8412    0.4086    0.0000 C   0  0  0  0  0  0  0  0  0
    1.2537    1.1230    0.0000 C   0  0  0  0  0  0  0  0  0
    2.0787    1.1230    0.0000 N   0  0  0  0  0  0  0  0  0
    2.4912    1.8375    0.0000 C   0  0  0  0  0  0  0  0  0
    3.3162    1.8375    0.0000 C   0  0  0  0  0  0  0  0  0
    2.4912    0.4086    0.0000 C   0  0  0  0  0  0  0  0  0
    2.0787   -0.3059    0.0000 C   0  0  0  0  0  0  0  0  0
   -0.3963   -0.3059    0.0000 C   0  0  0  0  0  0  0  0  0
    0.0162   -1.0204    0.0000 C   0  0  0  0  0  0  0  0  0
   -0.3963   -1.7348    0.0000 C   0  0  0  0  0  0  0  0  0
   -1.2213   -1.7348    0.0000 C   0  0  0  0  0  0  0  0  0
   -1.6338   -1.0204    0.0000 C   0  0  0  0  0  0  0  0  0
   -1.2213   -0.3059    0.0000 C   0  0  0  0  0  0  0  0  0
   -1.6338    0.4086    0.0000 C   0  0  0  0  0  0  0  0  0
   -2.4588    0.4086    0.0000 C   0  0  0  0  0  0  0  0  0
   -2.8713   -0.3059    0.0000 C   0  0  0  0  0  0  0  0  0
   -3.6963   -0.3059    0.0000 C   0  0  0  0  0  0  0  0  0
   -4.1088    0.4086    0.0000 C   0  0  0  0  0  0  0  0  0
   -3.6963    1.1230    0.0000 C   0  0  0  0  0  0  0  0  0
   -2.8713    1.1230    0.0000 C   0  0  0  0  0  0  0  0  0
  1  2  1  0  0  0  0
  1  9  1  0  0  0  0
  2  3  1  0  0  0  0
  3  4  1  0  0  0  0
  4  5  1  0  0  0  0
  4  7  1  0  0  0  0
  5  6  1  0  0  0  0
  7  8  1  0  0  0  0
  9 10  4  0  0  0  0
  9 14  4  0  0  0  0
 10 11  4  0  0  0  0
 11 12  4  0  0  0  0
 12 13  4  0  0  0  0
 13 14  4  0  0  0  0
 14 15  1  0  0  0  0
 15 16  1  0  0  0  0
 16 17  4  0  0  0  0
 16 21  4  0  0  0  0
 17 18  4  0  0  0  0
 18 19  4  0  0  0  0
 19 20  4  0  0  0  0
 20 21  4  0  0  0  0
M  END
>  <Name_Molregno>
312002

>  <DOPAMINE D1>
5.71

>  <DOPAMINE D2>
5.69

>  <DOPAMINE D3>
5.33

>  <DOPAMINE D4>
5

$$$$
312003
  Marvin  02231216192D 0   1.00000     0.00000     0

 21 23  0  0  0  0  0  0  0  0999 V2000
   -0.6931    0.4024    0.0000 O   0  0  0  0  0  0  0  0  0
   -0.6931   -0.4226    0.0000 C   0  0  0  0  0  0  0  0  0
    0.0214   -0.8351    0.0000 C   0  0  0  0  0  0  0  0  0
    0.0214   -1.6601    0.0000 N   0  0  0  0  0  0  0  0  0
    0.6888   -2.1451    0.0000 C   0  0  0  0  0  0  0  0  0
    0.4339   -2.9297    0.0000 C   0  0  0  0  0  0  0  0  0
   -0.3911   -2.9297    0.0000 C   0  0  0  0  0  0  0  0  0
   -0.6460   -2.1451    0.0000 C   0  0  0  0  0  0  0  0  0
   -1.4075    0.8149    0.0000 C   0  0  0  0  0  0  0  0  0
   -2.1220    0.4024    0.0000 C   0  0  0  0  0  0  0  0  0
   -2.8365    0.8149    0.0000 C   0  0  0  0  0  0  0  0  0
   -2.8365    1.6399    0.0000 C   0  0  0  0  0  0  0  0  0
   -2.1220    2.0524    0.0000 C   0  0  0  0  0  0  0  0  0
   -1.4075    1.6399    0.0000 C   0  0  0  0  0  0  0  0  0
   -0.6931    2.0524    0.0000 C   0  0  0  0  0  0  0  0  0
    0.0214    1.6399    0.0000 C   0  0  0  0  0  0  0  0  0
    0.7359    2.0524    0.0000 C   0  0  0  0  0  0  0  0  0
    1.4503    1.6399    0.0000 C   0  0  0  0  0  0  0  0  0
    1.4503    0.8149    0.0000 C   0  0  0  0  0  0  0  0  0
    0.7359    0.4024    0.0000 C   0  0  0  0  0  0  0  0  0
    0.0214    0.8149    0.0000 C   0  0  0  0  0  0  0  0  0
  1  2  1  0  0  0  0
  1  9  1  0  0  0  0
  2  3  1  0  0  0  0
  3  4  1  0  0  0  0
  4  5  1  0  0  0  0
  4  8  1  0  0  0  0
  5  6  1  0  0  0  0
  6  7  1  0  0  0  0
  7  8  1  0  0  0  0
  9 10  4  0  0  0  0
  9 14  4  0  0  0  0
 10 11  4  0  0  0  0
 11 12  4  0  0  0  0
 12 13  4  0  0  0  0
 13 14  4  0  0  0  0
 14 15  1  0  0  0  0
 15 16  1  0  0  0  0
 16 17  4  0  0  0  0
 16 21  4  0  0  0  0
 17 18  4  0  0  0  0
 18 19  4  0  0  0  0
 19 20  4  0  0  0  0
 20 21  4  0  0  0  0
M  END
>  <Name_Molregno>
312003

>  <DOPAMINE D1>
6.42

>  <DOPAMINE D2>
5

>  <DOPAMINE D3>
5.74

>  <DOPAMINE D4>
5.85

>  <DOPAMINE D5>
6.02

$$$$
312018
  Marvin  02231216192D 0   1.00000     0.00000     0

 22 24  0  0  0  0  0  0  0  0999 V2000
   -0.9797   -0.4627    0.0000 O   0  0  0  0  0  0  0  0  0
   -0.2182    0.0222    0.0000 C   0  0  0  0  0  0  0  0  0
    0.0368    0.8068    0.0000 C   0  0  0  0  0  0  0  0  0
    0.8618    0.8068    0.0000 N   0  0  0  0  0  0  0  0  0
    1.1167    0.0222    0.0000 C   0  0  0  0  0  0  0  0  0
    1.8782   -0.4627    0.0000 C   0  0  0  0  0  0  0  0  0
    1.8782   -1.2877    0.0000 C   0  0  0  0  0  0  0  0  0
    1.1637   -1.7002    0.0000 C   0  0  0  0  0  0  0  0  0
    0.4493   -1.2877    0.0000 C   0  0  0  0  0  0  0  0  0
   -0.2652   -1.7002    0.0000 C   0  0  0  0  0  0  0  0  0
   -0.9797   -1.2877    0.0000 C   0  0  0  0  0  0  0  0  0
   -1.6942   -1.7002    0.0000 C   0  0  0  0  0  0  0  0  0
   -1.6942   -2.5252    0.0000 C   0  0  0  0  0  0  0  0  0
   -2.4086   -2.9377    0.0000 O   0  0  0  0  0  0  0  0  0
   -2.4086   -3.7627    0.0000 C   0  0  0  0  0  0  0  0  0
   -0.9797   -2.9377    0.0000 C   0  0  0  0  0  0  0  0  0
   -0.2652   -2.5252    0.0000 C   0  0  0  0  0  0  0  0  0
    1.1637   -2.5252    0.0000 C   0  0  0  0  0  0  0  0  0
    1.8782   -2.9377    0.0000 C   0  0  0  0  0  0  0  0  0
    2.5927   -2.5252    0.0000 C   0  0  0  0  0  0  0  0  0
    2.5927   -1.7002    0.0000 C   0  0  0  0  0  0  0  0  0
    1.3467    1.4743    0.0000 C   0  0  0  0  0  0  0  0  0
  1  2  1  0  0  0  0
  1 11  1  0  0  0  0
  2  3  1  0  0  0  0
  3  4  1  0  0  0  0
  4  5  1  0  0  0  0
  4 22  1  0  0  0  0
  5  6  1  0  0  0  0
  6  7  1  0  0  0  0
  7  8  4  0  0  0  0
  7 21  4  0  0  0  0
  8  9  1  0  0  0  0
  8 18  4  0  0  0  0
  9 10  1  0  0  0  0
 10 11  4  0  0  0  0
 10 17  4  0  0  0  0
 11 12  4  0  0  0  0
 12 13  4  0  0  0  0
 13 14  1  0  0  0  0
 13 16  4  0  0  0  0
 14 15  1  0  0  0  0
 16 17  4  0  0  0  0
 18 19  4  0  0  0  0
 19 20  4  0  0  0  0
 20 21  4  0  0  0  0
M  END
>  <Name_Molregno>
312018

>  <DOPAMINE D1>
7.45

>  <DOPAMINE D2>
6.8

>  <DOPAMINE D3>
5.8

>  <DOPAMINE D4>
6.26

>  <DOPAMINE D5>
8.74

$$$$
312019
  Marvin  02231216192D 0   1.00000     0.00000     0

 21 23  0  0  0  0  0  0  0  0999 V2000
   -0.3138   -0.2718    0.0000 O   0  0  0  0  0  0  0  0  0
    0.4477    0.2132    0.0000 C   0  0  0  0  0  0  0  0  0
    0.7027    0.9978    0.0000 C   0  0  0  0  0  0  0  0  0
    1.5277    0.9978    0.0000 N   0  0  0  0  0  0  0  0  0
    1.7826    0.2132    0.0000 C   0  0  0  0  0  0  0  0  0
    2.5441   -0.2718    0.0000 C   0  0  0  0  0  0  0  0  0
    2.5441   -1.0968    0.0000 C   0  0  0  0  0  0  0  0  0
    1.8296   -1.5093    0.0000 C   0  0  0  0  0  0  0  0  0
    1.1152   -1.0968    0.0000 C   0  0  0  0  0  0  0  0  0
    0.4007   -1.5093    0.0000 C   0  0  0  0  0  0  0  0  0
   -0.3138   -1.0968    0.0000 C   0  0  0  0  0  0  0  0  0
   -1.0282   -1.5093    0.0000 C   0  0  0  0  0  0  0  0  0
   -1.0282   -2.3343    0.0000 C   0  0  0  0  0  0  0  0  0
   -1.7427   -2.7468    0.0000 O   0  0  0  0  0  0  0  0  0
   -0.3138   -2.7468    0.0000 C   0  0  0  0  0  0  0  0  0
    0.4007   -2.3343    0.0000 C   0  0  0  0  0  0  0  0  0
    1.8296   -2.3343    0.0000 C   0  0  0  0  0  0  0  0  0
    2.5441   -2.7468    0.0000 C   0  0  0  0  0  0  0  0  0
    3.2586   -2.3343    0.0000 C   0  0  0  0  0  0  0  0  0
    3.2586   -1.5093    0.0000 C   0  0  0  0  0  0  0  0  0
    2.0126    1.6652    0.0000 C   0  0  0  0  0  0  0  0  0
  1  2  1  0  0  0  0
  1 11  1  0  0  0  0
  2  3  1  0  0  0  0
  3  4  1  0  0  0  0
  4  5  1  0  0  0  0
  4 21  1  0  0  0  0
  5  6  1  0  0  0  0
  6  7  1  0  0  0  0
  7  8  4  0  0  0  0
  7 20  4  0  0  0  0
  8  9  1  0  0  0  0
  8 17  4  0  0  0  0
  9 10  1  0  0  0  0
 10 11  4  0  0  0  0
 10 16  4  0  0  0  0
 11 12  4  0  0  0  0
 12 13  4  0  0  0  0
 13 14  1  0  0  0  0
 13 15  4  0  0  0  0
 15 16  4  0  0  0  0
 17 18  4  0  0  0  0
 18 19  4  0  0  0  0
 19 20  4  0  0  0  0
M  END
>  <Name_Molregno>
312019

>  <DOPAMINE D1>
8.49

>  <DOPAMINE D2>
6.56

>  <DOPAMINE D3>
5.86

>  <DOPAMINE D4>
6.43

>  <DOPAMINE D5>
9.24

$$$$
320047
  Marvin  02231216192D 0   1.00000     0.00000     0

 33 37  0  0  0  0  0  0  0  0999 V2000
    0.1212   -0.0292    0.0000 Cl  0  0  0  0  0  0  0  0  0
    0.1212   -0.8542    0.0000 C   0  0  0  0  0  0  0  0  0
    0.8356   -1.2667    0.0000 C   0  0  0  0  0  0  0  0  0
    0.8356   -2.0917    0.0000 C   0  0  0  0  0  0  0  0  0
    0.1212   -2.5042    0.0000 C   0  0  0  0  0  0  0  0  0
   -0.5933   -2.0917    0.0000 C   0  0  0  0  0  0  0  0  0
   -0.5933   -1.2667    0.0000 C   0  0  0  0  0  0  0  0  0
   -1.3078   -0.8542    0.0000 N   0  0  0  0  0  0  0  0  0
   -2.0222   -1.2667    0.0000 C   0  0  0  0  0  0  0  0  0
   -2.7367   -0.8542    0.0000 C   0  0  0  0  0  0  0  0  0
   -2.7367   -0.0292    0.0000 N   0  0  0  0  0  0  0  0  0
   -2.0222    0.3833    0.0000 C   0  0  0  0  0  0  0  0  0
   -1.3078   -0.0292    0.0000 C   0  0  0  0  0  0  0  0  0
   -3.4512    0.3833    0.0000 C   0  0  0  0  0  0  0  0  0
   -4.1657   -0.0292    0.0000 C   0  0  0  0  0  0  0  0  0
   -4.8801    0.3833    0.0000 N   0  0  0  0  0  0  0  0  0
   -5.5946   -0.0292    0.0000 C   0  0  0  0  0  0  0  0  0
   -5.5946   -0.8542    0.0000 O   0  0  0  0  0  0  0  0  0
   -6.3091    0.3833    0.0000 C   0  0  0  0  0  0  0  0  0
   -7.0937    0.1284    0.0000 N   0  0  0  0  0  0  0  0  0
   -7.5786    0.7958    0.0000 C   0  0  0  0  0  0  0  0  0
   -7.0937    1.4633    0.0000 C   0  0  0  0  0  0  0  0  0
   -6.3091    1.2083    0.0000 C   0  0  0  0  0  0  0  0  0
   -5.5946    1.6208    0.0000 N   0  0  0  0  0  0  0  0  0
   -4.8801    1.2083    0.0000 C   0  0  0  0  0  0  0  0  0
   -4.1657    1.6208    0.0000 O   0  0  0  0  0  0  0  0  0
   -8.4036    0.7958    0.0000 C   0  0  0  0  0  0  0  0  0
   -8.8161    0.0813    0.0000 C   0  0  0  0  0  0  0  0  0
   -9.6411    0.0813    0.0000 C   0  0  0  0  0  0  0  0  0
  -10.0536    0.7958    0.0000 C   0  0  0  0  0  0  0  0  0
   -9.6411    1.5103    0.0000 C   0  0  0  0  0  0  0  0  0
   -8.8161    1.5103    0.0000 C   0  0  0  0  0  0  0  0  0
  -10.8786    0.7958    0.0000 C   0  0  0  0  0  0  0  0  0
  1  2  1  0  0  0  0
  2  3  4  0  0  0  0
  2  7  4  0  0  0  0
  3  4  4  0  0  0  0
  4  5  4  0  0  0  0
  5  6  4  0  0  0  0
  6  7  4  0  0  0  0
  7  8  1  0  0  0  0
  8  9  1  0  0  0  0
  8 13  1  0  0  0  0
  9 10  1  0  0  0  0
 10 11  1  0  0  0  0
 11 12  1  0  0  0  0
 11 14  1  0  0  0  0
 12 13  1  0  0  0  0
 14 15  1  0  0  0  0
 15 16  1  0  0  0  0
 16 17  1  0  0  0  0
 16 25  1  0  0  0  0
 17 18  2  0  0  0  0
 17 19  1  0  0  0  0
 19 20  4  0  0  0  0
 19 23  4  0  0  0  0
 20 21  4  0  0  0  0
 21 22  4  0  0  0  0
 21 27  1  0  0  0  0
 22 23  4  0  0  0  0
 23 24  1  0  0  0  0
 24 25  1  0  0  0  0
 25 26  2  0  0  0  0
 27 28  4  0  0  0  0
 27 32  4  0  0  0  0
 28 29  4  0  0  0  0
 29 30  4  0  0  0  0
 30 31  4  0  0  0  0
 30 33  1  0  0  0  0
 31 32  4  0  0  0  0
M  STY  1   1 DAT
M  SAL   1  1  20
M  SDT   1 MRV_IMPLICIT_H                                        
M  SDD   1     0.0000    0.0000    DR    ALL  0       0  
M  SED   1 IMPL_H1
M  END
>  <Name_Molregno>
320047

>  <5-HT1A>
5

>  <DOPAMINE D1>
5

>  <DOPAMINE D2>
5

$$$$
320346
  Marvin  02231216192D 0   1.00000     0.00000     0

 25 28  0  0  1  0  0  0  0  0999 V2000
   -0.3965   -3.1617    0.0000 O   0  0  0  0  0  0  0  0  0
    0.3175   -3.5751    0.0000 C   0  0  0  0  0  0  0  0  0
    1.0325   -3.1634    0.0000 N   0  0  0  0  0  0  0  0  0
    1.0334   -2.3384    0.0000 C   0  0  0  0  0  0  0  0  0
    1.7484   -1.9268    0.0000 C   0  0  0  0  0  0  0  0  0
    1.7494   -1.1018    0.0000 C   0  0  0  0  0  0  0  0  0
    1.0354   -0.6884    0.0000 C   0  0  0  0  0  0  0  0  0
    0.3205   -1.1001    0.0000 N   0  0  0  0  0  0  0  0  0
    0.3195   -1.9251    0.0000 C   0  0  0  0  0  0  0  0  0
   -0.3935   -0.6867    0.0000 C   0  0  0  0  0  0  0  0  0
    1.0369    0.1357    0.0000 C   0  0  0  0  0  0  0  0  0
    1.7494    0.5482    0.0000 C   0  0  0  0  0  0  0  0  0
    2.4619    0.1357    0.0000 C   0  0  0  0  0  0  0  0  0
    2.4619   -0.6893    0.0000 C   0  0  0  0  0  0  0  0  0
    3.1798   -1.1018    0.0000 C   0  0  0  0  0  0  0  0  0
    3.8923   -0.6893    0.0000 C   0  0  0  0  0  0  0  0  0
    3.8923    0.1357    0.0000 C   0  0  0  0  0  0  0  0  0
    3.1798    0.5482    0.0000 C   0  0  0  0  0  0  0  0  0
    2.8744    1.4054    0.0000 N   0  0  0  0  0  0  0  0  0
    2.0494    1.4054    0.0000 C   0  0  0  0  0  0  0  0  0
    0.3165   -4.4001    0.0000 N   0  0  0  0  0  0  0  0  0
   -0.3985   -4.8117    0.0000 C   0  0  0  0  0  0  0  0  0
   -0.3994   -5.6367    0.0000 C   0  0  0  0  0  0  0  0  0
    1.0305   -4.8134    0.0000 C   0  0  0  0  0  0  0  0  0
    1.0295   -5.6384    0.0000 C   0  0  0  0  0  0  0  0  0
  1  2  2  0  0  0  0
  2  3  1  0  0  0  0
  2 21  1  0  0  0  0
  3  4  1  0  0  0  0
  4  5  1  0  0  0  0
  4  9  1  0  0  0  0
  5  6  2  0  0  0  0
  6  7  1  0  0  0  0
  6 14  1  0  0  0  0
  7  8  1  0  0  0  0
  7 11  1  0  0  0  0
  8  9  1  0  0  0  0
  8 10  1  0  0  0  0
 11 12  1  0  0  0  0
 12 13  4  0  0  0  0
 12 20  4  0  0  0  0
 13 14  4  0  0  0  0
 13 18  4  0  0  0  0
 14 15  4  0  0  0  0
 15 16  4  0  0  0  0
 16 17  4  0  0  0  0
 17 18  4  0  0  0  0
 18 19  4  0  0  0  0
 19 20  4  0  0  0  0
 21 22  1  0  0  0  0
 21 24  1  0  0  0  0
 22 23  1  0  0  0  0
 24 25  1  0  0  0  0
M  STY  1   1 DAT
M  SAL   1  1  19
M  SDT   1 MRV_IMPLICIT_H                                        
M  SDD   1     0.0000    0.0000    DR    ALL  0       0  
M  SED   1 IMPL_H1
M  END
>  <Name_Molregno>
320346

>  <5-HT1A>
9.06

>  <5-HT1B>
7.73

>  <5-HT1D>
9.01

>  <5-HT2A>
8.71

>  <5-HT2C>
8.2

>  <Alpha-1A>
8.26

>  <Alpha-1B>
7.78

>  <Alpha-2A>
10.26

>  <Alpha-2B>
9.87

>  <Beta-1>
7.17

>  <Beta-2>
8.1

>  <DOPAMINE D1>
7.19

>  <DOPAMINE D2>
9.31

>  <DOPAMINE D3>
9.14

>  <DOPAMINE D4>
8.33

>  <DOPAMINE D5>
8.45

$$$$
320506
  Marvin  02231216192D 0   1.00000     0.00000     0

 16 18  0  0  1  0  0  0  0  0999 V2000
   -0.1353   -1.1187    0.0000 N   0  0  0  0  0  0  0  0  0
    0.3496   -1.7861    0.0000 N   0  0  0  0  0  0  0  0  0
    1.1342   -1.5312    0.0000 C   0  0  0  0  0  0  0  0  0
    1.8487   -1.9437    0.0000 C   0  0  0  0  0  0  0  0  0
    2.5632   -1.5312    0.0000 C   0  0  0  0  0  0  0  0  0
    2.5632   -0.7062    0.0000 C   0  0  0  0  0  0  0  0  0
    3.2776   -0.2937    0.0000 N   0  0  0  0  0  0  0  0  0
    3.9921   -0.7062    0.0000 C   0  0  0  0  0  0  0  0  0
    3.9921   -1.5312    0.0000 C   0  0  0  0  0  0  0  0  0
    3.2776   -1.9437    0.0000 C   0  0  0  0  0  0  0  0  0
    3.2776    0.5313    0.0000 C   0  0  0  0  0  0  0  0  0
    3.9921    0.9438    0.0000 C   0  0  0  0  0  0  0  0  0
    3.9921    1.7688    0.0000 C   0  0  0  0  0  0  0  0  0
    1.8487   -0.2937    0.0000 C   0  0  0  0  0  0  0  0  0
    1.1342   -0.7062    0.0000 C   0  0  0  0  0  0  0  0  0
    0.3496   -0.4512    0.0000 C   0  0  0  0  0  0  0  0  0
  1  2  4  0  0  0  0
  1 16  4  0  0  0  0
  2  3  4  0  0  0  0
  3  4  1  0  0  0  0
  3 15  4  0  0  0  0
  4  5  1  0  0  0  0
  5  6  1  0  0  0  0
  5 10  1  0  0  0  0
  6  7  1  0  0  0  0
  6 14  1  0  0  0  0
  7  8  1  0  0  0  0
  7 11  1  0  0  0  0
  8  9  1  0  0  0  0
  9 10  1  0  0  0  0
 11 12  1  0  0  0  0
 12 13  1  0  0  0  0
 14 15  1  0  0  0  0
 15 16  4  0  0  0  0
M  STY  1   1 DAT
M  SAL   1  1   1
M  SDT   1 MRV_IMPLICIT_H                                        
M  SDD   1     0.0000    0.0000    DR    ALL  0       0  
M  SED   1 IMPL_H1
M  END
>  <Name_Molregno>
320506

>  <DOPAMINE D1>
7.2

>  <DOPAMINE D2>
6.16

>  <DOPAMINE D3>
7

>  <DOPAMINE D4>
8.01

$$$$
323878
  Marvin  02231216192D 0   1.00000     0.00000     0

 23 26  0  0  1  0  0  0  0  0999 V2000
   -0.7165   -2.4653    0.0000 Cl  0  0  0  0  0  0  0  0  0
    0.0718   -2.7084    0.0000 C   0  0  0  0  0  0  0  0  0
    0.6766   -2.1473    0.0000 C   0  0  0  0  0  0  0  0  0
    1.4649   -2.3905    0.0000 C   0  0  0  0  0  0  0  0  0
    1.9793   -1.7455    0.0000 C   0  0  0  0  0  0  0  0  0
    1.7244   -0.9608    0.0000 O   0  0  0  0  0  0  0  0  0
    2.3918   -0.4759    0.0000 C   0  0  0  0  0  0  0  0  0
    3.0593   -0.9608    0.0000 C   0  0  0  0  0  0  0  0  0
    2.8043   -1.7455    0.0000 C   0  0  0  0  0  0  0  0  0
    3.3187   -2.3905    0.0000 C   0  0  0  0  0  0  0  0  0
    3.1351   -3.1948    0.0000 C   0  0  0  0  0  0  0  0  0
    2.3918   -3.5527    0.0000 O   0  0  0  0  0  0  0  0  0
    1.6485   -3.1948    0.0000 C   0  0  0  0  0  0  0  0  0
    1.0437   -3.7559    0.0000 C   0  0  0  0  0  0  0  0  0
    0.2554   -3.5128    0.0000 C   0  0  0  0  0  0  0  0  0
    3.7399   -3.7559    0.0000 C   0  0  0  0  0  0  0  0  0
    4.5282   -3.5128    0.0000 C   0  0  0  0  0  0  0  0  0
    4.7118   -2.7084    0.0000 C   0  0  0  0  0  0  0  0  0
    4.1070   -2.1473    0.0000 C   0  0  0  0  0  0  0  0  0
    2.3918    0.3491    0.0000 C   0  0  0  0  0  0  0  0  0
    3.1063    0.7616    0.0000 N   0  0  0  0  0  0  0  0  0
    3.1063    1.5866    0.0000 C   0  0  0  0  0  0  0  0  0
    3.8208    0.3491    0.0000 C   0  0  0  0  0  0  0  0  0
  1  2  1  0  0  0  0
  2  3  4  0  0  0  0
  2 15  4  0  0  0  0
  3  4  4  0  0  0  0
  4  5  1  0  0  0  0
  4 13  4  0  0  0  0
  5  6  1  0  0  0  0
  5  9  1  0  0  0  0
  6  7  1  0  0  0  0
  7  8  1  0  0  0  0
  7 20  1  0  0  0  0
  8  9  1  0  0  0  0
  9 10  1  0  0  0  0
 10 11  4  0  0  0  0
 10 19  4  0  0  0  0
 11 12  1  0  0  0  0
 11 16  4  0  0  0  0
 12 13  1  0  0  0  0
 13 14  4  0  0  0  0
 14 15  4  0  0  0  0
 16 17  4  0  0  0  0
 17 18  4  0  0  0  0
 18 19  4  0  0  0  0
 20 21  1  0  0  0  0
 21 22  1  0  0  0  0
 21 23  1  0  0  0  0
M  END
>  <Name_Molregno>
323878

>  <5-HT2A>
8.04

>  <5-HT2C>
8.16

>  <5-HT7>
6.82

>  <Alpha-2A>
7.26

>  <Alpha-2C>
6.88

>  <DOPAMINE D1>
6.84

>  <DOPAMINE D2>
7.7

>  <DOPAMINE D3>
6.97

>  <HISTAMINE H1>
8.11

$$$$
323985
  Marvin  02231216192D 0   1.00000     0.00000     0

 23 26  0  0  1  0  0  0  0  0999 V2000
   -0.7165   -2.4653    0.0000 Br  0  0  0  0  0  0  0  0  0
    0.0718   -2.7084    0.0000 C   0  0  0  0  0  0  0  0  0
    0.6766   -2.1473    0.0000 C   0  0  0  0  0  0  0  0  0
    1.4649   -2.3905    0.0000 C   0  0  0  0  0  0  0  0  0
    1.9793   -1.7455    0.0000 C   0  0  0  0  0  0  0  0  0
    1.7244   -0.9608    0.0000 O   0  0  0  0  0  0  0  0  0
    2.3918   -0.4759    0.0000 C   0  0  0  0  0  0  0  0  0
    3.0593   -0.9608    0.0000 C   0  0  0  0  0  0  0  0  0
    2.8043   -1.7455    0.0000 C   0  0  0  0  0  0  0  0  0
    3.3187   -2.3905    0.0000 C   0  0  0  0  0  0  0  0  0
    3.1351   -3.1948    0.0000 C   0  0  0  0  0  0  0  0  0
    2.3918   -3.5527    0.0000 O   0  0  0  0  0  0  0  0  0
    1.6485   -3.1948    0.0000 C   0  0  0  0  0  0  0  0  0
    1.0437   -3.7559    0.0000 C   0  0  0  0  0  0  0  0  0
    0.2554   -3.5128    0.0000 C   0  0  0  0  0  0  0  0  0
    3.7399   -3.7559    0.0000 C   0  0  0  0  0  0  0  0  0
    4.5282   -3.5128    0.0000 C   0  0  0  0  0  0  0  0  0
    4.7118   -2.7084    0.0000 C   0  0  0  0  0  0  0  0  0
    4.1070   -2.1473    0.0000 C   0  0  0  0  0  0  0  0  0
    2.3918    0.3491    0.0000 C   0  0  0  0  0  0  0  0  0
    3.1063    0.7616    0.0000 N   0  0  0  0  0  0  0  0  0
    3.1063    1.5866    0.0000 C   0  0  0  0  0  0  0  0  0
    3.8208    0.3491    0.0000 C   0  0  0  0  0  0  0  0  0
  1  2  1  0  0  0  0
  2  3  4  0  0  0  0
  2 15  4  0  0  0  0
  3  4  4  0  0  0  0
  4  5  1  0  0  0  0
  4 13  4  0  0  0  0
  5  6  1  0  0  0  0
  5  9  1  0  0  0  0
  6  7  1  0  0  0  0
  7  8  1  0  0  0  0
  7 20  1  0  0  0  0
  8  9  1  0  0  0  0
  9 10  1  0  0  0  0
 10 11  4  0  0  0  0
 10 19  4  0  0  0  0
 11 12  1  0  0  0  0
 11 16  4  0  0  0  0
 12 13  1  0  0  0  0
 13 14  4  0  0  0  0
 14 15  4  0  0  0  0
 16 17  4  0  0  0  0
 17 18  4  0  0  0  0
 18 19  4  0  0  0  0
 20 21  1  0  0  0  0
 21 22  1  0  0  0  0
 21 23  1  0  0  0  0
M  END
>  <Name_Molregno>
323985

>  <5-HT2A>
7.74

>  <5-HT2C>
7.78

>  <5-HT7>
7.46

>  <Alpha-2A>
6.39

>  <Alpha-2C>
6.13

>  <DOPAMINE D1>
6.81

>  <DOPAMINE D2>
6.8

>  <DOPAMINE D3>
7.02

>  <HISTAMINE H1>
7.38

$$$$
323986
  Marvin  02231216192D 0   1.00000     0.00000     0

 23 26  0  0  1  0  0  0  0  0999 V2000
    1.2300    2.6153    0.0000 S   0  0  0  0  0  0  0  0  0
    1.9733    2.2574    0.0000 C   0  0  0  0  0  0  0  0  0
    2.1569    1.4530    0.0000 C   0  0  0  0  0  0  0  0  0
    2.9453    1.2099    0.0000 C   0  0  0  0  0  0  0  0  0
    3.5500    1.7710    0.0000 C   0  0  0  0  0  0  0  0  0
    4.3384    1.5278    0.0000 F   0  0  0  0  0  0  0  0  0
    3.3664    2.5753    0.0000 C   0  0  0  0  0  0  0  0  0
    2.5781    2.8185    0.0000 C   0  0  0  0  0  0  0  0  0
    1.6425    0.8080    0.0000 C   0  0  0  0  0  0  0  0  0
    1.8975    0.0234    0.0000 O   0  0  0  0  0  0  0  0  0
    1.2300   -0.4615    0.0000 C   0  0  0  0  0  0  0  0  0
    0.5626    0.0234    0.0000 C   0  0  0  0  0  0  0  0  0
    0.8175    0.8080    0.0000 C   0  0  0  0  0  0  0  0  0
    0.3032    1.4530    0.0000 C   0  0  0  0  0  0  0  0  0
    0.4867    2.2574    0.0000 C   0  0  0  0  0  0  0  0  0
   -0.1180    2.8185    0.0000 C   0  0  0  0  0  0  0  0  0
   -0.9064    2.5753    0.0000 C   0  0  0  0  0  0  0  0  0
   -1.0900    1.7710    0.0000 C   0  0  0  0  0  0  0  0  0
   -0.4852    1.2099    0.0000 C   0  0  0  0  0  0  0  0  0
    1.2300   -1.2865    0.0000 C   0  0  0  0  0  0  0  0  0
    0.5156   -1.6990    0.0000 N   0  0  0  0  0  0  0  0  0
    0.5156   -2.5240    0.0000 C   0  0  0  0  0  0  0  0  0
   -0.1989   -1.2865    0.0000 C   0  0  0  0  0  0  0  0  0
  1  2  1  0  0  0  0
  1 15  1  0  0  0  0
  2  3  4  0  0  0  0
  2  8  4  0  0  0  0
  3  4  4  0  0  0  0
  3  9  1  0  0  0  0
  4  5  4  0  0  0  0
  5  6  1  0  0  0  0
  5  7  4  0  0  0  0
  7  8  4  0  0  0  0
  9 10  1  0  0  0  0
  9 13  1  0  0  0  0
 10 11  1  0  0  0  0
 11 12  1  0  0  0  0
 11 20  1  0  0  0  0
 12 13  1  0  0  0  0
 13 14  1  0  0  0  0
 14 15  4  0  0  0  0
 14 19  4  0  0  0  0
 15 16  4  0  0  0  0
 16 17  4  0  0  0  0
 17 18  4  0  0  0  0
 18 19  4  0  0  0  0
 20 21  1  0  0  0  0
 21 22  1  0  0  0  0
 21 23  1  0  0  0  0
M  END
>  <Name_Molregno>
323986

>  <5-HT2A>
8.89

>  <5-HT2C>
9.27

>  <5-HT7>
8.01

>  <Alpha-2A>
7.06

>  <Alpha-2C>
7.13

>  <DOPAMINE D1>
8.04

>  <DOPAMINE D2>
8.31

>  <DOPAMINE D3>
8.14

>  <HISTAMINE H1>
9.07

$$$$
324778
  Marvin  02231216192D 0   1.00000     0.00000     0

 22 25  0  0  1  0  0  0  0  0999 V2000
    0.2576    0.9399    0.0000 O   0  0  0  0  0  0  0  0  0
    0.5126    0.1553    0.0000 C   0  0  0  0  0  0  0  0  0
    1.3376    0.1553    0.0000 C   0  0  0  0  0  0  0  0  0
    1.5925    0.9399    0.0000 C   0  0  0  0  0  0  0  0  0
    0.9251    1.4248    0.0000 C   0  0  0  0  0  0  0  0  0
    0.9251    2.2498    0.0000 C   0  0  0  0  0  0  0  0  0
    1.6395    2.6623    0.0000 N   0  0  0  0  0  0  0  0  0
    1.6395    3.4873    0.0000 C   0  0  0  0  0  0  0  0  0
    2.3540    2.2498    0.0000 C   0  0  0  0  0  0  0  0  0
    1.8519   -0.4897    0.0000 C   0  0  0  0  0  0  0  0  0
    1.6684   -1.2940    0.0000 C   0  0  0  0  0  0  0  0  0
    0.9251   -1.6520    0.0000 C   0  0  0  0  0  0  0  0  0
    0.1818   -1.2940    0.0000 C   0  0  0  0  0  0  0  0  0
   -0.0018   -0.4897    0.0000 C   0  0  0  0  0  0  0  0  0
   -0.7902   -0.2466    0.0000 C   0  0  0  0  0  0  0  0  0
   -1.3949   -0.8077    0.0000 C   0  0  0  0  0  0  0  0  0
   -1.2114   -1.6120    0.0000 C   0  0  0  0  0  0  0  0  0
   -0.4230   -1.8552    0.0000 C   0  0  0  0  0  0  0  0  0
    2.2731   -1.8552    0.0000 C   0  0  0  0  0  0  0  0  0
    3.0615   -1.6120    0.0000 C   0  0  0  0  0  0  0  0  0
    3.2451   -0.8077    0.0000 C   0  0  0  0  0  0  0  0  0
    2.6403   -0.2466    0.0000 C   0  0  0  0  0  0  0  0  0
  1  2  1  0  0  0  0
  1  5  1  0  0  0  0
  2  3  1  0  0  0  0
  2 14  1  0  0  0  0
  3  4  1  0  0  0  0
  3 10  1  0  0  0  0
  4  5  1  0  0  0  0
  5  6  1  0  0  0  0
  6  7  1  0  0  0  0
  7  8  1  0  0  0  0
  7  9  1  0  0  0  0
 10 11  4  0  0  0  0
 10 22  4  0  0  0  0
 11 12  1  0  0  0  0
 11 19  4  0  0  0  0
 12 13  1  0  0  0  0
 13 14  4  0  0  0  0
 13 18  4  0  0  0  0
 14 15  4  0  0  0  0
 15 16  4  0  0  0  0
 16 17  4  0  0  0  0
 17 18  4  0  0  0  0
 19 20  4  0  0  0  0
 20 21  4  0  0  0  0
 21 22  4  0  0  0  0
M  END
>  <Name_Molregno>
324778

>  <5-HT2A>
8.6

>  <5-HT2C>
9.03

>  <5-HT7>
7.89

>  <Alpha-2A>
6.9

>  <Alpha-2C>
7.16

>  <DOPAMINE D1>
7.2

>  <DOPAMINE D2>
7.21

>  <DOPAMINE D3>
7.08

>  <HISTAMINE H1>
9.37

$$$$
327069
  Marvin  02231216192D 0   1.00000     0.00000     0

 31 34  0  0  0  0  0  0  0  0999 V2000
    4.9165    5.1026    0.0000 Cl  0  0  0  0  0  0  0  0  0
    4.9165    4.2776    0.0000 C   0  0  0  0  0  0  0  0  0
    5.6310    3.8651    0.0000 C   0  0  0  0  0  0  0  0  0
    5.6310    3.0401    0.0000 C   0  0  0  0  0  0  0  0  0
    4.9165    2.6276    0.0000 C   0  0  0  0  0  0  0  0  0
    4.9165    1.8026    0.0000 N   0  0  0  0  0  0  0  0  0
    5.6310    1.3901    0.0000 C   0  0  0  0  0  0  0  0  0
    5.6310    0.5651    0.0000 C   0  0  0  0  0  0  0  0  0
    4.9165    0.1526    0.0000 N   0  0  0  0  0  0  0  0  0
    4.2021    0.5651    0.0000 C   0  0  0  0  0  0  0  0  0
    4.2021    1.3901    0.0000 C   0  0  0  0  0  0  0  0  0
    4.9165   -0.6724    0.0000 C   0  0  0  0  0  0  0  0  0
    4.2021   -1.0849    0.0000 O   0  0  0  0  0  0  0  0  0
    5.6310   -1.0849    0.0000 N   0  0  0  0  0  0  0  0  0
    5.6310   -1.9099    0.0000 C   0  0  0  0  0  0  0  0  0
    6.3455   -2.3224    0.0000 C   0  0  0  0  0  0  0  0  0
    6.3455   -3.1474    0.0000 C   0  0  0  0  0  0  0  0  0
    7.0599   -3.5599    0.0000 N   0  0  0  0  0  0  0  0  0
    7.7744   -3.1474    0.0000 C   0  0  0  0  0  0  0  0  0
    8.4889   -3.5599    0.0000 C   0  0  0  0  0  0  0  0  0
    8.4889   -4.3849    0.0000 N   0  0  0  0  0  0  0  0  0
    7.7744   -4.7974    0.0000 C   0  0  0  0  0  0  0  0  0
    7.0599   -4.3849    0.0000 C   0  0  0  0  0  0  0  0  0
    9.2034   -4.7974    0.0000 C   0  0  0  0  0  0  0  0  0
    5.6310   -3.5599    0.0000 C   0  0  0  0  0  0  0  0  0
    5.6310   -4.3849    0.0000 O   0  0  0  0  0  0  0  0  0
    4.9165   -4.7974    0.0000 C   0  0  0  0  0  0  0  0  0
    4.9165   -3.1474    0.0000 C   0  0  0  0  0  0  0  0  0
    4.9165   -2.3224    0.0000 C   0  0  0  0  0  0  0  0  0
    4.2021    3.0401    0.0000 C   0  0  0  0  0  0  0  0  0
    4.2021    3.8651    0.0000 C   0  0  0  0  0  0  0  0  0
  1  2  1  0  0  0  0
  2  3  4  0  0  0  0
  2 31  4  0  0  0  0
  3  4  4  0  0  0  0
  4  5  4  0  0  0  0
  5  6  1  0  0  0  0
  5 30  4  0  0  0  0
  6  7  1  0  0  0  0
  6 11  1  0  0  0  0
  7  8  1  0  0  0  0
  8  9  1  0  0  0  0
  9 10  1  0  0  0  0
  9 12  1  0  0  0  0
 10 11  1  0  0  0  0
 12 13  2  0  0  0  0
 12 14  1  0  0  0  0
 14 15  1  0  0  0  0
 15 16  4  0  0  0  0
 15 29  4  0  0  0  0
 16 17  4  0  0  0  0
 17 18  1  0  0  0  0
 17 25  4  0  0  0  0
 18 19  1  0  0  0  0
 18 23  1  0  0  0  0
 19 20  1  0  0  0  0
 20 21  1  0  0  0  0
 21 22  1  0  0  0  0
 21 24  1  0  0  0  0
 22 23  1  0  0  0  0
 25 26  1  0  0  0  0
 25 28  4  0  0  0  0
 26 27  1  0  0  0  0
 28 29  4  0  0  0  0
 30 31  4  0  0  0  0
M  END
>  <Name_Molregno>
327069

>  <5-HT1A>
7.28

>  <5-HT1B>
8.74

>  <5-HT1D>
8.19

>  <5-HT2A>
6

>  <5-HT2C>
6.57

>  <5-HT6>
5.29

>  <5-HT7>
5

>  <DOPAMINE D1>
5

>  <DOPAMINE D2>
5

>  <DOPAMINE D3>
5

>  <DOPAMINE D4>
5

>  <DOPAMINE D5>
5

>  <HISTAMINE H1>
5

>  <Muscarinic acetylcholine receptor M1>
5

>  <Muscarinic acetylcholine receptor M2>
5

>  <Muscarinic acetylcholine receptor M3>
5

>  <Muscarinic acetylcholine receptor M4>
5

>  <Muscarinic acetylcholine receptor M5>
5

$$$$
327077
  Marvin  02231216192D 0   1.00000     0.00000     0

 31 34  0  0  0  0  0  0  0  0999 V2000
    4.9165    5.1026    0.0000 F   0  0  0  0  0  0  0  0  0
    4.9165    4.2776    0.0000 C   0  0  0  0  0  0  0  0  0
    5.6310    3.8651    0.0000 C   0  0  0  0  0  0  0  0  0
    5.6310    3.0401    0.0000 C   0  0  0  0  0  0  0  0  0
    4.9165    2.6276    0.0000 C   0  0  0  0  0  0  0  0  0
    4.9165    1.8026    0.0000 N   0  0  0  0  0  0  0  0  0
    5.6310    1.3901    0.0000 C   0  0  0  0  0  0  0  0  0
    5.6310    0.5651    0.0000 C   0  0  0  0  0  0  0  0  0
    4.9165    0.1526    0.0000 N   0  0  0  0  0  0  0  0  0
    4.2021    0.5651    0.0000 C   0  0  0  0  0  0  0  0  0
    4.2021    1.3901    0.0000 C   0  0  0  0  0  0  0  0  0
    4.9165   -0.6724    0.0000 C   0  0  0  0  0  0  0  0  0
    4.2021   -1.0849    0.0000 O   0  0  0  0  0  0  0  0  0
    5.6310   -1.0849    0.0000 N   0  0  0  0  0  0  0  0  0
    5.6310   -1.9099    0.0000 C   0  0  0  0  0  0  0  0  0
    6.3455   -2.3224    0.0000 C   0  0  0  0  0  0  0  0  0
    6.3455   -3.1474    0.0000 C   0  0  0  0  0  0  0  0  0
    7.0599   -3.5599    0.0000 N   0  0  0  0  0  0  0  0  0
    7.7744   -3.1474    0.0000 C   0  0  0  0  0  0  0  0  0
    8.4889   -3.5599    0.0000 C   0  0  0  0  0  0  0  0  0
    8.4889   -4.3849    0.0000 N   0  0  0  0  0  0  0  0  0
    7.7744   -4.7974    0.0000 C   0  0  0  0  0  0  0  0  0
    7.0599   -4.3849    0.0000 C   0  0  0  0  0  0  0  0  0
    9.2034   -4.7974    0.0000 C   0  0  0  0  0  0  0  0  0
    5.6310   -3.5599    0.0000 C   0  0  0  0  0  0  0  0  0
    5.6310   -4.3849    0.0000 O   0  0  0  0  0  0  0  0  0
    4.9165   -4.7974    0.0000 C   0  0  0  0  0  0  0  0  0
    4.9165   -3.1474    0.0000 C   0  0  0  0  0  0  0  0  0
    4.9165   -2.3224    0.0000 C   0  0  0  0  0  0  0  0  0
    4.2021    3.0401    0.0000 C   0  0  0  0  0  0  0  0  0
    4.2021    3.8651    0.0000 C   0  0  0  0  0  0  0  0  0
  1  2  1  0  0  0  0
  2  3  4  0  0  0  0
  2 31  4  0  0  0  0
  3  4  4  0  0  0  0
  4  5  4  0  0  0  0
  5  6  1  0  0  0  0
  5 30  4  0  0  0  0
  6  7  1  0  0  0  0
  6 11  1  0  0  0  0
  7  8  1  0  0  0  0
  8  9  1  0  0  0  0
  9 10  1  0  0  0  0
  9 12  1  0  0  0  0
 10 11  1  0  0  0  0
 12 13  2  0  0  0  0
 12 14  1  0  0  0  0
 14 15  1  0  0  0  0
 15 16  4  0  0  0  0
 15 29  4  0  0  0  0
 16 17  4  0  0  0  0
 17 18  1  0  0  0  0
 17 25  4  0  0  0  0
 18 19  1  0  0  0  0
 18 23  1  0  0  0  0
 19 20  1  0  0  0  0
 20 21  1  0  0  0  0
 21 22  1  0  0  0  0
 21 24  1  0  0  0  0
 22 23  1  0  0  0  0
 25 26  1  0  0  0  0
 25 28  4  0  0  0  0
 26 27  1  0  0  0  0
 28 29  4  0  0  0  0
 30 31  4  0  0  0  0
M  END
>  <Name_Molregno>
327077

>  <5-HT1A>
5.97

>  <5-HT1B>
7.42

>  <5-HT1D>
6.77

>  <5-HT2A>
5.35

>  <5-HT2C>
5

>  <5-HT6>
5

>  <5-HT7>
5

>  <DOPAMINE D1>
5

>  <DOPAMINE D2>
5

>  <DOPAMINE D3>
5

>  <DOPAMINE D4>
5

>  <DOPAMINE D5>
5

>  <HISTAMINE H1>
5

>  <Muscarinic acetylcholine receptor M1>
5

>  <Muscarinic acetylcholine receptor M2>
5

>  <Muscarinic acetylcholine receptor M3>
5

>  <Muscarinic acetylcholine receptor M4>
5

>  <Muscarinic acetylcholine receptor M5>
5

$$$$
327082
  Marvin  02231216192D 0   1.00000     0.00000     0

 36 40  0  0  0  0  0  0  0  0999 V2000
   -4.3490    4.5404    0.0000 O   0  0  0  0  0  0  0  0  0
   -5.0635    4.9529    0.0000 C   0  0  0  0  0  0  0  0  0
   -4.3490    3.7154    0.0000 C   0  0  0  0  0  0  0  0  0
   -3.6345    3.3029    0.0000 C   0  0  0  0  0  0  0  0  0
   -3.6345    2.4779    0.0000 C   0  0  0  0  0  0  0  0  0
   -4.3490    2.0654    0.0000 C   0  0  0  0  0  0  0  0  0
   -4.3490    1.2404    0.0000 N   0  0  0  0  0  0  0  0  0
   -3.6345    0.8279    0.0000 C   0  0  0  0  0  0  0  0  0
   -2.9201    1.2404    0.0000 O   0  0  0  0  0  0  0  0  0
   -3.6345    0.0029    0.0000 N   0  0  0  0  0  0  0  0  0
   -2.9201   -0.4096    0.0000 C   0  0  0  0  0  0  0  0  0
   -2.9201   -1.2346    0.0000 C   0  0  0  0  0  0  0  0  0
   -3.6345   -1.6471    0.0000 N   0  0  0  0  0  0  0  0  0
   -4.3490   -1.2346    0.0000 C   0  0  0  0  0  0  0  0  0
   -4.3490   -0.4096    0.0000 C   0  0  0  0  0  0  0  0  0
   -3.6345   -2.4721    0.0000 C   0  0  0  0  0  0  0  0  0
   -2.9201   -2.8846    0.0000 C   0  0  0  0  0  0  0  0  0
   -2.9201   -3.7096    0.0000 C   0  0  0  0  0  0  0  0  0
   -3.6345   -4.1221    0.0000 C   0  0  0  0  0  0  0  0  0
   -4.3490   -3.7096    0.0000 C   0  0  0  0  0  0  0  0  0
   -4.3490   -2.8846    0.0000 C   0  0  0  0  0  0  0  0  0
   -3.6345   -4.9471    0.0000 C   0  0  0  0  0  0  0  0  0
   -2.9201   -5.3596    0.0000 C   0  0  0  0  0  0  0  0  0
   -2.9201   -6.1846    0.0000 C   0  0  0  0  0  0  0  0  0
   -3.6345   -6.5971    0.0000 C   0  0  0  0  0  0  0  0  0
   -4.3490   -6.1846    0.0000 C   0  0  0  0  0  0  0  0  0
   -4.3490   -5.3596    0.0000 C   0  0  0  0  0  0  0  0  0
   -5.0635    2.4779    0.0000 C   0  0  0  0  0  0  0  0  0
   -5.0635    3.3029    0.0000 C   0  0  0  0  0  0  0  0  0
   -5.7779    3.7154    0.0000 N   0  0  0  0  0  0  0  0  0
   -6.4924    3.3029    0.0000 C   0  0  0  0  0  0  0  0  0
   -7.2069    3.7154    0.0000 C   0  0  0  0  0  0  0  0  0
   -7.2069    4.5404    0.0000 N   0  0  0  0  0  0  0  0  0
   -6.4924    4.9529    0.0000 C   0  0  0  0  0  0  0  0  0
   -5.7779    4.5404    0.0000 C   0  0  0  0  0  0  0  0  0
   -7.9214    4.9529    0.0000 C   0  0  0  0  0  0  0  0  0
  1  2  1  0  0  0  0
  1  3  1  0  0  0  0
  3  4  4  0  0  0  0
  3 29  4  0  0  0  0
  4  5  4  0  0  0  0
  5  6  4  0  0  0  0
  6  7  1  0  0  0  0
  6 28  4  0  0  0  0
  7  8  1  0  0  0  0
  8  9  2  0  0  0  0
  8 10  1  0  0  0  0
 10 11  1  0  0  0  0
 10 15  1  0  0  0  0
 11 12  1  0  0  0  0
 12 13  1  0  0  0  0
 13 14  1  0  0  0  0
 13 16  1  0  0  0  0
 14 15  1  0  0  0  0
 16 17  4  0  0  0  0
 16 21  4  0  0  0  0
 17 18  4  0  0  0  0
 18 19  4  0  0  0  0
 19 20  4  0  0  0  0
 19 22  1  0  0  0  0
 20 21  4  0  0  0  0
 22 23  4  0  0  0  0
 22 27  4  0  0  0  0
 23 24  4  0  0  0  0
 24 25  4  0  0  0  0
 25 26  4  0  0  0  0
 26 27  4  0  0  0  0
 28 29  4  0  0  0  0
 29 30  1  0  0  0  0
 30 31  1  0  0  0  0
 30 35  1  0  0  0  0
 31 32  1  0  0  0  0
 32 33  1  0  0  0  0
 33 34  1  0  0  0  0
 33 36  1  0  0  0  0
 34 35  1  0  0  0  0
M  END
>  <Name_Molregno>
327082

>  <5-HT1A>
6.39

>  <5-HT1B>
7.86

>  <5-HT1D>
6.68

>  <5-HT2A>
6.77

>  <5-HT2C>
8.19

>  <5-HT6>
5.84

>  <5-HT7>
5

>  <DOPAMINE D1>
5

>  <DOPAMINE D2>
5

>  <DOPAMINE D3>
5

>  <DOPAMINE D4>
5

>  <DOPAMINE D5>
5

>  <HISTAMINE H1>
5

>  <Muscarinic acetylcholine receptor M1>
5

>  <Muscarinic acetylcholine receptor M2>
5

>  <Muscarinic acetylcholine receptor M3>
5

>  <Muscarinic acetylcholine receptor M4>
5

>  <Muscarinic acetylcholine receptor M5>
5

$$$$
327083
  Marvin  02231216192D 0   1.00000     0.00000     0

 34 37  0  0  0  0  0  0  0  0999 V2000
    5.2566    5.4075    0.0000 F   0  0  0  0  0  0  0  0  0
    5.2566    4.5825    0.0000 C   0  0  0  0  0  0  0  0  0
    4.4316    4.5825    0.0000 F   0  0  0  0  0  0  0  0  0
    6.0816    4.5825    0.0000 F   0  0  0  0  0  0  0  0  0
    5.2566    3.7575    0.0000 C   0  0  0  0  0  0  0  0  0
    5.9711    3.3450    0.0000 C   0  0  0  0  0  0  0  0  0
    5.9711    2.5200    0.0000 C   0  0  0  0  0  0  0  0  0
    5.2566    2.1075    0.0000 C   0  0  0  0  0  0  0  0  0
    5.2566    1.2825    0.0000 N   0  0  0  0  0  0  0  0  0
    5.9711    0.8700    0.0000 C   0  0  0  0  0  0  0  0  0
    5.9711    0.0450    0.0000 C   0  0  0  0  0  0  0  0  0
    5.2566   -0.3675    0.0000 N   0  0  0  0  0  0  0  0  0
    4.5421    0.0450    0.0000 C   0  0  0  0  0  0  0  0  0
    4.5421    0.8700    0.0000 C   0  0  0  0  0  0  0  0  0
    5.2566   -1.1925    0.0000 C   0  0  0  0  0  0  0  0  0
    4.5421   -1.6050    0.0000 O   0  0  0  0  0  0  0  0  0
    5.9711   -1.6050    0.0000 N   0  0  0  0  0  0  0  0  0
    5.9711   -2.4300    0.0000 C   0  0  0  0  0  0  0  0  0
    6.6855   -2.8425    0.0000 C   0  0  0  0  0  0  0  0  0
    6.6855   -3.6675    0.0000 C   0  0  0  0  0  0  0  0  0
    7.4000   -4.0800    0.0000 N   0  0  0  0  0  0  0  0  0
    8.1145   -3.6675    0.0000 C   0  0  0  0  0  0  0  0  0
    8.8289   -4.0800    0.0000 C   0  0  0  0  0  0  0  0  0
    8.8289   -4.9050    0.0000 N   0  0  0  0  0  0  0  0  0
    8.1145   -5.3175    0.0000 C   0  0  0  0  0  0  0  0  0
    7.4000   -4.9050    0.0000 C   0  0  0  0  0  0  0  0  0
    9.5434   -5.3175    0.0000 C   0  0  0  0  0  0  0  0  0
    5.9711   -4.0800    0.0000 C   0  0  0  0  0  0  0  0  0
    5.9711   -4.9050    0.0000 O   0  0  0  0  0  0  0  0  0
    5.2566   -5.3175    0.0000 C   0  0  0  0  0  0  0  0  0
    5.2566   -3.6675    0.0000 C   0  0  0  0  0  0  0  0  0
    5.2566   -2.8425    0.0000 C   0  0  0  0  0  0  0  0  0
    4.5421    2.5200    0.0000 C   0  0  0  0  0  0  0  0  0
    4.5421    3.3450    0.0000 C   0  0  0  0  0  0  0  0  0
  1  2  1  0  0  0  0
  2  3  1  0  0  0  0
  2  4  1  0  0  0  0
  2  5  1  0  0  0  0
  5  6  4  0  0  0  0
  5 34  4  0  0  0  0
  6  7  4  0  0  0  0
  7  8  4  0  0  0  0
  8  9  1  0  0  0  0
  8 33  4  0  0  0  0
  9 10  1  0  0  0  0
  9 14  1  0  0  0  0
 10 11  1  0  0  0  0
 11 12  1  0  0  0  0
 12 13  1  0  0  0  0
 12 15  1  0  0  0  0
 13 14  1  0  0  0  0
 15 16  2  0  0  0  0
 15 17  1  0  0  0  0
 17 18  1  0  0  0  0
 18 19  4  0  0  0  0
 18 32  4  0  0  0  0
 19 20  4  0  0  0  0
 20 21  1  0  0  0  0
 20 28  4  0  0  0  0
 21 22  1  0  0  0  0
 21 26  1  0  0  0  0
 22 23  1  0  0  0  0
 23 24  1  0  0  0  0
 24 25  1  0  0  0  0
 24 27  1  0  0  0  0
 25 26  1  0  0  0  0
 28 29  1  0  0  0  0
 28 31  4  0  0  0  0
 29 30  1  0  0  0  0
 31 32  4  0  0  0  0
 33 34  4  0  0  0  0
M  END
>  <Name_Molregno>
327083

>  <5-HT1A>
6.42

>  <5-HT1B>
7.55

>  <5-HT1D>
6.46

>  <5-HT2A>
6.21

>  <5-HT2C>
5.55

>  <5-HT6>
5.54

>  <5-HT7>
5

>  <DOPAMINE D1>
5

>  <DOPAMINE D2>
5

>  <DOPAMINE D3>
5

>  <DOPAMINE D4>
5

>  <DOPAMINE D5>
5

>  <HISTAMINE H1>
5

>  <Muscarinic acetylcholine receptor M1>
5

>  <Muscarinic acetylcholine receptor M2>
5

>  <Muscarinic acetylcholine receptor M3>
5

>  <Muscarinic acetylcholine receptor M4>
5

>  <Muscarinic acetylcholine receptor M5>
5

$$$$
327090
  Marvin  02231216192D 0   1.00000     0.00000     0

 32 35  0  0  0  0  0  0  0  0999 V2000
   -6.3746    6.5338    0.0000 S   0  0  0  0  0  0  0  0  0
   -7.0891    6.9463    0.0000 C   0  0  0  0  0  0  0  0  0
   -6.3746    5.7088    0.0000 C   0  0  0  0  0  0  0  0  0
   -5.6602    5.2963    0.0000 C   0  0  0  0  0  0  0  0  0
   -5.6602    4.4713    0.0000 C   0  0  0  0  0  0  0  0  0
   -6.3746    4.0588    0.0000 C   0  0  0  0  0  0  0  0  0
   -6.3746    3.2338    0.0000 N   0  0  0  0  0  0  0  0  0
   -5.6602    2.8213    0.0000 C   0  0  0  0  0  0  0  0  0
   -5.6602    1.9963    0.0000 C   0  0  0  0  0  0  0  0  0
   -6.3746    1.5838    0.0000 N   0  0  0  0  0  0  0  0  0
   -7.0891    1.9963    0.0000 C   0  0  0  0  0  0  0  0  0
   -7.0891    2.8213    0.0000 C   0  0  0  0  0  0  0  0  0
   -6.3746    0.7588    0.0000 C   0  0  0  0  0  0  0  0  0
   -7.0891    0.3463    0.0000 O   0  0  0  0  0  0  0  0  0
   -5.6602    0.3463    0.0000 N   0  0  0  0  0  0  0  0  0
   -5.6602   -0.4787    0.0000 C   0  0  0  0  0  0  0  0  0
   -4.9457   -0.8912    0.0000 C   0  0  0  0  0  0  0  0  0
   -4.9457   -1.7162    0.0000 C   0  0  0  0  0  0  0  0  0
   -4.2312   -2.1287    0.0000 N   0  0  0  0  0  0  0  0  0
   -3.5167   -1.7162    0.0000 C   0  0  0  0  0  0  0  0  0
   -2.8023   -2.1287    0.0000 C   0  0  0  0  0  0  0  0  0
   -2.8023   -2.9537    0.0000 N   0  0  0  0  0  0  0  0  0
   -3.5167   -3.3662    0.0000 C   0  0  0  0  0  0  0  0  0
   -4.2312   -2.9537    0.0000 C   0  0  0  0  0  0  0  0  0
   -2.0878   -3.3662    0.0000 C   0  0  0  0  0  0  0  0  0
   -5.6602   -2.1287    0.0000 C   0  0  0  0  0  0  0  0  0
   -5.6602   -2.9537    0.0000 O   0  0  0  0  0  0  0  0  0
   -6.3746   -3.3662    0.0000 C   0  0  0  0  0  0  0  0  0
   -6.3746   -1.7162    0.0000 C   0  0  0  0  0  0  0  0  0
   -6.3746   -0.8912    0.0000 C   0  0  0  0  0  0  0  0  0
   -7.0891    4.4713    0.0000 C   0  0  0  0  0  0  0  0  0
   -7.0891    5.2963    0.0000 C   0  0  0  0  0  0  0  0  0
  1  2  1  0  0  0  0
  1  3  1  0  0  0  0
  3  4  4  0  0  0  0
  3 32  4  0  0  0  0
  4  5  4  0  0  0  0
  5  6  4  0  0  0  0
  6  7  1  0  0  0  0
  6 31  4  0  0  0  0
  7  8  1  0  0  0  0
  7 12  1  0  0  0  0
  8  9  1  0  0  0  0
  9 10  1  0  0  0  0
 10 11  1  0  0  0  0
 10 13  1  0  0  0  0
 11 12  1  0  0  0  0
 13 14  2  0  0  0  0
 13 15  1  0  0  0  0
 15 16  1  0  0  0  0
 16 17  4  0  0  0  0
 16 30  4  0  0  0  0
 17 18  4  0  0  0  0
 18 19  1  0  0  0  0
 18 26  4  0  0  0  0
 19 20  1  0  0  0  0
 19 24  1  0  0  0  0
 20 21  1  0  0  0  0
 21 22  1  0  0  0  0
 22 23  1  0  0  0  0
 22 25  1  0  0  0  0
 23 24  1  0  0  0  0
 26 27  1  0  0  0  0
 26 29  4  0  0  0  0
 27 28  1  0  0  0  0
 29 30  4  0  0  0  0
 31 32  4  0  0  0  0
M  END
>  <Name_Molregno>
327090

>  <5-HT1A>
6.05

>  <5-HT1B>
7.78

>  <5-HT1D>
6.48

>  <5-HT2A>
5.87

>  <5-HT2C>
5.94

>  <5-HT6>
5

>  <5-HT7>
5

>  <DOPAMINE D1>
5

>  <DOPAMINE D2>
5

>  <DOPAMINE D3>
5

>  <DOPAMINE D4>
5

>  <DOPAMINE D5>
5

>  <HISTAMINE H1>
5

>  <Muscarinic acetylcholine receptor M1>
5

>  <Muscarinic acetylcholine receptor M2>
5

>  <Muscarinic acetylcholine receptor M3>
5

>  <Muscarinic acetylcholine receptor M4>
5

>  <Muscarinic acetylcholine receptor M5>
5

$$$$
327091
  Marvin  02231216192D 0   1.00000     0.00000     0

 32 35  0  0  0  0  0  0  0  0999 V2000
    3.7835    3.5848    0.0000 O   0  0  0  0  0  0  0  0  0
    3.0690    3.9973    0.0000 C   0  0  0  0  0  0  0  0  0
    3.7835    2.7598    0.0000 C   0  0  0  0  0  0  0  0  0
    4.4980    2.3473    0.0000 C   0  0  0  0  0  0  0  0  0
    4.4980    1.5223    0.0000 C   0  0  0  0  0  0  0  0  0
    3.7835    1.1098    0.0000 C   0  0  0  0  0  0  0  0  0
    3.7835    0.2848    0.0000 N   0  0  0  0  0  0  0  0  0
    4.4980   -0.1277    0.0000 C   0  0  0  0  0  0  0  0  0
    5.2124    0.2848    0.0000 O   0  0  0  0  0  0  0  0  0
    4.4980   -0.9527    0.0000 C   0  0  0  0  0  0  0  0  0
    5.2124   -1.3652    0.0000 C   0  0  0  0  0  0  0  0  0
    5.2124   -2.1902    0.0000 C   0  0  0  0  0  0  0  0  0
    4.4980   -2.6027    0.0000 N   0  0  0  0  0  0  0  0  0
    3.7835   -2.1902    0.0000 C   0  0  0  0  0  0  0  0  0
    3.7835   -1.3652    0.0000 C   0  0  0  0  0  0  0  0  0
    4.4980   -3.4277    0.0000 C   0  0  0  0  0  0  0  0  0
    5.2124   -3.8402    0.0000 C   0  0  0  0  0  0  0  0  0
    5.2124   -4.6652    0.0000 C   0  0  0  0  0  0  0  0  0
    4.4980   -5.0777    0.0000 C   0  0  0  0  0  0  0  0  0
    3.7835   -4.6652    0.0000 C   0  0  0  0  0  0  0  0  0
    3.7835   -3.8402    0.0000 C   0  0  0  0  0  0  0  0  0
    3.0690   -3.4277    0.0000 O   0  0  0  0  0  0  0  0  0
    2.3546   -3.8402    0.0000 C   0  0  0  0  0  0  0  0  0
    3.0690    1.5223    0.0000 C   0  0  0  0  0  0  0  0  0
    3.0690    2.3473    0.0000 C   0  0  0  0  0  0  0  0  0
    2.3546    2.7598    0.0000 N   0  0  0  0  0  0  0  0  0
    1.6401    2.3473    0.0000 C   0  0  0  0  0  0  0  0  0
    0.9256    2.7598    0.0000 C   0  0  0  0  0  0  0  0  0
    0.9256    3.5848    0.0000 N   0  0  0  0  0  0  0  0  0
    1.6401    3.9973    0.0000 C   0  0  0  0  0  0  0  0  0
    2.3546    3.5848    0.0000 C   0  0  0  0  0  0  0  0  0
    0.2111    3.9973    0.0000 C   0  0  0  0  0  0  0  0  0
  1  2  1  0  0  0  0
  1  3  1  0  0  0  0
  3  4  4  0  0  0  0
  3 25  4  0  0  0  0
  4  5  4  0  0  0  0
  5  6  4  0  0  0  0
  6  7  1  0  0  0  0
  6 24  4  0  0  0  0
  7  8  1  0  0  0  0
  8  9  2  0  0  0  0
  8 10  1  0  0  0  0
 10 11  1  0  0  0  0
 10 15  1  0  0  0  0
 11 12  1  0  0  0  0
 12 13  1  0  0  0  0
 13 14  1  0  0  0  0
 13 16  1  0  0  0  0
 14 15  1  0  0  0  0
 16 17  4  0  0  0  0
 16 21  4  0  0  0  0
 17 18  4  0  0  0  0
 18 19  4  0  0  0  0
 19 20  4  0  0  0  0
 20 21  4  0  0  0  0
 21 22  1  0  0  0  0
 22 23  1  0  0  0  0
 24 25  4  0  0  0  0
 25 26  1  0  0  0  0
 26 27  1  0  0  0  0
 26 31  1  0  0  0  0
 27 28  1  0  0  0  0
 28 29  1  0  0  0  0
 29 30  1  0  0  0  0
 29 32  1  0  0  0  0
 30 31  1  0  0  0  0
M  END
>  <Name_Molregno>
327091

>  <5-HT1A>
7.81

>  <5-HT1B>
8.01

>  <5-HT1D>
7.81

>  <5-HT2A>
5

>  <5-HT2C>
5

>  <DOPAMINE D1>
5

>  <DOPAMINE D2>
5

>  <DOPAMINE D3>
5

>  <DOPAMINE D4>
5

>  <DOPAMINE D5>
5

>  <HISTAMINE H1>
5

>  <Muscarinic acetylcholine receptor M1>
5

>  <Muscarinic acetylcholine receptor M2>
5

>  <Muscarinic acetylcholine receptor M3>
5

>  <Muscarinic acetylcholine receptor M4>
5

>  <Muscarinic acetylcholine receptor M5>
5

$$$$
330283
  Marvin  02231216192D 0   1.00000     0.00000     0

 31 34  0  0  0  0  0  0  0  0999 V2000
    0.1076    0.0239    0.0000 Cl  0  0  0  0  0  0  0  0  0
    0.1076   -0.8011    0.0000 C   0  0  0  0  0  0  0  0  0
    0.8221   -1.2136    0.0000 C   0  0  0  0  0  0  0  0  0
    0.8221   -2.0386    0.0000 C   0  0  0  0  0  0  0  0  0
    0.1076   -2.4511    0.0000 C   0  0  0  0  0  0  0  0  0
   -0.6069   -2.0386    0.0000 C   0  0  0  0  0  0  0  0  0
   -0.6069   -1.2136    0.0000 C   0  0  0  0  0  0  0  0  0
   -1.3213   -0.8011    0.0000 N   0  0  0  0  0  0  0  0  0
   -2.0358   -1.2136    0.0000 C   0  0  0  0  0  0  0  0  0
   -2.7503   -0.8011    0.0000 C   0  0  0  0  0  0  0  0  0
   -2.7503    0.0239    0.0000 N   0  0  0  0  0  0  0  0  0
   -2.0358    0.4364    0.0000 C   0  0  0  0  0  0  0  0  0
   -1.3213    0.0239    0.0000 C   0  0  0  0  0  0  0  0  0
   -3.4647    0.4364    0.0000 C   0  0  0  0  0  0  0  0  0
   -3.4647    1.2614    0.0000 O   0  0  0  0  0  0  0  0  0
   -4.1792    0.0239    0.0000 N   0  0  0  0  0  0  0  0  0
   -4.8937    0.4364    0.0000 C   0  0  0  0  0  0  0  0  0
   -5.6082    0.0239    0.0000 C   0  0  0  0  0  0  0  0  0
   -6.3226    0.4364    0.0000 C   0  0  0  0  0  0  0  0  0
   -7.0371    0.0239    0.0000 N   0  0  0  0  0  0  0  0  0
   -7.0371   -0.8011    0.0000 C   0  0  0  0  0  0  0  0  0
   -7.7516   -1.2136    0.0000 C   0  0  0  0  0  0  0  0  0
   -8.4660   -0.8011    0.0000 N   0  0  0  0  0  0  0  0  0
   -8.4660    0.0239    0.0000 C   0  0  0  0  0  0  0  0  0
   -7.7516    0.4364    0.0000 C   0  0  0  0  0  0  0  0  0
   -9.1805   -1.2136    0.0000 C   0  0  0  0  0  0  0  0  0
   -6.3226    1.2614    0.0000 C   0  0  0  0  0  0  0  0  0
   -7.0371    1.6739    0.0000 O   0  0  0  0  0  0  0  0  0
   -7.0371    2.4989    0.0000 C   0  0  0  0  0  0  0  0  0
   -5.6082    1.6739    0.0000 C   0  0  0  0  0  0  0  0  0
   -4.8937    1.2614    0.0000 C   0  0  0  0  0  0  0  0  0
  1  2  1  0  0  0  0
  2  3  4  0  0  0  0
  2  7  4  0  0  0  0
  3  4  4  0  0  0  0
  4  5  4  0  0  0  0
  5  6  4  0  0  0  0
  6  7  4  0  0  0  0
  7  8  1  0  0  0  0
  8  9  1  0  0  0  0
  8 13  1  0  0  0  0
  9 10  1  0  0  0  0
 10 11  1  0  0  0  0
 11 12  1  0  0  0  0
 11 14  1  0  0  0  0
 12 13  1  0  0  0  0
 14 15  2  0  0  0  0
 14 16  1  0  0  0  0
 16 17  1  0  0  0  0
 17 18  4  0  0  0  0
 17 31  4  0  0  0  0
 18 19  4  0  0  0  0
 19 20  1  0  0  0  0
 19 27  4  0  0  0  0
 20 21  1  0  0  0  0
 20 25  1  0  0  0  0
 21 22  1  0  0  0  0
 22 23  1  0  0  0  0
 23 24  1  0  0  0  0
 23 26  1  0  0  0  0
 24 25  1  0  0  0  0
 27 28  1  0  0  0  0
 27 30  4  0  0  0  0
 28 29  1  0  0  0  0
 30 31  4  0  0  0  0
M  END
>  <Name_Molregno>
330283

>  <5-HT1A>
6.47

>  <5-HT1B>
7.95

>  <5-HT1D>
7.46

>  <5-HT2A>
5.22

>  <5-HT2C>
5.91

>  <5-HT6>
6.33

>  <5-HT7>
6.47

>  <DOPAMINE D1>
5

>  <DOPAMINE D2>
5

>  <DOPAMINE D3>
5

>  <DOPAMINE D4>
5

>  <DOPAMINE D5>
5

>  <HISTAMINE H1>
5

>  <Muscarinic acetylcholine receptor M1>
5

>  <Muscarinic acetylcholine receptor M2>
5

>  <Muscarinic acetylcholine receptor M3>
5

>  <Muscarinic acetylcholine receptor M4>
5

>  <Muscarinic acetylcholine receptor M5>
5

$$$$
330287
  Marvin  02231216192D 0   1.00000     0.00000     0

 31 34  0  0  0  0  0  0  0  0999 V2000
    0.1076    0.0239    0.0000 F   0  0  0  0  0  0  0  0  0
    0.1076   -0.8011    0.0000 C   0  0  0  0  0  0  0  0  0
    0.8221   -1.2136    0.0000 C   0  0  0  0  0  0  0  0  0
    0.8221   -2.0386    0.0000 C   0  0  0  0  0  0  0  0  0
    0.1076   -2.4511    0.0000 C   0  0  0  0  0  0  0  0  0
   -0.6069   -2.0386    0.0000 C   0  0  0  0  0  0  0  0  0
   -0.6069   -1.2136    0.0000 C   0  0  0  0  0  0  0  0  0
   -1.3213   -0.8011    0.0000 N   0  0  0  0  0  0  0  0  0
   -2.0358   -1.2136    0.0000 C   0  0  0  0  0  0  0  0  0
   -2.7503   -0.8011    0.0000 C   0  0  0  0  0  0  0  0  0
   -2.7503    0.0239    0.0000 N   0  0  0  0  0  0  0  0  0
   -2.0358    0.4364    0.0000 C   0  0  0  0  0  0  0  0  0
   -1.3213    0.0239    0.0000 C   0  0  0  0  0  0  0  0  0
   -3.4647    0.4364    0.0000 C   0  0  0  0  0  0  0  0  0
   -3.4647    1.2614    0.0000 O   0  0  0  0  0  0  0  0  0
   -4.1792    0.0239    0.0000 N   0  0  0  0  0  0  0  0  0
   -4.8937    0.4364    0.0000 C   0  0  0  0  0  0  0  0  0
   -5.6082    0.0239    0.0000 C   0  0  0  0  0  0  0  0  0
   -6.3226    0.4364    0.0000 C   0  0  0  0  0  0  0  0  0
   -7.0371    0.0239    0.0000 N   0  0  0  0  0  0  0  0  0
   -7.0371   -0.8011    0.0000 C   0  0  0  0  0  0  0  0  0
   -7.7516   -1.2136    0.0000 C   0  0  0  0  0  0  0  0  0
   -8.4660   -0.8011    0.0000 N   0  0  0  0  0  0  0  0  0
   -8.4660    0.0239    0.0000 C   0  0  0  0  0  0  0  0  0
   -7.7516    0.4364    0.0000 C   0  0  0  0  0  0  0  0  0
   -9.1805   -1.2136    0.0000 C   0  0  0  0  0  0  0  0  0
   -6.3226    1.2614    0.0000 C   0  0  0  0  0  0  0  0  0
   -7.0371    1.6739    0.0000 O   0  0  0  0  0  0  0  0  0
   -7.0371    2.4989    0.0000 C   0  0  0  0  0  0  0  0  0
   -5.6082    1.6739    0.0000 C   0  0  0  0  0  0  0  0  0
   -4.8937    1.2614    0.0000 C   0  0  0  0  0  0  0  0  0
  1  2  1  0  0  0  0
  2  3  4  0  0  0  0
  2  7  4  0  0  0  0
  3  4  4  0  0  0  0
  4  5  4  0  0  0  0
  5  6  4  0  0  0  0
  6  7  4  0  0  0  0
  7  8  1  0  0  0  0
  8  9  1  0  0  0  0
  8 13  1  0  0  0  0
  9 10  1  0  0  0  0
 10 11  1  0  0  0  0
 11 12  1  0  0  0  0
 11 14  1  0  0  0  0
 12 13  1  0  0  0  0
 14 15  2  0  0  0  0
 14 16  1  0  0  0  0
 16 17  1  0  0  0  0
 17 18  4  0  0  0  0
 17 31  4  0  0  0  0
 18 19  4  0  0  0  0
 19 20  1  0  0  0  0
 19 27  4  0  0  0  0
 20 21  1  0  0  0  0
 20 25  1  0  0  0  0
 21 22  1  0  0  0  0
 22 23  1  0  0  0  0
 23 24  1  0  0  0  0
 23 26  1  0  0  0  0
 24 25  1  0  0  0  0
 27 28  1  0  0  0  0
 27 30  4  0  0  0  0
 28 29  1  0  0  0  0
 30 31  4  0  0  0  0
M  END
>  <Name_Molregno>
330287

>  <5-HT1A>
6.5

>  <5-HT1B>
7.74

>  <5-HT1D>
6.99

>  <5-HT2A>
5

>  <5-HT2C>
5.97

>  <5-HT6>
6.08

>  <5-HT7>
5

>  <DOPAMINE D1>
5

>  <DOPAMINE D2>
5

>  <DOPAMINE D3>
5

>  <DOPAMINE D4>
5

>  <DOPAMINE D5>
5

>  <HISTAMINE H1>
5

>  <Muscarinic acetylcholine receptor M1>
5

>  <Muscarinic acetylcholine receptor M2>
5

>  <Muscarinic acetylcholine receptor M3>
5

>  <Muscarinic acetylcholine receptor M4>
5

>  <Muscarinic acetylcholine receptor M5>
5

$$$$
334095
  Marvin  02231216192D 0   1.00000     0.00000     0

 32 36  0  0  0  0  0  0  0  0999 V2000
    0.1162   -0.0076    0.0000 Cl  0  0  0  0  0  0  0  0  0
    0.1162   -0.8326    0.0000 C   0  0  0  0  0  0  0  0  0
    0.8307   -1.2451    0.0000 C   0  0  0  0  0  0  0  0  0
    0.8307   -2.0701    0.0000 C   0  0  0  0  0  0  0  0  0
    0.1162   -2.4826    0.0000 C   0  0  0  0  0  0  0  0  0
   -0.5983   -2.0701    0.0000 C   0  0  0  0  0  0  0  0  0
   -0.5983   -1.2451    0.0000 C   0  0  0  0  0  0  0  0  0
   -1.3127   -0.8326    0.0000 N   0  0  0  0  0  0  0  0  0
   -2.0272   -1.2451    0.0000 C   0  0  0  0  0  0  0  0  0
   -2.7417   -0.8326    0.0000 C   0  0  0  0  0  0  0  0  0
   -2.7417   -0.0076    0.0000 N   0  0  0  0  0  0  0  0  0
   -2.0272    0.4049    0.0000 C   0  0  0  0  0  0  0  0  0
   -1.3127   -0.0076    0.0000 C   0  0  0  0  0  0  0  0  0
   -3.4561    0.4049    0.0000 C   0  0  0  0  0  0  0  0  0
   -4.1706   -0.0076    0.0000 C   0  0  0  0  0  0  0  0  0
   -4.8851    0.4049    0.0000 N   0  0  0  0  0  0  0  0  0
   -5.5996   -0.0076    0.0000 C   0  0  0  0  0  0  0  0  0
   -5.5996   -0.8326    0.0000 O   0  0  0  0  0  0  0  0  0
   -6.3140    0.4049    0.0000 C   0  0  0  0  0  0  0  0  0
   -7.0986    0.1499    0.0000 C   0  0  0  0  0  0  0  0  0
   -7.5836    0.8174    0.0000 C   0  0  0  0  0  0  0  0  0
   -7.0986    1.4848    0.0000 N   0  0  0  0  0  0  0  0  0
   -6.3140    1.2299    0.0000 C   0  0  0  0  0  0  0  0  0
   -5.5996    1.6424    0.0000 N   0  0  0  0  0  0  0  0  0
   -4.8851    1.2299    0.0000 C   0  0  0  0  0  0  0  0  0
   -4.1706    1.6424    0.0000 O   0  0  0  0  0  0  0  0  0
   -8.4086    0.8174    0.0000 C   0  0  0  0  0  0  0  0  0
   -8.8211    0.1029    0.0000 C   0  0  0  0  0  0  0  0  0
   -9.6461    0.1029    0.0000 C   0  0  0  0  0  0  0  0  0
  -10.0586    0.8174    0.0000 C   0  0  0  0  0  0  0  0  0
   -9.6461    1.5319    0.0000 C   0  0  0  0  0  0  0  0  0
   -8.8211    1.5319    0.0000 C   0  0  0  0  0  0  0  0  0
  1  2  1  0  0  0  0
  2  3  4  0  0  0  0
  2  7  4  0  0  0  0
  3  4  4  0  0  0  0
  4  5  4  0  0  0  0
  5  6  4  0  0  0  0
  6  7  4  0  0  0  0
  7  8  1  0  0  0  0
  8  9  1  0  0  0  0
  8 13  1  0  0  0  0
  9 10  1  0  0  0  0
 10 11  1  0  0  0  0
 11 12  1  0  0  0  0
 11 14  1  0  0  0  0
 12 13  1  0  0  0  0
 14 15  1  0  0  0  0
 15 16  1  0  0  0  0
 16 17  1  0  0  0  0
 16 25  1  0  0  0  0
 17 18  2  0  0  0  0
 17 19  1  0  0  0  0
 19 20  4  0  0  0  0
 19 23  4  0  0  0  0
 20 21  4  0  0  0  0
 21 22  4  0  0  0  0
 21 27  1  0  0  0  0
 22 23  4  0  0  0  0
 23 24  1  0  0  0  0
 24 25  1  0  0  0  0
 25 26  2  0  0  0  0
 27 28  4  0  0  0  0
 27 32  4  0  0  0  0
 28 29  4  0  0  0  0
 29 30  4  0  0  0  0
 30 31  4  0  0  0  0
 31 32  4  0  0  0  0
M  STY  1   1 DAT
M  SAL   1  1  22
M  SDT   1 MRV_IMPLICIT_H                                        
M  SDD   1     0.0000    0.0000    DR    ALL  0       0  
M  SED   1 IMPL_H1
M  END
>  <Name_Molregno>
334095

>  <5-HT1A>
5.81

>  <DOPAMINE D1>
6.29

>  <DOPAMINE D2>
6.86

$$$$
334128
  Marvin  02231216192D 0   1.00000     0.00000     0

 34 38  0  0  0  0  0  0  0  0999 V2000
    0.1229   -0.0024    0.0000 Cl  0  0  0  0  0  0  0  0  0
    0.1229   -0.8274    0.0000 C   0  0  0  0  0  0  0  0  0
    0.8374   -1.2399    0.0000 C   0  0  0  0  0  0  0  0  0
    0.8374   -2.0649    0.0000 C   0  0  0  0  0  0  0  0  0
    0.1229   -2.4774    0.0000 C   0  0  0  0  0  0  0  0  0
   -0.5916   -2.0649    0.0000 C   0  0  0  0  0  0  0  0  0
   -0.5916   -1.2399    0.0000 C   0  0  0  0  0  0  0  0  0
   -1.3060   -0.8274    0.0000 N   0  0  0  0  0  0  0  0  0
   -2.0205   -1.2399    0.0000 C   0  0  0  0  0  0  0  0  0
   -2.7350   -0.8274    0.0000 C   0  0  0  0  0  0  0  0  0
   -2.7350   -0.0024    0.0000 N   0  0  0  0  0  0  0  0  0
   -2.0205    0.4101    0.0000 C   0  0  0  0  0  0  0  0  0
   -1.3060   -0.0024    0.0000 C   0  0  0  0  0  0  0  0  0
   -3.4495    0.4101    0.0000 C   0  0  0  0  0  0  0  0  0
   -4.1639   -0.0024    0.0000 C   0  0  0  0  0  0  0  0  0
   -4.8784    0.4101    0.0000 N   0  0  0  0  0  0  0  0  0
   -5.5929   -0.0024    0.0000 C   0  0  0  0  0  0  0  0  0
   -5.5929   -0.8274    0.0000 O   0  0  0  0  0  0  0  0  0
   -6.3073    0.4101    0.0000 C   0  0  0  0  0  0  0  0  0
   -7.0920    0.1552    0.0000 C   0  0  0  0  0  0  0  0  0
   -7.5769    0.8226    0.0000 C   0  0  0  0  0  0  0  0  0
   -7.0920    1.4900    0.0000 N   0  0  0  0  0  0  0  0  0
   -6.3073    1.2351    0.0000 C   0  0  0  0  0  0  0  0  0
   -5.5929    1.6476    0.0000 N   0  0  0  0  0  0  0  0  0
   -4.8784    1.2351    0.0000 C   0  0  0  0  0  0  0  0  0
   -4.1639    1.6476    0.0000 O   0  0  0  0  0  0  0  0  0
   -8.4019    0.8226    0.0000 C   0  0  0  0  0  0  0  0  0
   -8.8144    0.1081    0.0000 C   0  0  0  0  0  0  0  0  0
   -9.6394    0.1081    0.0000 C   0  0  0  0  0  0  0  0  0
  -10.0519    0.8226    0.0000 C   0  0  0  0  0  0  0  0  0
   -9.6394    1.5371    0.0000 C   0  0  0  0  0  0  0  0  0
   -8.8144    1.5371    0.0000 C   0  0  0  0  0  0  0  0  0
   -8.4019    2.2515    0.0000 O   0  0  0  0  0  0  0  0  0
   -8.8144    2.9660    0.0000 C   0  0  0  0  0  0  0  0  0
  1  2  1  0  0  0  0
  2  3  4  0  0  0  0
  2  7  4  0  0  0  0
  3  4  4  0  0  0  0
  4  5  4  0  0  0  0
  5  6  4  0  0  0  0
  6  7  4  0  0  0  0
  7  8  1  0  0  0  0
  8  9  1  0  0  0  0
  8 13  1  0  0  0  0
  9 10  1  0  0  0  0
 10 11  1  0  0  0  0
 11 12  1  0  0  0  0
 11 14  1  0  0  0  0
 12 13  1  0  0  0  0
 14 15  1  0  0  0  0
 15 16  1  0  0  0  0
 16 17  1  0  0  0  0
 16 25  1  0  0  0  0
 17 18  2  0  0  0  0
 17 19  1  0  0  0  0
 19 20  4  0  0  0  0
 19 23  4  0  0  0  0
 20 21  4  0  0  0  0
 21 22  4  0  0  0  0
 21 27  1  0  0  0  0
 22 23  4  0  0  0  0
 23 24  1  0  0  0  0
 24 25  1  0  0  0  0
 25 26  2  0  0  0  0
 27 28  4  0  0  0  0
 27 32  4  0  0  0  0
 28 29  4  0  0  0  0
 29 30  4  0  0  0  0
 30 31  4  0  0  0  0
 31 32  4  0  0  0  0
 32 33  1  0  0  0  0
 33 34  1  0  0  0  0
M  STY  1   1 DAT
M  SAL   1  1  22
M  SDT   1 MRV_IMPLICIT_H                                        
M  SDD   1     0.0000    0.0000    DR    ALL  0       0  
M  SED   1 IMPL_H1
M  END
>  <Name_Molregno>
334128

>  <5-HT1A>
5.99

>  <DOPAMINE D1>
5.07

>  <DOPAMINE D2>
6.44

$$$$
334137
  Marvin  02231216192D 0   1.00000     0.00000     0

 33 37  0  0  0  0  0  0  0  0999 V2000
   -8.2411   -0.5364    0.0000 Cl  0  0  0  0  0  0  0  0  0
   -8.6536    0.1781    0.0000 C   0  0  0  0  0  0  0  0  0
   -9.4786    0.1781    0.0000 C   0  0  0  0  0  0  0  0  0
   -9.8911    0.8926    0.0000 C   0  0  0  0  0  0  0  0  0
   -9.4786    1.6070    0.0000 C   0  0  0  0  0  0  0  0  0
   -8.6536    1.6070    0.0000 C   0  0  0  0  0  0  0  0  0
   -8.2411    0.8926    0.0000 C   0  0  0  0  0  0  0  0  0
   -7.4161    0.8926    0.0000 C   0  0  0  0  0  0  0  0  0
   -6.9312    1.5600    0.0000 N   0  0  0  0  0  0  0  0  0
   -6.1466    1.3051    0.0000 C   0  0  0  0  0  0  0  0  0
   -5.4321    1.7176    0.0000 N   0  0  0  0  0  0  0  0  0
   -4.7176    1.3051    0.0000 C   0  0  0  0  0  0  0  0  0
   -4.0032    1.7176    0.0000 O   0  0  0  0  0  0  0  0  0
   -4.7176    0.4801    0.0000 N   0  0  0  0  0  0  0  0  0
   -4.0032    0.0676    0.0000 C   0  0  0  0  0  0  0  0  0
   -3.2887    0.4801    0.0000 C   0  0  0  0  0  0  0  0  0
   -2.5742    0.0676    0.0000 N   0  0  0  0  0  0  0  0  0
   -1.8598    0.4801    0.0000 C   0  0  0  0  0  0  0  0  0
   -1.1453    0.0676    0.0000 C   0  0  0  0  0  0  0  0  0
   -1.1453   -0.7574    0.0000 N   0  0  0  0  0  0  0  0  0
   -1.8598   -1.1699    0.0000 C   0  0  0  0  0  0  0  0  0
   -2.5742   -0.7574    0.0000 C   0  0  0  0  0  0  0  0  0
   -0.4308   -1.1699    0.0000 C   0  0  0  0  0  0  0  0  0
    0.2837   -0.7574    0.0000 C   0  0  0  0  0  0  0  0  0
    0.9981   -1.1699    0.0000 C   0  0  0  0  0  0  0  0  0
    0.9981   -1.9949    0.0000 C   0  0  0  0  0  0  0  0  0
    0.2837   -2.4074    0.0000 C   0  0  0  0  0  0  0  0  0
   -0.4308   -1.9949    0.0000 C   0  0  0  0  0  0  0  0  0
   -1.1453   -2.4074    0.0000 Cl  0  0  0  0  0  0  0  0  0
   -5.4321    0.0676    0.0000 C   0  0  0  0  0  0  0  0  0
   -5.4321   -0.7574    0.0000 O   0  0  0  0  0  0  0  0  0
   -6.1466    0.4801    0.0000 C   0  0  0  0  0  0  0  0  0
   -6.9312    0.2251    0.0000 C   0  0  0  0  0  0  0  0  0
  1  2  1  0  0  0  0
  2  3  4  0  0  0  0
  2  7  4  0  0  0  0
  3  4  4  0  0  0  0
  4  5  4  0  0  0  0
  5  6  4  0  0  0  0
  6  7  4  0  0  0  0
  7  8  1  0  0  0  0
  8  9  4  0  0  0  0
  8 33  4  0  0  0  0
  9 10  4  0  0  0  0
 10 11  1  0  0  0  0
 10 32  4  0  0  0  0
 11 12  1  0  0  0  0
 12 13  2  0  0  0  0
 12 14  1  0  0  0  0
 14 15  1  0  0  0  0
 14 30  1  0  0  0  0
 15 16  1  0  0  0  0
 16 17  1  0  0  0  0
 17 18  1  0  0  0  0
 17 22  1  0  0  0  0
 18 19  1  0  0  0  0
 19 20  1  0  0  0  0
 20 21  1  0  0  0  0
 20 23  1  0  0  0  0
 21 22  1  0  0  0  0
 23 24  4  0  0  0  0
 23 28  4  0  0  0  0
 24 25  4  0  0  0  0
 25 26  4  0  0  0  0
 26 27  4  0  0  0  0
 27 28  4  0  0  0  0
 28 29  1  0  0  0  0
 30 31  2  0  0  0  0
 30 32  1  0  0  0  0
 32 33  4  0  0  0  0
M  STY  1   1 DAT
M  SAL   1  1   9
M  SDT   1 MRV_IMPLICIT_H                                        
M  SDD   1     0.0000    0.0000    DR    ALL  0       0  
M  SED   1 IMPL_H1
M  END
>  <Name_Molregno>
334137

>  <5-HT1A>
7.19

>  <DOPAMINE D1>
6.25

>  <DOPAMINE D2>
6.45

$$$$
334152
  Marvin  02231216192D 0   1.00000     0.00000     0

 33 37  0  0  0  0  0  0  0  0999 V2000
    0.1198    0.0096    0.0000 Cl  0  0  0  0  0  0  0  0  0
    0.1198   -0.8154    0.0000 C   0  0  0  0  0  0  0  0  0
    0.8343   -1.2279    0.0000 C   0  0  0  0  0  0  0  0  0
    0.8343   -2.0529    0.0000 C   0  0  0  0  0  0  0  0  0
    0.1198   -2.4654    0.0000 C   0  0  0  0  0  0  0  0  0
   -0.5946   -2.0529    0.0000 C   0  0  0  0  0  0  0  0  0
   -0.5946   -1.2279    0.0000 C   0  0  0  0  0  0  0  0  0
   -1.3091   -0.8154    0.0000 N   0  0  0  0  0  0  0  0  0
   -2.0236   -1.2279    0.0000 C   0  0  0  0  0  0  0  0  0
   -2.7380   -0.8154    0.0000 C   0  0  0  0  0  0  0  0  0
   -2.7380    0.0096    0.0000 N   0  0  0  0  0  0  0  0  0
   -2.0236    0.4221    0.0000 C   0  0  0  0  0  0  0  0  0
   -1.3091    0.0096    0.0000 C   0  0  0  0  0  0  0  0  0
   -3.4525    0.4221    0.0000 C   0  0  0  0  0  0  0  0  0
   -4.1670    0.0096    0.0000 C   0  0  0  0  0  0  0  0  0
   -4.8814    0.4221    0.0000 N   0  0  0  0  0  0  0  0  0
   -5.5959    0.0096    0.0000 C   0  0  0  0  0  0  0  0  0
   -5.5959   -0.8154    0.0000 O   0  0  0  0  0  0  0  0  0
   -6.3104    0.4221    0.0000 C   0  0  0  0  0  0  0  0  0
   -7.0950    0.1672    0.0000 C   0  0  0  0  0  0  0  0  0
   -7.5799    0.8346    0.0000 C   0  0  0  0  0  0  0  0  0
   -7.0950    1.5020    0.0000 N   0  0  0  0  0  0  0  0  0
   -6.3104    1.2471    0.0000 C   0  0  0  0  0  0  0  0  0
   -5.5959    1.6596    0.0000 N   0  0  0  0  0  0  0  0  0
   -4.8814    1.2471    0.0000 C   0  0  0  0  0  0  0  0  0
   -4.1670    1.6596    0.0000 O   0  0  0  0  0  0  0  0  0
   -8.4049    0.8346    0.0000 C   0  0  0  0  0  0  0  0  0
   -8.8174    0.1201    0.0000 C   0  0  0  0  0  0  0  0  0
   -9.6424    0.1201    0.0000 C   0  0  0  0  0  0  0  0  0
  -10.0549    0.8346    0.0000 C   0  0  0  0  0  0  0  0  0
   -9.6424    1.5491    0.0000 C   0  0  0  0  0  0  0  0  0
   -8.8174    1.5491    0.0000 C   0  0  0  0  0  0  0  0  0
   -8.4049    2.2635    0.0000 C   0  0  0  0  0  0  0  0  0
  1  2  1  0  0  0  0
  2  3  4  0  0  0  0
  2  7  4  0  0  0  0
  3  4  4  0  0  0  0
  4  5  4  0  0  0  0
  5  6  4  0  0  0  0
  6  7  4  0  0  0  0
  7  8  1  0  0  0  0
  8  9  1  0  0  0  0
  8 13  1  0  0  0  0
  9 10  1  0  0  0  0
 10 11  1  0  0  0  0
 11 12  1  0  0  0  0
 11 14  1  0  0  0  0
 12 13  1  0  0  0  0
 14 15  1  0  0  0  0
 15 16  1  0  0  0  0
 16 17  1  0  0  0  0
 16 25  1  0  0  0  0
 17 18  2  0  0  0  0
 17 19  1  0  0  0  0
 19 20  4  0  0  0  0
 19 23  4  0  0  0  0
 20 21  4  0  0  0  0
 21 22  4  0  0  0  0
 21 27  1  0  0  0  0
 22 23  4  0  0  0  0
 23 24  1  0  0  0  0
 24 25  1  0  0  0  0
 25 26  2  0  0  0  0
 27 28  4  0  0  0  0
 27 32  4  0  0  0  0
 28 29  4  0  0  0  0
 29 30  4  0  0  0  0
 30 31  4  0  0  0  0
 31 32  4  0  0  0  0
 32 33  1  0  0  0  0
M  STY  1   1 DAT
M  SAL   1  1  22
M  SDT   1 MRV_IMPLICIT_H                                        
M  SDD   1     0.0000    0.0000    DR    ALL  0       0  
M  SED   1 IMPL_H1
M  END
>  <Name_Molregno>
334152

>  <5-HT1A>
5.84

>  <DOPAMINE D1>
5.98

>  <DOPAMINE D2>
6.2

$$$$
334174
  Marvin  02231216192D 0   1.00000     0.00000     0

 33 37  0  0  0  0  0  0  0  0999 V2000
    0.1212   -0.0292    0.0000 Cl  0  0  0  0  0  0  0  0  0
    0.1212   -0.8542    0.0000 C   0  0  0  0  0  0  0  0  0
    0.8356   -1.2667    0.0000 C   0  0  0  0  0  0  0  0  0
    0.8356   -2.0917    0.0000 C   0  0  0  0  0  0  0  0  0
    0.1212   -2.5042    0.0000 C   0  0  0  0  0  0  0  0  0
   -0.5933   -2.0917    0.0000 C   0  0  0  0  0  0  0  0  0
   -0.5933   -1.2667    0.0000 C   0  0  0  0  0  0  0  0  0
   -1.3078   -0.8542    0.0000 N   0  0  0  0  0  0  0  0  0
   -2.0222   -1.2667    0.0000 C   0  0  0  0  0  0  0  0  0
   -2.7367   -0.8542    0.0000 C   0  0  0  0  0  0  0  0  0
   -2.7367   -0.0292    0.0000 N   0  0  0  0  0  0  0  0  0
   -2.0222    0.3833    0.0000 C   0  0  0  0  0  0  0  0  0
   -1.3078   -0.0292    0.0000 C   0  0  0  0  0  0  0  0  0
   -3.4512    0.3833    0.0000 C   0  0  0  0  0  0  0  0  0
   -4.1657   -0.0292    0.0000 C   0  0  0  0  0  0  0  0  0
   -4.8801    0.3833    0.0000 N   0  0  0  0  0  0  0  0  0
   -5.5946   -0.0292    0.0000 C   0  0  0  0  0  0  0  0  0
   -5.5946   -0.8542    0.0000 O   0  0  0  0  0  0  0  0  0
   -6.3091    0.3833    0.0000 C   0  0  0  0  0  0  0  0  0
   -7.0937    0.1284    0.0000 C   0  0  0  0  0  0  0  0  0
   -7.5786    0.7958    0.0000 C   0  0  0  0  0  0  0  0  0
   -7.0937    1.4633    0.0000 N   0  0  0  0  0  0  0  0  0
   -6.3091    1.2083    0.0000 C   0  0  0  0  0  0  0  0  0
   -5.5946    1.6208    0.0000 N   0  0  0  0  0  0  0  0  0
   -4.8801    1.2083    0.0000 C   0  0  0  0  0  0  0  0  0
   -4.1657    1.6208    0.0000 O   0  0  0  0  0  0  0  0  0
   -8.4036    0.7958    0.0000 C   0  0  0  0  0  0  0  0  0
   -8.8161    0.0813    0.0000 C   0  0  0  0  0  0  0  0  0
   -9.6411    0.0813    0.0000 C   0  0  0  0  0  0  0  0  0
  -10.0536    0.7958    0.0000 C   0  0  0  0  0  0  0  0  0
   -9.6411    1.5103    0.0000 C   0  0  0  0  0  0  0  0  0
   -8.8161    1.5103    0.0000 C   0  0  0  0  0  0  0  0  0
  -10.8786    0.7958    0.0000 C   0  0  0  0  0  0  0  0  0
  1  2  1  0  0  0  0
  2  3  4  0  0  0  0
  2  7  4  0  0  0  0
  3  4  4  0  0  0  0
  4  5  4  0  0  0  0
  5  6  4  0  0  0  0
  6  7  4  0  0  0  0
  7  8  1  0  0  0  0
  8  9  1  0  0  0  0
  8 13  1  0  0  0  0
  9 10  1  0  0  0  0
 10 11  1  0  0  0  0
 11 12  1  0  0  0  0
 11 14  1  0  0  0  0
 12 13  1  0  0  0  0
 14 15  1  0  0  0  0
 15 16  1  0  0  0  0
 16 17  1  0  0  0  0
 16 25  1  0  0  0  0
 17 18  2  0  0  0  0
 17 19  1  0  0  0  0
 19 20  4  0  0  0  0
 19 23  4  0  0  0  0
 20 21  4  0  0  0  0
 21 22  4  0  0  0  0
 21 27  1  0  0  0  0
 22 23  4  0  0  0  0
 23 24  1  0  0  0  0
 24 25  1  0  0  0  0
 25 26  2  0  0  0  0
 27 28  4  0  0  0  0
 27 32  4  0  0  0  0
 28 29  4  0  0  0  0
 29 30  4  0  0  0  0
 30 31  4  0  0  0  0
 30 33  1  0  0  0  0
 31 32  4  0  0  0  0
M  STY  1   1 DAT
M  SAL   1  1  22
M  SDT   1 MRV_IMPLICIT_H                                        
M  SDD   1     0.0000    0.0000    DR    ALL  0       0  
M  SED   1 IMPL_H1
M  END
>  <Name_Molregno>
334174

>  <5-HT1A>
5.74

>  <DOPAMINE D1>
6.41

>  <DOPAMINE D2>
5.76

$$$$
334199
  Marvin  02231216192D 0   1.00000     0.00000     0

 33 37  0  0  0  0  0  0  0  0999 V2000
    0.1212   -0.0292    0.0000 Cl  0  0  0  0  0  0  0  0  0
    0.1212   -0.8542    0.0000 C   0  0  0  0  0  0  0  0  0
    0.8356   -1.2667    0.0000 C   0  0  0  0  0  0  0  0  0
    0.8356   -2.0917    0.0000 C   0  0  0  0  0  0  0  0  0
    0.1212   -2.5042    0.0000 C   0  0  0  0  0  0  0  0  0
   -0.5933   -2.0917    0.0000 C   0  0  0  0  0  0  0  0  0
   -0.5933   -1.2667    0.0000 C   0  0  0  0  0  0  0  0  0
   -1.3078   -0.8542    0.0000 N   0  0  0  0  0  0  0  0  0
   -2.0222   -1.2667    0.0000 C   0  0  0  0  0  0  0  0  0
   -2.7367   -0.8542    0.0000 C   0  0  0  0  0  0  0  0  0
   -2.7367   -0.0292    0.0000 N   0  0  0  0  0  0  0  0  0
   -2.0222    0.3833    0.0000 C   0  0  0  0  0  0  0  0  0
   -1.3078   -0.0292    0.0000 C   0  0  0  0  0  0  0  0  0
   -3.4512    0.3833    0.0000 C   0  0  0  0  0  0  0  0  0
   -4.1657   -0.0292    0.0000 C   0  0  0  0  0  0  0  0  0
   -4.8801    0.3833    0.0000 N   0  0  0  0  0  0  0  0  0
   -5.5946   -0.0292    0.0000 C   0  0  0  0  0  0  0  0  0
   -5.5946   -0.8542    0.0000 O   0  0  0  0  0  0  0  0  0
   -6.3091    0.3833    0.0000 C   0  0  0  0  0  0  0  0  0
   -7.0937    0.1284    0.0000 C   0  0  0  0  0  0  0  0  0
   -7.5786    0.7958    0.0000 C   0  0  0  0  0  0  0  0  0
   -7.0937    1.4633    0.0000 N   0  0  0  0  0  0  0  0  0
   -6.3091    1.2083    0.0000 C   0  0  0  0  0  0  0  0  0
   -5.5946    1.6208    0.0000 N   0  0  0  0  0  0  0  0  0
   -4.8801    1.2083    0.0000 C   0  0  0  0  0  0  0  0  0
   -4.1657    1.6208    0.0000 O   0  0  0  0  0  0  0  0  0
   -8.4036    0.7958    0.0000 C   0  0  0  0  0  0  0  0  0
   -8.8161    0.0813    0.0000 C   0  0  0  0  0  0  0  0  0
   -9.6411    0.0813    0.0000 C   0  0  0  0  0  0  0  0  0
  -10.0536    0.7958    0.0000 C   0  0  0  0  0  0  0  0  0
  -10.8786    0.7958    0.0000 Cl  0  0  0  0  0  0  0  0  0
   -9.6411    1.5103    0.0000 C   0  0  0  0  0  0  0  0  0
   -8.8161    1.5103    0.0000 C   0  0  0  0  0  0  0  0  0
  1  2  1  0  0  0  0
  2  3  4  0  0  0  0
  2  7  4  0  0  0  0
  3  4  4  0  0  0  0
  4  5  4  0  0  0  0
  5  6  4  0  0  0  0
  6  7  4  0  0  0  0
  7  8  1  0  0  0  0
  8  9  1  0  0  0  0
  8 13  1  0  0  0  0
  9 10  1  0  0  0  0
 10 11  1  0  0  0  0
 11 12  1  0  0  0  0
 11 14  1  0  0  0  0
 12 13  1  0  0  0  0
 14 15  1  0  0  0  0
 15 16  1  0  0  0  0
 16 17  1  0  0  0  0
 16 25  1  0  0  0  0
 17 18  2  0  0  0  0
 17 19  1  0  0  0  0
 19 20  4  0  0  0  0
 19 23  4  0  0  0  0
 20 21  4  0  0  0  0
 21 22  4  0  0  0  0
 21 27  1  0  0  0  0
 22 23  4  0  0  0  0
 23 24  1  0  0  0  0
 24 25  1  0  0  0  0
 25 26  2  0  0  0  0
 27 28  4  0  0  0  0
 27 33  4  0  0  0  0
 28 29  4  0  0  0  0
 29 30  4  0  0  0  0
 30 31  1  0  0  0  0
 30 32  4  0  0  0  0
 32 33  4  0  0  0  0
M  STY  1   1 DAT
M  SAL   1  1  22
M  SDT   1 MRV_IMPLICIT_H                                        
M  SDD   1     0.0000    0.0000    DR    ALL  0       0  
M  SED   1 IMPL_H1
M  END
>  <Name_Molregno>
334199

>  <5-HT1A>
5.82

>  <DOPAMINE D1>
6.26

>  <DOPAMINE D2>
5.63

$$$$
334352
  Marvin  02231216192D 0   1.00000     0.00000     0

 34 38  0  0  0  0  0  0  0  0999 V2000
    0.1262    0.0189    0.0000 Cl  0  0  0  0  0  0  0  0  0
    0.1262   -0.8061    0.0000 C   0  0  0  0  0  0  0  0  0
    0.8407   -1.2186    0.0000 C   0  0  0  0  0  0  0  0  0
    0.8407   -2.0436    0.0000 C   0  0  0  0  0  0  0  0  0
    0.1262   -2.4561    0.0000 C   0  0  0  0  0  0  0  0  0
   -0.5883   -2.0436    0.0000 C   0  0  0  0  0  0  0  0  0
   -0.5883   -1.2186    0.0000 C   0  0  0  0  0  0  0  0  0
   -1.3027   -0.8061    0.0000 N   0  0  0  0  0  0  0  0  0
   -2.0172   -1.2186    0.0000 C   0  0  0  0  0  0  0  0  0
   -2.7317   -0.8061    0.0000 C   0  0  0  0  0  0  0  0  0
   -2.7317    0.0189    0.0000 N   0  0  0  0  0  0  0  0  0
   -2.0172    0.4314    0.0000 C   0  0  0  0  0  0  0  0  0
   -1.3027    0.0189    0.0000 C   0  0  0  0  0  0  0  0  0
   -3.4462    0.4314    0.0000 C   0  0  0  0  0  0  0  0  0
   -4.1606    0.0189    0.0000 C   0  0  0  0  0  0  0  0  0
   -4.8751    0.4314    0.0000 N   0  0  0  0  0  0  0  0  0
   -5.5896    0.0189    0.0000 C   0  0  0  0  0  0  0  0  0
   -5.5896   -0.8061    0.0000 O   0  0  0  0  0  0  0  0  0
   -6.3040    0.4314    0.0000 C   0  0  0  0  0  0  0  0  0
   -7.0887    0.1764    0.0000 C   0  0  0  0  0  0  0  0  0
   -7.5736    0.8439    0.0000 C   0  0  0  0  0  0  0  0  0
   -7.0887    1.5113    0.0000 N   0  0  0  0  0  0  0  0  0
   -6.3040    1.2564    0.0000 C   0  0  0  0  0  0  0  0  0
   -5.5896    1.6689    0.0000 N   0  0  0  0  0  0  0  0  0
   -4.8751    1.2564    0.0000 C   0  0  0  0  0  0  0  0  0
   -4.1606    1.6689    0.0000 O   0  0  0  0  0  0  0  0  0
   -8.3986    0.8439    0.0000 C   0  0  0  0  0  0  0  0  0
   -8.8111    0.1294    0.0000 C   0  0  0  0  0  0  0  0  0
   -9.6361    0.1294    0.0000 C   0  0  0  0  0  0  0  0  0
  -10.0486    0.8439    0.0000 C   0  0  0  0  0  0  0  0  0
  -10.8736    0.8439    0.0000 O   0  0  0  0  0  0  0  0  0
  -11.2861    0.1294    0.0000 C   0  0  0  0  0  0  0  0  0
   -9.6361    1.5584    0.0000 C   0  0  0  0  0  0  0  0  0
   -8.8111    1.5584    0.0000 C   0  0  0  0  0  0  0  0  0
  1  2  1  0  0  0  0
  2  3  4  0  0  0  0
  2  7  4  0  0  0  0
  3  4  4  0  0  0  0
  4  5  4  0  0  0  0
  5  6  4  0  0  0  0
  6  7  4  0  0  0  0
  7  8  1  0  0  0  0
  8  9  1  0  0  0  0
  8 13  1  0  0  0  0
  9 10  1  0  0  0  0
 10 11  1  0  0  0  0
 11 12  1  0  0  0  0
 11 14  1  0  0  0  0
 12 13  1  0  0  0  0
 14 15  1  0  0  0  0
 15 16  1  0  0  0  0
 16 17  1  0  0  0  0
 16 25  1  0  0  0  0
 17 18  2  0  0  0  0
 17 19  1  0  0  0  0
 19 20  4  0  0  0  0
 19 23  4  0  0  0  0
 20 21  4  0  0  0  0
 21 22  4  0  0  0  0
 21 27  1  0  0  0  0
 22 23  4  0  0  0  0
 23 24  1  0  0  0  0
 24 25  1  0  0  0  0
 25 26  2  0  0  0  0
 27 28  4  0  0  0  0
 27 34  4  0  0  0  0
 28 29  4  0  0  0  0
 29 30  4  0  0  0  0
 30 31  1  0  0  0  0
 30 33  4  0  0  0  0
 31 32  1  0  0  0  0
 33 34  4  0  0  0  0
M  STY  1   1 DAT
M  SAL   1  1  22
M  SDT   1 MRV_IMPLICIT_H                                        
M  SDD   1     0.0000    0.0000    DR    ALL  0       0  
M  SED   1 IMPL_H1
M  END
>  <Name_Molregno>
334352

>  <5-HT1A>
5.97

>  <DOPAMINE D1>
6.57

>  <DOPAMINE D2>
6.78

$$$$
335202
  Marvin  02231216192D 0   1.00000     0.00000     0

 31 34  0  0  0  0  0  0  0  0999 V2000
   -5.3316    5.4643    0.0000 O   0  0  0  0  0  0  0  0  0
   -6.0461    5.8768    0.0000 C   0  0  0  0  0  0  0  0  0
   -4.6172    5.8768    0.0000 C   0  0  0  0  0  0  0  0  0
   -3.9027    5.4643    0.0000 C   0  0  0  0  0  0  0  0  0
   -3.1882    5.8768    0.0000 C   0  0  0  0  0  0  0  0  0
   -3.1882    6.7018    0.0000 C   0  0  0  0  0  0  0  0  0
   -3.9027    7.1143    0.0000 C   0  0  0  0  0  0  0  0  0
   -4.6172    6.7018    0.0000 C   0  0  0  0  0  0  0  0  0
   -2.4737    7.1143    0.0000 C   0  0  0  0  0  0  0  0  0
   -1.7593    6.7018    0.0000 C   0  0  0  0  0  0  0  0  0
   -1.7593    5.8768    0.0000 C   0  0  0  0  0  0  0  0  0
   -2.4737    5.4643    0.0000 C   0  0  0  0  0  0  0  0  0
   -2.4737    4.6393    0.0000 N   0  0  0  0  0  0  0  0  0
   -1.7593    4.2268    0.0000 C   0  0  0  0  0  0  0  0  0
   -1.7593    3.4018    0.0000 C   0  0  0  0  0  0  0  0  0
   -2.4737    2.9893    0.0000 N   0  0  0  0  0  0  0  0  0
   -3.1882    3.4018    0.0000 C   0  0  0  0  0  0  0  0  0
   -3.1882    4.2268    0.0000 C   0  0  0  0  0  0  0  0  0
   -2.4737    2.1643    0.0000 C   0  0  0  0  0  0  0  0  0
   -1.7593    1.7518    0.0000 C   0  0  0  0  0  0  0  0  0
   -1.7593    0.9268    0.0000 C   0  0  0  0  0  0  0  0  0
   -1.0448    0.5143    0.0000 C   0  0  0  0  0  0  0  0  0
   -1.0448   -0.3107    0.0000 N   0  0  0  0  0  0  0  0  0
   -0.3303   -0.7232    0.0000 N   0  0  0  0  0  0  0  0  0
   -0.3303   -1.5482    0.0000 C   0  0  0  0  0  0  0  0  0
   -1.0448   -1.9607    0.0000 C   0  0  0  0  0  0  0  0  0
   -1.0448   -2.7857    0.0000 O   0  0  0  0  0  0  0  0  0
   -1.7593   -1.5482    0.0000 N   0  0  0  0  0  0  0  0  0
   -2.4737   -1.9607    0.0000 C   0  0  0  0  0  0  0  0  0
   -1.7593   -0.7232    0.0000 C   0  0  0  0  0  0  0  0  0
   -2.4737   -0.3107    0.0000 O   0  0  0  0  0  0  0  0  0
  1  2  1  0  0  0  0
  1  3  1  0  0  0  0
  3  4  4  0  0  0  0
  3  8  4  0  0  0  0
  4  5  4  0  0  0  0
  5  6  4  0  0  0  0
  5 12  4  0  0  0  0
  6  7  4  0  0  0  0
  6  9  4  0  0  0  0
  7  8  4  0  0  0  0
  9 10  4  0  0  0  0
 10 11  4  0  0  0  0
 11 12  4  0  0  0  0
 12 13  1  0  0  0  0
 13 14  1  0  0  0  0
 13 18  1  0  0  0  0
 14 15  1  0  0  0  0
 15 16  1  0  0  0  0
 16 17  1  0  0  0  0
 16 19  1  0  0  0  0
 17 18  1  0  0  0  0
 19 20  1  0  0  0  0
 20 21  1  0  0  0  0
 21 22  1  0  0  0  0
 22 23  1  0  0  0  0
 23 24  1  0  0  0  0
 23 30  1  0  0  0  0
 24 25  2  0  0  0  0
 25 26  1  0  0  0  0
 26 27  2  0  0  0  0
 26 28  1  0  0  0  0
 28 29  1  0  0  0  0
 28 30  1  0  0  0  0
 30 31  2  0  0  0  0
M  END
>  <Name_Molregno>
335202

>  <5-HT1A>
8.87

>  <5-HT2A>
7.38

>  <5-HT2C>
7

>  <5-HT3>
5

>  <5-HT5>
6.64

>  <5-HT6>
6.92

>  <5-HT7>
8.04

>  <Alpha-2A>
5.99

>  <Alpha-2B>
6.5

>  <Alpha-2C>
7.63

>  <Beta-1>
6.32

>  <Beta-2>
7.22

>  <DOPAMINE D1>
5.13

>  <DOPAMINE D2>
7.66

>  <DOPAMINE D3>
7.2

>  <DOPAMINE D4>
8.07

>  <DOPAMINE D5>
5

>  <Dopamine transporter>
6.39

>  <HISTAMINE H1>
6.82

>  <HISTAMINE H2>
6.52

>  <HISTAMINE H3>
5

>  <HISTAMINE H4>
5

>  <Norepinephrine transporter>
5.16

>  <Serotonin transporter>
5.21

$$$$
336242
  Marvin  02231216192D 0   1.00000     0.00000     0

 24 28  0  0  1  0  0  0  0  0999 V2000
    2.2226   -2.0596    0.0000 N   0  3  0  0  0  0  0  0  0
    1.8516   -1.3227    0.0000 C   0  0  0  0  0  0  0  0  0
    1.0280   -1.2755    0.0000 C   0  0  0  0  0  0  0  0  0
    0.5119   -0.6319    0.0000 N   0  0  0  0  0  0  0  0  0
   -0.2597   -0.9238    0.0000 C   0  0  0  0  0  0  0  0  0
   -0.2205   -1.7479    0.0000 C   0  0  0  0  0  0  0  0  0
    0.5753   -1.9653    0.0000 C   0  0  0  0  0  0  0  0  0
    0.9463   -2.7021    0.0000 C   0  0  0  0  0  0  0  0  0
    1.7700   -2.7493    0.0000 C   0  0  0  0  0  0  0  0  0
   -0.9146   -2.1939    0.0000 C   0  0  0  0  0  0  0  0  0
   -1.6478   -1.8158    0.0000 C   0  0  0  0  0  0  0  0  0
   -1.6871   -0.9917    0.0000 C   0  0  0  0  0  0  0  0  0
   -0.9930   -0.5458    0.0000 C   0  0  0  0  0  0  0  0  0
    2.3043   -0.6329    0.0000 C   0  0  0  0  0  0  0  0  0
    3.1279   -0.6801    0.0000 C   0  0  0  0  0  0  0  0  0
    3.4989   -1.4170    0.0000 C   0  0  0  0  0  0  0  0  0
    3.0463   -2.1067    0.0000 C   0  0  0  0  0  0  0  0  0
    1.9333    0.1039    0.0000 C   0  0  0  0  0  0  0  0  0
    1.1096    0.1511    0.0000 C   0  0  0  0  0  0  0  0  0
    0.7387    0.8880    0.0000 C   0  0  0  0  0  0  0  0  0
    1.1913    1.5777    0.0000 C   0  0  0  0  0  0  0  0  0
    2.0150    1.5305    0.0000 C   0  0  0  0  0  0  0  0  0
    2.3860    0.7937    0.0000 C   0  0  0  0  0  0  0  0  0
    2.5936   -2.7964    0.0000 C   0  0  0  0  0  0  0  0  0
  1  2  1  0  0  0  0
  1  9  1  0  0  0  0
  1 17  1  0  0  0  0
  1 24  1  0  0  0  0
  2  3  1  0  0  0  0
  2 14  1  0  0  0  0
  3  4  4  0  0  0  0
  3  7  4  0  0  0  0
  4  5  4  0  0  0  0
  5  6  4  0  0  0  0
  5 13  4  0  0  0  0
  6  7  4  0  0  0  0
  6 10  4  0  0  0  0
  7  8  1  0  0  0  0
  8  9  1  0  0  0  0
 10 11  4  0  0  0  0
 11 12  4  0  0  0  0
 12 13  4  0  0  0  0
 14 15  1  0  0  0  0
 14 18  1  0  0  0  0
 15 16  1  0  0  0  0
 16 17  1  0  0  0  0
 18 19  4  0  0  0  0
 18 23  4  0  0  0  0
 19 20  4  0  0  0  0
 20 21  4  0  0  0  0
 21 22  4  0  0  0  0
 22 23  4  0  0  0  0
M  CHG  1   1   1
M  STY  1   1 DAT
M  SAL   1  1   4
M  SDT   1 MRV_IMPLICIT_H                                        
M  SDD   1     0.0000    0.0000    DR    ALL  0       0  
M  SED   1 IMPL_H1
M  END
>  <Name_Molregno>
336242

>  <DOPAMINE D1>
5

>  <DOPAMINE D2>
5

>  <DOPAMINE D5>
5

$$$$
336253
  Marvin  02231216192D 0   1.00000     0.00000     0

 24 26  0  0  0  0  0  0  0  0999 V2000
   -4.3147   -3.5228    0.0000 O   0  0  0  0  0  0  0  0  0
   -4.3147   -2.6978    0.0000 C   0  0  0  0  0  0  0  0  0
   -3.6002   -2.2853    0.0000 C   0  0  0  0  0  0  0  0  0
   -2.8857   -2.6978    0.0000 C   0  0  0  0  0  0  0  0  0
   -2.1712   -2.2853    0.0000 C   0  0  0  0  0  0  0  0  0
   -2.1712   -1.4603    0.0000 O   0  0  0  0  0  0  0  0  0
   -1.4568   -2.6978    0.0000 N   0  0  0  0  0  0  0  0  0
   -0.7423   -2.2853    0.0000 C   0  0  0  0  0  0  0  0  0
   -0.0278   -2.6978    0.0000 C   0  0  0  0  0  0  0  0  0
    0.6866   -2.2853    0.0000 C   0  0  0  0  0  0  0  0  0
    1.4403   -2.6209    0.0000 C   0  0  0  0  0  0  0  0  0
    1.9924   -2.0078    0.0000 C   0  0  0  0  0  0  0  0  0
    1.5799   -1.2933    0.0000 N   0  0  0  0  0  0  0  0  0
    0.7729   -1.4649    0.0000 C   0  0  0  0  0  0  0  0  0
    2.7993   -2.1793    0.0000 C   0  0  0  0  0  0  0  0  0
    3.0543   -2.9639    0.0000 C   0  0  0  0  0  0  0  0  0
    2.5022   -3.5770    0.0000 C   0  0  0  0  0  0  0  0  0
    1.6953   -3.4055    0.0000 C   0  0  0  0  0  0  0  0  0
   -5.0291   -2.2853    0.0000 C   0  0  0  0  0  0  0  0  0
   -5.7436   -2.6978    0.0000 C   0  0  0  0  0  0  0  0  0
   -6.4581   -2.2853    0.0000 C   0  0  0  0  0  0  0  0  0
   -6.4581   -1.4603    0.0000 C   0  0  0  0  0  0  0  0  0
   -5.7436   -1.0478    0.0000 C   0  0  0  0  0  0  0  0  0
   -5.0291   -1.4603    0.0000 C   0  0  0  0  0  0  0  0  0
  1  2  2  0  0  0  0
  2  3  1  0  0  0  0
  2 19  1  0  0  0  0
  3  4  1  0  0  0  0
  4  5  1  0  0  0  0
  5  6  2  0  0  0  0
  5  7  1  0  0  0  0
  7  8  1  0  0  0  0
  8  9  1  0  0  0  0
  9 10  1  0  0  0  0
 10 11  4  0  0  0  0
 10 14  4  0  0  0  0
 11 12  4  0  0  0  0
 11 18  4  0  0  0  0
 12 13  4  0  0  0  0
 12 15  4  0  0  0  0
 13 14  4  0  0  0  0
 15 16  4  0  0  0  0
 16 17  4  0  0  0  0
 17 18  4  0  0  0  0
 19 20  4  0  0  0  0
 19 24  4  0  0  0  0
 20 21  4  0  0  0  0
 21 22  4  0  0  0  0
 22 23  4  0  0  0  0
 23 24  4  0  0  0  0
M  STY  1   1 DAT
M  SAL   1  1  13
M  SDT   1 MRV_IMPLICIT_H                                        
M  SDD   1     0.0000    0.0000    DR    ALL  0       0  
M  SED   1 IMPL_H1
M  END
>  <Name_Molregno>
336253

>  <DOPAMINE D1>
5

>  <DOPAMINE D2>
5

>  <DOPAMINE D5>
5

$$$$
336254
  Marvin  02231216192D 0   1.00000     0.00000     0

 23 27  0  0  1  0  0  0  0  0999 V2000
   -0.1820    0.1589    0.0000 N   0  0  0  0  0  0  0  0  0
    0.3341    0.8025    0.0000 C   0  0  0  0  0  0  0  0  0
   -0.1186    1.4923    0.0000 C   0  0  0  0  0  0  0  0  0
    0.2524    2.2292    0.0000 C   0  0  0  0  0  0  0  0  0
    1.0761    2.2763    0.0000 C   0  0  0  0  0  0  0  0  0
    1.5287    1.5866    0.0000 N   0  0  0  0  0  0  0  0  0
    2.3524    1.6337    0.0000 C   0  0  0  0  0  0  0  0  0
    2.8050    0.9440    0.0000 C   0  0  0  0  0  0  0  0  0
    2.4340    0.2071    0.0000 C   0  0  0  0  0  0  0  0  0
    1.6104    0.1600    0.0000 C   0  0  0  0  0  0  0  0  0
    1.1577    0.8497    0.0000 C   0  0  0  0  0  0  0  0  0
    1.0326    0.0342    0.0000 C   0  0  0  0  0  0  0  0  0
    1.6762   -0.4819    0.0000 C   0  0  0  0  0  0  0  0  0
    1.5511   -1.2973    0.0000 C   0  0  0  0  0  0  0  0  0
    0.7823   -1.5967    0.0000 C   0  0  0  0  0  0  0  0  0
    0.1387   -1.0806    0.0000 C   0  0  0  0  0  0  0  0  0
    0.2638   -0.2651    0.0000 C   0  0  0  0  0  0  0  0  0
   -0.9144    1.2749    0.0000 C   0  0  0  0  0  0  0  0  0
   -0.9536    0.4508    0.0000 C   0  0  0  0  0  0  0  0  0
   -1.6869    0.0728    0.0000 C   0  0  0  0  0  0  0  0  0
   -2.3810    0.5188    0.0000 C   0  0  0  0  0  0  0  0  0
   -2.3418    1.3428    0.0000 C   0  0  0  0  0  0  0  0  0
   -1.6085    1.7209    0.0000 C   0  0  0  0  0  0  0  0  0
  1  2  4  0  0  0  0
  1 19  4  0  0  0  0
  2  3  4  0  0  0  0
  2 11  1  0  0  0  0
  3  4  1  0  0  0  0
  3 18  4  0  0  0  0
  4  5  1  0  0  0  0
  5  6  1  0  0  0  0
  6  7  1  0  0  0  0
  6 11  1  0  0  0  0
  7  8  1  0  0  0  0
  8  9  1  0  0  0  0
  9 10  1  0  0  0  0
 10 11  1  0  0  0  0
 11 12  1  0  0  0  0
 12 13  4  0  0  0  0
 12 17  4  0  0  0  0
 13 14  4  0  0  0  0
 14 15  4  0  0  0  0
 15 16  4  0  0  0  0
 16 17  4  0  0  0  0
 18 19  4  0  0  0  0
 18 23  4  0  0  0  0
 19 20  4  0  0  0  0
 20 21  4  0  0  0  0
 21 22  4  0  0  0  0
 22 23  4  0  0  0  0
M  STY  1   1 DAT
M  SAL   1  1   1
M  SDT   1 MRV_IMPLICIT_H                                        
M  SDD   1     0.0000    0.0000    DR    ALL  0       0  
M  SED   1 IMPL_H1
M  END
>  <Name_Molregno>
336254

>  <DOPAMINE D1>
5

>  <DOPAMINE D2>
5

>  <DOPAMINE D5>
5

$$$$
336308
  Marvin  02231216192D 0   1.00000     0.00000     0

 25 27  0  0  0  0  0  0  0  0999 V2000
   -5.7649   -1.6632    0.0000 O   0  0  0  0  0  0  0  0  0
   -5.7649   -0.8382    0.0000 C   0  0  0  0  0  0  0  0  0
   -5.0504   -0.4257    0.0000 C   0  0  0  0  0  0  0  0  0
   -4.3359   -0.8382    0.0000 C   0  0  0  0  0  0  0  0  0
   -3.6215   -0.4257    0.0000 C   0  0  0  0  0  0  0  0  0
   -2.9070   -0.8382    0.0000 C   0  0  0  0  0  0  0  0  0
   -2.9070   -1.6632    0.0000 O   0  0  0  0  0  0  0  0  0
   -2.1925   -0.4257    0.0000 N   0  0  0  0  0  0  0  0  0
   -1.4781   -0.8382    0.0000 C   0  0  0  0  0  0  0  0  0
   -0.7636   -0.4257    0.0000 C   0  0  0  0  0  0  0  0  0
   -0.0491   -0.8382    0.0000 C   0  0  0  0  0  0  0  0  0
    0.0371   -1.6587    0.0000 C   0  0  0  0  0  0  0  0  0
    0.8441   -1.8302    0.0000 C   0  0  0  0  0  0  0  0  0
    1.2566   -1.1157    0.0000 N   0  0  0  0  0  0  0  0  0
    0.7046   -0.5026    0.0000 C   0  0  0  0  0  0  0  0  0
    1.0990   -2.6148    0.0000 C   0  0  0  0  0  0  0  0  0
    0.5470   -3.2279    0.0000 C   0  0  0  0  0  0  0  0  0
   -0.2600   -3.0564    0.0000 C   0  0  0  0  0  0  0  0  0
   -0.5149   -2.2718    0.0000 C   0  0  0  0  0  0  0  0  0
   -6.4794   -0.4257    0.0000 C   0  0  0  0  0  0  0  0  0
   -7.1938   -0.8382    0.0000 C   0  0  0  0  0  0  0  0  0
   -7.9083   -0.4257    0.0000 C   0  0  0  0  0  0  0  0  0
   -7.9083    0.3993    0.0000 C   0  0  0  0  0  0  0  0  0
   -7.1938    0.8118    0.0000 C   0  0  0  0  0  0  0  0  0
   -6.4794    0.3993    0.0000 C   0  0  0  0  0  0  0  0  0
  1  2  2  0  0  0  0
  2  3  1  0  0  0  0
  2 20  1  0  0  0  0
  3  4  1  0  0  0  0
  4  5  1  0  0  0  0
  5  6  1  0  0  0  0
  6  7  2  0  0  0  0
  6  8  1  0  0  0  0
  8  9  1  0  0  0  0
  9 10  1  0  0  0  0
 10 11  1  0  0  0  0
 11 12  4  0  0  0  0
 11 15  4  0  0  0  0
 12 13  4  0  0  0  0
 12 19  4  0  0  0  0
 13 14  4  0  0  0  0
 13 16  4  0  0  0  0
 14 15  4  0  0  0  0
 16 17  4  0  0  0  0
 17 18  4  0  0  0  0
 18 19  4  0  0  0  0
 20 21  4  0  0  0  0
 20 25  4  0  0  0  0
 21 22  4  0  0  0  0
 22 23  4  0  0  0  0
 23 24  4  0  0  0  0
 24 25  4  0  0  0  0
M  STY  1   1 DAT
M  SAL   1  1  14
M  SDT   1 MRV_IMPLICIT_H                                        
M  SDD   1     0.0000    0.0000    DR    ALL  0       0  
M  SED   1 IMPL_H1
M  END
>  <Name_Molregno>
336308

>  <DOPAMINE D1>
5

>  <DOPAMINE D2>
5

>  <DOPAMINE D5>
5

$$$$
336361
  Marvin  02231216192D 0   1.00000     0.00000     0

 30 33  0  0  0  0  0  0  0  0999 V2000
    2.2628    2.2430    0.0000 O   0  0  0  0  0  0  0  0  0
    1.5483    2.6555    0.0000 C   0  0  0  0  0  0  0  0  0
    2.2628    1.4180    0.0000 C   0  0  0  0  0  0  0  0  0
    2.9773    1.0055    0.0000 C   0  0  0  0  0  0  0  0  0
    2.9773    0.1805    0.0000 C   0  0  0  0  0  0  0  0  0
    3.6917   -0.2320    0.0000 C   0  0  0  0  0  0  0  0  0
    4.4062    0.1805    0.0000 C   0  0  0  0  0  0  0  0  0
    5.1207   -0.2320    0.0000 C   0  0  0  0  0  0  0  0  0
    5.1207   -1.0570    0.0000 C   0  0  0  0  0  0  0  0  0
    4.4062   -1.4695    0.0000 C   0  0  0  0  0  0  0  0  0
    3.6917   -1.0570    0.0000 N   0  0  0  0  0  0  0  0  0
    2.9773   -1.4695    0.0000 C   0  0  0  0  0  0  0  0  0
    2.2628   -1.0570    0.0000 C   0  0  0  0  0  0  0  0  0
    2.2628   -0.2320    0.0000 C   0  0  0  0  0  0  0  0  0
    1.5483    0.1805    0.0000 C   0  0  0  0  0  0  0  0  0
    1.5483    1.0055    0.0000 C   0  0  0  0  0  0  0  0  0
    0.8338    1.4180    0.0000 O   0  0  0  0  0  0  0  0  0
    0.1194    1.0055    0.0000 C   0  0  0  0  0  0  0  0  0
    3.6917   -1.8820    0.0000 C   0  0  0  0  0  0  0  0  0
    4.4062   -2.2945    0.0000 C   0  0  0  0  0  0  0  0  0
    4.4062   -3.1195    0.0000 C   0  0  0  0  0  0  0  0  0
    5.1207   -3.5320    0.0000 C   0  0  0  0  0  0  0  0  0
    5.1207   -4.3570    0.0000 C   0  0  0  0  0  0  0  0  0
    4.4062   -4.7695    0.0000 C   0  0  0  0  0  0  0  0  0
    3.6917   -4.3570    0.0000 C   0  0  0  0  0  0  0  0  0
    3.6917   -3.5320    0.0000 C   0  0  0  0  0  0  0  0  0
    5.8351    0.1805    0.0000 C   0  0  0  0  0  0  0  0  0
    5.8351    1.0055    0.0000 C   0  0  0  0  0  0  0  0  0
    5.1207    1.4180    0.0000 C   0  0  0  0  0  0  0  0  0
    4.4062    1.0055    0.0000 C   0  0  0  0  0  0  0  0  0
  1  2  1  0  0  0  0
  1  3  1  0  0  0  0
  3  4  4  0  0  0  0
  3 16  4  0  0  0  0
  4  5  4  0  0  0  0
  5  6  1  0  0  0  0
  5 14  4  0  0  0  0
  6  7  1  0  0  0  0
  7  8  4  0  0  0  0
  7 30  4  0  0  0  0
  8  9  1  0  0  0  0
  8 27  4  0  0  0  0
  9 10  1  0  0  0  0
 10 11  1  0  0  0  0
 11 12  1  0  0  0  0
 11 19  1  0  0  0  0
 12 13  1  0  0  0  0
 13 14  1  0  0  0  0
 14 15  4  0  0  0  0
 15 16  4  0  0  0  0
 16 17  1  0  0  0  0
 17 18  1  0  0  0  0
 19 20  1  0  0  0  0
 20 21  1  0  0  0  0
 21 22  4  0  0  0  0
 21 26  4  0  0  0  0
 22 23  4  0  0  0  0
 23 24  4  0  0  0  0
 24 25  4  0  0  0  0
 25 26  4  0  0  0  0
 27 28  4  0  0  0  0
 28 29  4  0  0  0  0
 29 30  4  0  0  0  0
M  END
>  <Name_Molregno>
336361

>  <DOPAMINE D1>
5

>  <DOPAMINE D2>
5

>  <DOPAMINE D5>
5

$$$$
336384
  Marvin  02231216192D 0   1.00000     0.00000     0

 23 27  0  0  1  0  0  0  0  0999 V2000
   -0.1346   -0.6978    0.0000 N   0  0  0  0  0  0  0  0  0
    0.3815   -0.0542    0.0000 C   0  0  0  0  0  0  0  0  0
    1.2052   -0.0070    0.0000 C   0  0  0  0  0  0  0  0  0
    1.5762    0.7298    0.0000 N   0  0  0  0  0  0  0  0  0
    2.3998    0.7770    0.0000 C   0  0  0  0  0  0  0  0  0
    2.8525    0.0873    0.0000 C   0  0  0  0  0  0  0  0  0
    2.4815   -0.6496    0.0000 C   0  0  0  0  0  0  0  0  0
    1.6578   -0.6968    0.0000 C   0  0  0  0  0  0  0  0  0
    1.2868   -1.4336    0.0000 C   0  0  0  0  0  0  0  0  0
    1.7395   -2.1234    0.0000 C   0  0  0  0  0  0  0  0  0
    1.3685   -2.8602    0.0000 C   0  0  0  0  0  0  0  0  0
    0.5448   -2.9074    0.0000 C   0  0  0  0  0  0  0  0  0
    0.0922   -2.2177    0.0000 C   0  0  0  0  0  0  0  0  0
    0.4632   -1.4808    0.0000 C   0  0  0  0  0  0  0  0  0
    1.1235    1.4196    0.0000 C   0  0  0  0  0  0  0  0  0
    0.2999    1.3724    0.0000 C   0  0  0  0  0  0  0  0  0
   -0.0711    0.6355    0.0000 C   0  0  0  0  0  0  0  0  0
   -0.8670    0.4182    0.0000 C   0  0  0  0  0  0  0  0  0
   -0.9062   -0.4059    0.0000 C   0  0  0  0  0  0  0  0  0
   -1.6395   -0.7840    0.0000 C   0  0  0  0  0  0  0  0  0
   -2.3335   -0.3380    0.0000 C   0  0  0  0  0  0  0  0  0
   -2.2943    0.4861    0.0000 C   0  0  0  0  0  0  0  0  0
   -1.5611    0.8642    0.0000 C   0  0  0  0  0  0  0  0  0
  1  2  4  0  0  0  0
  1 19  4  0  0  0  0
  2  3  1  0  0  0  0
  2 17  4  0  0  0  0
  3  4  1  0  0  0  0
  3  8  1  0  0  0  0
  4  5  1  0  0  0  0
  4 15  1  0  0  0  0
  5  6  1  0  0  0  0
  6  7  1  0  0  0  0
  7  8  1  0  0  0  0
  8  9  1  0  0  0  0
  9 10  4  0  0  0  0
  9 14  4  0  0  0  0
 10 11  4  0  0  0  0
 11 12  4  0  0  0  0
 12 13  4  0  0  0  0
 13 14  4  0  0  0  0
 15 16  1  0  0  0  0
 16 17  1  0  0  0  0
 17 18  4  0  0  0  0
 18 19  4  0  0  0  0
 18 23  4  0  0  0  0
 19 20  4  0  0  0  0
 20 21  4  0  0  0  0
 21 22  4  0  0  0  0
 22 23  4  0  0  0  0
M  STY  1   1 DAT
M  SAL   1  1   1
M  SDT   1 MRV_IMPLICIT_H                                        
M  SDD   1     0.0000    0.0000    DR    ALL  0       0  
M  SED   1 IMPL_H1
M  END
>  <Name_Molregno>
336384

>  <DOPAMINE D1>
5

>  <DOPAMINE D2>
5

>  <DOPAMINE D5>
5

$$$$
336398
  Marvin  02231216192D 0   1.00000     0.00000     0

 22 25  0  0  0  0  0  0  0  0999 V2000
    0.5707   -0.1376    0.0000 N   0  0  0  0  0  0  0  0  0
    0.8482   -0.9146    0.0000 C   0  0  0  0  0  0  0  0  0
    1.6112   -1.2283    0.0000 C   0  0  0  0  0  0  0  0  0
    2.2644   -0.7243    0.0000 C   0  0  0  0  0  0  0  0  0
    3.0274   -1.0380    0.0000 C   0  0  0  0  0  0  0  0  0
    3.5616   -0.4093    0.0000 N   0  0  0  0  0  0  0  0  0
    3.1287    0.2930    0.0000 C   0  0  0  0  0  0  0  0  0
    2.3270    0.0983    0.0000 C   0  0  0  0  0  0  0  0  0
    4.3842   -0.4719    0.0000 C   0  0  0  0  0  0  0  0  0
    3.1373   -1.8557    0.0000 C   0  0  0  0  0  0  0  0  0
    2.4841   -2.3596    0.0000 C   0  0  0  0  0  0  0  0  0
    1.7210   -2.0459    0.0000 N   0  0  0  0  0  0  0  0  0
    1.0678   -2.5499    0.0000 C   0  0  0  0  0  0  0  0  0
    0.3048   -2.2362    0.0000 C   0  0  0  0  0  0  0  0  0
    0.1950   -1.4185    0.0000 C   0  0  0  0  0  0  0  0  0
   -0.4861   -0.9530    0.0000 C   0  0  0  0  0  0  0  0  0
   -0.2539   -0.1614    0.0000 C   0  0  0  0  0  0  0  0  0
   -0.8234    0.4356    0.0000 C   0  0  0  0  0  0  0  0  0
   -1.6251    0.2409    0.0000 C   0  0  0  0  0  0  0  0  0
   -1.8573   -0.5508    0.0000 C   0  0  0  0  0  0  0  0  0
   -1.2878   -1.1477    0.0000 C   0  0  0  0  0  0  0  0  0
    1.1516   -1.4490    0.0000 C   0  0  0  0  0  0  0  0  0
  1  2  4  0  0  0  0
  1 17  4  0  0  0  0
  2  3  1  0  0  0  0
  2 15  4  0  0  0  0
  3  4  1  0  0  0  0
  4  5  4  0  0  0  0
  4  8  4  0  0  0  0
  5  6  4  0  0  0  0
  5 10  1  0  0  0  0
  6  7  4  0  0  0  0
  6  9  1  0  0  0  0
  7  8  4  0  0  0  0
 10 11  1  0  0  0  0
 11 12  1  0  0  0  0
 12 13  1  0  0  0  0
 12 22  1  0  0  0  0
 13 14  1  0  0  0  0
 14 15  1  0  0  0  0
 15 16  4  0  0  0  0
 16 17  4  0  0  0  0
 16 21  4  0  0  0  0
 17 18  4  0  0  0  0
 18 19  4  0  0  0  0
 19 20  4  0  0  0  0
 20 21  4  0  0  0  0
M  STY  1   1 DAT
M  SAL   1  1   1
M  SDT   1 MRV_IMPLICIT_H                                        
M  SDD   1     0.0000    0.0000    DR    ALL  0       0  
M  SED   1 IMPL_H1
M  END
>  <Name_Molregno>
336398

>  <DOPAMINE D1>
5

>  <DOPAMINE D2>
5

>  <DOPAMINE D5>
5

$$$$
336399
  Marvin  02231216192D 0   1.00000     0.00000     0

 14 14  0  0  1  0  0  0  0  0999 V2000
   -1.5871    0.5681    0.0000 Br  0  0  0  0  0  0  0  0  0
   -0.7621    0.5681    0.0000 C   0  0  0  0  0  0  0  0  0
   -0.3496    1.2825    0.0000 C   0  0  0  0  0  0  0  0  0
    0.4754    1.2825    0.0000 C   0  0  0  0  0  0  0  0  0
    0.8879    0.5681    0.0000 O   0  0  0  0  0  0  0  0  0
    1.7129    0.5681    0.0000 C   0  0  0  0  0  0  0  0  0
    2.1254   -0.1464    0.0000 C   0  0  0  0  0  0  0  0  0
    0.8879    1.9970    0.0000 O   0  0  0  0  0  0  0  0  0
   -0.7621    1.9970    0.0000 C   0  0  0  0  0  0  0  0  0
   -1.5871    1.9970    0.0000 C   0  0  0  0  0  0  0  0  0
   -1.9996    2.7115    0.0000 C   0  0  0  0  0  0  0  0  0
   -1.5871    3.4260    0.0000 C   0  0  0  0  0  0  0  0  0
   -0.7621    3.4260    0.0000 C   0  0  0  0  0  0  0  0  0
   -0.3496    2.7115    0.0000 C   0  0  0  0  0  0  0  0  0
  1  2  1  0  0  0  0
  2  3  1  0  0  0  0
  3  4  1  0  0  0  0
  3  9  1  0  0  0  0
  4  5  1  0  0  0  0
  4  8  2  0  0  0  0
  5  6  1  0  0  0  0
  6  7  1  0  0  0  0
  9 10  4  0  0  0  0
  9 14  4  0  0  0  0
 10 11  4  0  0  0  0
 11 12  4  0  0  0  0
 12 13  4  0  0  0  0
 13 14  4  0  0  0  0
M  END
>  <Name_Molregno>
336399

>  <DOPAMINE D1>
5

>  <DOPAMINE D2>
5

>  <DOPAMINE D5>
5

$$$$
336408
  Marvin  02231216192D 0   1.00000     0.00000     0

 22 26  0  0  1  0  0  0  0  0999 V2000
   -0.0117   -1.0725    0.0000 N   0  0  0  0  0  0  0  0  0
    0.5164   -0.4387    0.0000 C   0  0  0  0  0  0  0  0  0
    1.3408   -0.4071    0.0000 C   0  0  0  0  0  0  0  0  0
    1.7256    0.3226    0.0000 N   0  0  0  0  0  0  0  0  0
    2.5386    0.1821    0.0000 C   0  0  0  0  0  0  0  0  0
    2.6562   -0.6344    0.0000 C   0  0  0  0  0  0  0  0  0
    1.9159   -0.9986    0.0000 C   0  0  0  0  0  0  0  0  0
    3.3859   -1.0193    0.0000 C   0  0  0  0  0  0  0  0  0
    4.0841   -0.5797    0.0000 C   0  0  0  0  0  0  0  0  0
    4.8138   -0.9645    0.0000 C   0  0  0  0  0  0  0  0  0
    4.8454   -1.7889    0.0000 C   0  0  0  0  0  0  0  0  0
    4.1473   -2.2285    0.0000 C   0  0  0  0  0  0  0  0  0
    3.4175   -1.8437    0.0000 C   0  0  0  0  0  0  0  0  0
    1.2861    1.0208    0.0000 C   0  0  0  0  0  0  0  0  0
    0.4617    0.9892    0.0000 C   0  0  0  0  0  0  0  0  0
    0.0769    0.2594    0.0000 C   0  0  0  0  0  0  0  0  0
   -0.7230    0.0571    0.0000 C   0  0  0  0  0  0  0  0  0
   -0.7777   -0.7661    0.0000 C   0  0  0  0  0  0  0  0  0
   -1.5180   -1.1303    0.0000 C   0  0  0  0  0  0  0  0  0
   -2.2035   -0.6713    0.0000 C   0  0  0  0  0  0  0  0  0
   -2.1488    0.1519    0.0000 C   0  0  0  0  0  0  0  0  0
   -1.4085    0.5161    0.0000 C   0  0  0  0  0  0  0  0  0
  1  2  4  0  0  0  0
  1 18  4  0  0  0  0
  2  3  1  0  0  0  0
  2 16  4  0  0  0  0
  3  4  1  0  0  0  0
  3  7  1  0  0  0  0
  4  5  1  0  0  0  0
  4 14  1  0  0  0  0
  5  6  1  0  0  0  0
  6  7  1  0  0  0  0
  6  8  1  0  0  0  0
  8  9  4  0  0  0  0
  8 13  4  0  0  0  0
  9 10  4  0  0  0  0
 10 11  4  0  0  0  0
 11 12  4  0  0  0  0
 12 13  4  0  0  0  0
 14 15  1  0  0  0  0
 15 16  1  0  0  0  0
 16 17  4  0  0  0  0
 17 18  4  0  0  0  0
 17 22  4  0  0  0  0
 18 19  4  0  0  0  0
 19 20  4  0  0  0  0
 20 21  4  0  0  0  0
 21 22  4  0  0  0  0
M  STY  1   1 DAT
M  SAL   1  1   1
M  SDT   1 MRV_IMPLICIT_H                                        
M  SDD   1     0.0000    0.0000    DR    ALL  0       0  
M  SED   1 IMPL_H1
M  END
>  <Name_Molregno>
336408

>  <DOPAMINE D1>
5

>  <DOPAMINE D2>
5

>  <DOPAMINE D5>
5

$$$$
336434
  Marvin  02231216192D 0   1.00000     0.00000     0

 16 16  0  0  1  0  0  0  0  0999 V2000
   -1.0968   -2.5258    0.0000 Br  0  0  0  0  0  0  0  0  0
   -1.0968   -1.7008    0.0000 C   0  0  0  0  0  0  0  0  0
   -0.3823   -1.2883    0.0000 C   0  0  0  0  0  0  0  0  0
    0.3322   -1.7008    0.0000 C   0  0  0  0  0  0  0  0  0
    1.0467   -1.2883    0.0000 C   0  0  0  0  0  0  0  0  0
    1.7611   -1.7008    0.0000 C   0  0  0  0  0  0  0  0  0
    2.4756   -1.2883    0.0000 O   0  0  0  0  0  0  0  0  0
    3.1901   -1.7008    0.0000 C   0  0  0  0  0  0  0  0  0
    3.9045   -1.2883    0.0000 C   0  0  0  0  0  0  0  0  0
    1.7611   -2.5258    0.0000 O   0  0  0  0  0  0  0  0  0
   -1.8112   -1.2883    0.0000 C   0  0  0  0  0  0  0  0  0
   -2.5257   -1.7008    0.0000 C   0  0  0  0  0  0  0  0  0
   -3.2402   -1.2883    0.0000 C   0  0  0  0  0  0  0  0  0
   -3.2402   -0.4633    0.0000 C   0  0  0  0  0  0  0  0  0
   -2.5257   -0.0508    0.0000 C   0  0  0  0  0  0  0  0  0
   -1.8112   -0.4633    0.0000 C   0  0  0  0  0  0  0  0  0
  1  2  1  0  0  0  0
  2  3  1  0  0  0  0
  2 11  1  0  0  0  0
  3  4  1  0  0  0  0
  4  5  1  0  0  0  0
  5  6  1  0  0  0  0
  6  7  1  0  0  0  0
  6 10  2  0  0  0  0
  7  8  1  0  0  0  0
  8  9  1  0  0  0  0
 11 12  4  0  0  0  0
 11 16  4  0  0  0  0
 12 13  4  0  0  0  0
 13 14  4  0  0  0  0
 14 15  4  0  0  0  0
 15 16  4  0  0  0  0
M  END
>  <Name_Molregno>
336434

>  <DOPAMINE D1>
5

>  <DOPAMINE D2>
5

>  <DOPAMINE D5>
5

$$$$
336442
  Marvin  02231216192D 0   1.00000     0.00000     0

 13 14  0  0  1  0  0  0  0  0999 V2000
   -0.9286    1.4404    0.0000 O   0  0  0  0  0  0  0  0  0
   -0.9286    0.6154    0.0000 C   0  0  0  0  0  0  0  0  0
   -1.6430    0.2029    0.0000 C   0  0  0  0  0  0  0  0  0
   -2.3575    0.6154    0.0000 C   0  0  0  0  0  0  0  0  0
   -2.3575    1.4404    0.0000 C   0  0  0  0  0  0  0  0  0
   -1.6430    1.8529    0.0000 C   0  0  0  0  0  0  0  0  0
   -1.6430    2.6779    0.0000 O   0  0  0  0  0  0  0  0  0
   -0.2141    0.2029    0.0000 C   0  0  0  0  0  0  0  0  0
    0.5004    0.6154    0.0000 C   0  0  0  0  0  0  0  0  0
    1.2148    0.2029    0.0000 C   0  0  0  0  0  0  0  0  0
    1.2148   -0.6221    0.0000 C   0  0  0  0  0  0  0  0  0
    0.5004   -1.0346    0.0000 C   0  0  0  0  0  0  0  0  0
   -0.2141   -0.6221    0.0000 C   0  0  0  0  0  0  0  0  0
  1  2  1  0  0  0  0
  1  6  1  0  0  0  0
  2  3  1  0  0  0  0
  2  8  1  0  0  0  0
  3  4  1  0  0  0  0
  4  5  1  0  0  0  0
  5  6  1  0  0  0  0
  6  7  2  0  0  0  0
  8  9  4  0  0  0  0
  8 13  4  0  0  0  0
  9 10  4  0  0  0  0
 10 11  4  0  0  0  0
 11 12  4  0  0  0  0
 12 13  4  0  0  0  0
M  END
>  <Name_Molregno>
336442

>  <DOPAMINE D1>
5

>  <DOPAMINE D2>
5

>  <DOPAMINE D5>
5

$$$$
336455
  Marvin  02231216192D 0   1.00000     0.00000     0

 20 22  0  0  0  0  0  0  0  0999 V2000
   -1.8873   -2.9098    0.0000 S   0  0  0  0  0  0  0  0  0
   -1.3000   -2.3304    0.0000 C   0  0  0  0  0  0  0  0  0
   -1.3377   -1.5063    0.0000 C   0  0  0  0  0  0  0  0  0
   -0.6427   -1.0616    0.0000 C   0  0  0  0  0  0  0  0  0
    0.0898   -1.4411    0.0000 N   0  0  0  0  0  0  0  0  0
    0.7847   -0.9965    0.0000 C   0  0  0  0  0  0  0  0  0
    1.5173   -1.3760    0.0000 C   0  0  0  0  0  0  0  0  0
    1.5549   -2.2001    0.0000 C   0  0  0  0  0  0  0  0  0
    0.8599   -2.6448    0.0000 C   0  0  0  0  0  0  0  0  0
    0.1274   -2.2653    0.0000 C   0  0  0  0  0  0  0  0  0
   -0.5675   -2.7099    0.0000 C   0  0  0  0  0  0  0  0  0
   -0.7021   -3.5239    0.0000 C   0  0  0  0  0  0  0  0  0
   -1.5178   -3.6474    0.0000 C   0  0  0  0  0  0  0  0  0
    0.8975   -3.4689    0.0000 C   0  0  0  0  0  0  0  0  0
    1.6301   -3.8484    0.0000 C   0  0  0  0  0  0  0  0  0
    2.3250   -3.4038    0.0000 C   0  0  0  0  0  0  0  0  0
    2.2874   -2.5796    0.0000 C   0  0  0  0  0  0  0  0  0
    0.0522   -0.6170    0.0000 C   0  0  0  0  0  0  0  0  0
    0.7471   -0.1724    0.0000 C   0  0  0  0  0  0  0  0  0
    0.7095    0.6518    0.0000 C   0  0  0  0  0  0  0  0  0
  1  2  4  0  0  0  0
  1 13  4  0  0  0  0
  2  3  1  0  0  0  0
  2 11  4  0  0  0  0
  3  4  1  0  0  0  0
  4  5  1  0  0  0  0
  5  6  1  0  0  0  0
  5 18  1  0  0  0  0
  6  7  1  0  0  0  0
  7  8  1  0  0  0  0
  8  9  4  0  0  0  0
  8 17  4  0  0  0  0
  9 10  1  0  0  0  0
  9 14  4  0  0  0  0
 10 11  1  0  0  0  0
 11 12  4  0  0  0  0
 12 13  4  0  0  0  0
 14 15  4  0  0  0  0
 15 16  4  0  0  0  0
 16 17  4  0  0  0  0
 18 19  1  0  0  0  0
 19 20  2  0  0  0  0
M  END
>  <Name_Molregno>
336455

>  <DOPAMINE D1>
5

>  <DOPAMINE D2>
5

>  <DOPAMINE D5>
5

$$$$
336466
  Marvin  02231216192D 0   1.00000     0.00000     0

 25 27  0  0  0  0  0  0  0  0999 V2000
    1.7723    1.4274    0.0000 O   0  0  0  0  0  0  0  0  0
    1.0578    1.8399    0.0000 C   0  0  0  0  0  0  0  0  0
    1.7723    0.6024    0.0000 C   0  0  0  0  0  0  0  0  0
    2.4868    0.1899    0.0000 C   0  0  0  0  0  0  0  0  0
    2.4868   -0.6351    0.0000 C   0  0  0  0  0  0  0  0  0
    3.2013   -1.0476    0.0000 C   0  0  0  0  0  0  0  0  0
    3.9157   -0.6351    0.0000 C   0  0  0  0  0  0  0  0  0
    4.6302   -1.0476    0.0000 C   0  0  0  0  0  0  0  0  0
    4.6302   -1.8726    0.0000 C   0  0  0  0  0  0  0  0  0
    3.9157   -2.2851    0.0000 C   0  0  0  0  0  0  0  0  0
    3.2013   -1.8726    0.0000 N   0  0  0  0  0  0  0  0  0
    2.4868   -2.2851    0.0000 C   0  0  0  0  0  0  0  0  0
    1.7723   -1.8726    0.0000 C   0  0  0  0  0  0  0  0  0
    1.7723   -1.0476    0.0000 C   0  0  0  0  0  0  0  0  0
    1.0578   -0.6351    0.0000 C   0  0  0  0  0  0  0  0  0
    1.0578    0.1899    0.0000 C   0  0  0  0  0  0  0  0  0
    0.3434    0.6024    0.0000 O   0  0  0  0  0  0  0  0  0
   -0.3711    0.1899    0.0000 C   0  0  0  0  0  0  0  0  0
    3.2013   -2.6976    0.0000 C   0  0  0  0  0  0  0  0  0
    2.4868   -3.1101    0.0000 C   0  0  0  0  0  0  0  0  0
    2.4868   -3.9351    0.0000 C   0  0  0  0  0  0  0  0  0
    5.3447   -0.6351    0.0000 C   0  0  0  0  0  0  0  0  0
    5.3447    0.1899    0.0000 C   0  0  0  0  0  0  0  0  0
    4.6302    0.6024    0.0000 C   0  0  0  0  0  0  0  0  0
    3.9157    0.1899    0.0000 C   0  0  0  0  0  0  0  0  0
  1  2  1  0  0  0  0
  1  3  1  0  0  0  0
  3  4  4  0  0  0  0
  3 16  4  0  0  0  0
  4  5  4  0  0  0  0
  5  6  1  0  0  0  0
  5 14  4  0  0  0  0
  6  7  1  0  0  0  0
  7  8  4  0  0  0  0
  7 25  4  0  0  0  0
  8  9  1  0  0  0  0
  8 22  4  0  0  0  0
  9 10  1  0  0  0  0
 10 11  1  0  0  0  0
 11 12  1  0  0  0  0
 11 19  1  0  0  0  0
 12 13  1  0  0  0  0
 13 14  1  0  0  0  0
 14 15  4  0  0  0  0
 15 16  4  0  0  0  0
 16 17  1  0  0  0  0
 17 18  1  0  0  0  0
 19 20  1  0  0  0  0
 20 21  2  0  0  0  0
 22 23  4  0  0  0  0
 23 24  4  0  0  0  0
 24 25  4  0  0  0  0
M  END
>  <Name_Molregno>
336466

>  <DOPAMINE D1>
5

>  <DOPAMINE D2>
5

>  <DOPAMINE D5>
5

$$$$
336480
  Marvin  02231216192D 0   1.00000     0.00000     0

 22 26  0  0  1  0  0  0  0  0999 V2000
    0.4105   -1.9659    0.0000 N   0  0  0  0  0  0  0  0  0
    0.9386   -1.3321    0.0000 C   0  0  0  0  0  0  0  0  0
    1.7630   -1.3005    0.0000 C   0  0  0  0  0  0  0  0  0
    2.1478   -0.5708    0.0000 N   0  0  0  0  0  0  0  0  0
    1.7083    0.1274    0.0000 C   0  0  0  0  0  0  0  0  0
    0.8839    0.0958    0.0000 C   0  0  0  0  0  0  0  0  0
    0.4990   -0.6340    0.0000 C   0  0  0  0  0  0  0  0  0
   -0.3008   -0.8363    0.0000 C   0  0  0  0  0  0  0  0  0
   -0.3555   -1.6595    0.0000 C   0  0  0  0  0  0  0  0  0
   -1.0958   -2.0236    0.0000 C   0  0  0  0  0  0  0  0  0
   -1.7813   -1.5646    0.0000 C   0  0  0  0  0  0  0  0  0
   -1.7266   -0.7415    0.0000 C   0  0  0  0  0  0  0  0  0
   -0.9863   -0.3773    0.0000 C   0  0  0  0  0  0  0  0  0
    2.9608   -0.7112    0.0000 C   0  0  0  0  0  0  0  0  0
    3.0784   -1.5278    0.0000 C   0  0  0  0  0  0  0  0  0
    2.3381   -1.8920    0.0000 C   0  0  0  0  0  0  0  0  0
    3.5523   -0.1361    0.0000 C   0  0  0  0  0  0  0  0  0
    3.3500    0.6637    0.0000 C   0  0  0  0  0  0  0  0  0
    3.9415    1.2388    0.0000 C   0  0  0  0  0  0  0  0  0
    4.7353    1.0141    0.0000 C   0  0  0  0  0  0  0  0  0
    4.9376    0.2143    0.0000 C   0  0  0  0  0  0  0  0  0
    4.3461   -0.3608    0.0000 C   0  0  0  0  0  0  0  0  0
  1  2  4  0  0  0  0
  1  9  4  0  0  0  0
  2  3  1  0  0  0  0
  2  7  4  0  0  0  0
  3  4  1  0  0  0  0
  3 16  1  0  0  0  0
  4  5  1  0  0  0  0
  4 14  1  0  0  0  0
  5  6  1  0  0  0  0
  6  7  1  0  0  0  0
  7  8  4  0  0  0  0
  8  9  4  0  0  0  0
  8 13  4  0  0  0  0
  9 10  4  0  0  0  0
 10 11  4  0  0  0  0
 11 12  4  0  0  0  0
 12 13  4  0  0  0  0
 14 15  1  0  0  0  0
 14 17  1  0  0  0  0
 15 16  1  0  0  0  0
 17 18  4  0  0  0  0
 17 22  4  0  0  0  0
 18 19  4  0  0  0  0
 19 20  4  0  0  0  0
 20 21  4  0  0  0  0
 21 22  4  0  0  0  0
M  STY  1   1 DAT
M  SAL   1  1   1
M  SDT   1 MRV_IMPLICIT_H                                        
M  SDD   1     0.0000    0.0000    DR    ALL  0       0  
M  SED   1 IMPL_H1
M  END
>  <Name_Molregno>
336480

>  <DOPAMINE D1>
5

>  <DOPAMINE D2>
5

>  <DOPAMINE D5>
5

$$$$
336496
  Marvin  02231216192D 0   1.00000     0.00000     0

 12 13  0  0  1  0  0  0  0  0999 V2000
    3.4869    0.1765    0.0000 O   0  0  0  0  0  0  0  0  0
    3.2320   -0.6081    0.0000 C   0  0  0  0  0  0  0  0  0
    2.4070   -0.6081    0.0000 C   0  0  0  0  0  0  0  0  0
    2.1520    0.1765    0.0000 C   0  0  0  0  0  0  0  0  0
    1.3674    0.4314    0.0000 C   0  0  0  0  0  0  0  0  0
    0.7543   -0.1206    0.0000 C   0  0  0  0  0  0  0  0  0
   -0.0303    0.1343    0.0000 C   0  0  0  0  0  0  0  0  0
   -0.2018    0.9413    0.0000 C   0  0  0  0  0  0  0  0  0
    0.4112    1.4933    0.0000 C   0  0  0  0  0  0  0  0  0
    1.1959    1.2384    0.0000 C   0  0  0  0  0  0  0  0  0
    2.8195    0.6614    0.0000 C   0  0  0  0  0  0  0  0  0
    2.8195    1.4864    0.0000 O   0  0  0  0  0  0  0  0  0
  1  2  1  0  0  0  0
  1 11  1  0  0  0  0
  2  3  1  0  0  0  0
  3  4  1  0  0  0  0
  4  5  1  0  0  0  0
  4 11  1  0  0  0  0
  5  6  4  0  0  0  0
  5 10  4  0  0  0  0
  6  7  4  0  0  0  0
  7  8  4  0  0  0  0
  8  9  4  0  0  0  0
  9 10  4  0  0  0  0
 11 12  2  0  0  0  0
M  END
>  <Name_Molregno>
336496

>  <DOPAMINE D1>
5

>  <DOPAMINE D2>
5

>  <DOPAMINE D5>
5

$$$$
336500
  Marvin  02231216192D 0   1.00000     0.00000     0

 20 24  0  0  1  0  0  0  0  0999 V2000
    1.3099   -1.3154    0.0000 N   0  0  0  0  0  0  0  0  0
    0.9743   -0.5618    0.0000 C   0  0  0  0  0  0  0  0  0
    0.1897   -0.3068    0.0000 C   0  0  0  0  0  0  0  0  0
    0.0182    0.5001    0.0000 N   0  0  0  0  0  0  0  0  0
    0.6313    1.0522    0.0000 C   0  0  0  0  0  0  0  0  0
    1.4159    0.7972    0.0000 C   0  0  0  0  0  0  0  0  0
    1.5874   -0.0097    0.0000 C   0  0  0  0  0  0  0  0  0
    2.3019   -0.4222    0.0000 C   0  0  0  0  0  0  0  0  0
    2.1304   -1.2292    0.0000 C   0  0  0  0  0  0  0  0  0
    2.7435   -1.7812    0.0000 C   0  0  0  0  0  0  0  0  0
    3.5281   -1.5263    0.0000 C   0  0  0  0  0  0  0  0  0
    3.6996   -0.7193    0.0000 C   0  0  0  0  0  0  0  0  0
    3.0865   -0.1673    0.0000 C   0  0  0  0  0  0  0  0  0
   -0.8023    0.5864    0.0000 C   0  0  0  0  0  0  0  0  0
   -1.1378   -0.1673    0.0000 C   0  0  0  0  0  0  0  0  0
   -0.5248   -0.7193    0.0000 C   0  0  0  0  0  0  0  0  0
   -0.6963   -1.5263    0.0000 C   0  0  0  0  0  0  0  0  0
   -1.4809   -1.7812    0.0000 C   0  0  0  0  0  0  0  0  0
   -2.0940   -1.2292    0.0000 C   0  0  0  0  0  0  0  0  0
   -1.9225   -0.4222    0.0000 C   0  0  0  0  0  0  0  0  0
  1  2  4  0  0  0  0
  1  9  4  0  0  0  0
  2  3  1  0  0  0  0
  2  7  4  0  0  0  0
  3  4  1  0  0  0  0
  3 16  1  0  0  0  0
  4  5  1  0  0  0  0
  4 14  1  0  0  0  0
  5  6  1  0  0  0  0
  6  7  1  0  0  0  0
  7  8  4  0  0  0  0
  8  9  4  0  0  0  0
  8 13  4  0  0  0  0
  9 10  4  0  0  0  0
 10 11  4  0  0  0  0
 11 12  4  0  0  0  0
 12 13  4  0  0  0  0
 14 15  1  0  0  0  0
 15 16  4  0  0  0  0
 15 20  4  0  0  0  0
 16 17  4  0  0  0  0
 17 18  4  0  0  0  0
 18 19  4  0  0  0  0
 19 20  4  0  0  0  0
M  STY  1   1 DAT
M  SAL   1  1   1
M  SDT   1 MRV_IMPLICIT_H                                        
M  SDD   1     0.0000    0.0000    DR    ALL  0       0  
M  SED   1 IMPL_H1
M  END
>  <Name_Molregno>
336500

>  <DOPAMINE D1>
5

>  <DOPAMINE D2>
5

>  <DOPAMINE D5>
5

$$$$
336504
  Marvin  02231216192D 0   1.00000     0.00000     0

 22 26  0  0  1  0  0  0  0  0999 V2000
   -0.2503   -0.7712    0.0000 N   0  0  0  0  0  0  0  0  0
    0.2778   -0.1374    0.0000 C   0  0  0  0  0  0  0  0  0
    1.1022   -0.1058    0.0000 C   0  0  0  0  0  0  0  0  0
    1.4870    0.6240    0.0000 N   0  0  0  0  0  0  0  0  0
    2.3000    0.4835    0.0000 C   0  0  0  0  0  0  0  0  0
    2.4176   -0.3331    0.0000 C   0  0  0  0  0  0  0  0  0
    1.6773   -0.6973    0.0000 C   0  0  0  0  0  0  0  0  0
    1.5368   -1.5102    0.0000 C   0  0  0  0  0  0  0  0  0
    2.1706   -2.0384    0.0000 C   0  0  0  0  0  0  0  0  0
    2.0301   -2.8513    0.0000 C   0  0  0  0  0  0  0  0  0
    1.2559   -3.1361    0.0000 C   0  0  0  0  0  0  0  0  0
    0.6221   -2.6080    0.0000 C   0  0  0  0  0  0  0  0  0
    0.7626   -1.7950    0.0000 C   0  0  0  0  0  0  0  0  0
    1.0475    1.3221    0.0000 C   0  0  0  0  0  0  0  0  0
    0.2231    1.2905    0.0000 C   0  0  0  0  0  0  0  0  0
   -0.1618    0.5608    0.0000 C   0  0  0  0  0  0  0  0  0
   -0.9616    0.3584    0.0000 C   0  0  0  0  0  0  0  0  0
   -1.0163   -0.4647    0.0000 C   0  0  0  0  0  0  0  0  0
   -1.7566   -0.8289    0.0000 C   0  0  0  0  0  0  0  0  0
   -2.4421   -0.3699    0.0000 C   0  0  0  0  0  0  0  0  0
   -2.3874    0.4533    0.0000 C   0  0  0  0  0  0  0  0  0
   -1.6471    0.8174    0.0000 C   0  0  0  0  0  0  0  0  0
  1  2  4  0  0  0  0
  1 18  4  0  0  0  0
  2  3  1  0  0  0  0
  2 16  4  0  0  0  0
  3  4  1  0  0  0  0
  3  7  1  0  0  0  0
  4  5  1  0  0  0  0
  4 14  1  0  0  0  0
  5  6  1  0  0  0  0
  6  7  1  0  0  0  0
  7  8  1  0  0  0  0
  8  9  4  0  0  0  0
  8 13  4  0  0  0  0
  9 10  4  0  0  0  0
 10 11  4  0  0  0  0
 11 12  4  0  0  0  0
 12 13  4  0  0  0  0
 14 15  1  0  0  0  0
 15 16  1  0  0  0  0
 16 17  4  0  0  0  0
 17 18  4  0  0  0  0
 17 22  4  0  0  0  0
 18 19  4  0  0  0  0
 19 20  4  0  0  0  0
 20 21  4  0  0  0  0
 21 22  4  0  0  0  0
M  STY  1   1 DAT
M  SAL   1  1   1
M  SDT   1 MRV_IMPLICIT_H                                        
M  SDD   1     0.0000    0.0000    DR    ALL  0       0  
M  SED   1 IMPL_H1
M  END
>  <Name_Molregno>
336504

>  <DOPAMINE D1>
5

>  <DOPAMINE D2>
5

>  <DOPAMINE D5>
5

$$$$
336505
  Marvin  02231216192D 0   1.00000     0.00000     0

 12 13  0  0  1  0  0  0  0  0999 V2000
   -0.1833    0.4071    0.0000 O   0  0  0  0  0  0  0  0  0
   -0.4382   -0.3776    0.0000 C   0  0  0  0  0  0  0  0  0
   -1.2632   -0.3776    0.0000 C   0  0  0  0  0  0  0  0  0
   -1.5182    0.4071    0.0000 C   0  0  0  0  0  0  0  0  0
   -0.8507    0.8920    0.0000 C   0  0  0  0  0  0  0  0  0
   -0.8507    1.7170    0.0000 O   0  0  0  0  0  0  0  0  0
   -1.7482   -1.0450    0.0000 C   0  0  0  0  0  0  0  0  0
   -1.4126   -1.7987    0.0000 C   0  0  0  0  0  0  0  0  0
   -1.8975   -2.4661    0.0000 C   0  0  0  0  0  0  0  0  0
   -2.7180   -2.3799    0.0000 C   0  0  0  0  0  0  0  0  0
   -3.0536   -1.6262    0.0000 C   0  0  0  0  0  0  0  0  0
   -2.5687   -0.9588    0.0000 C   0  0  0  0  0  0  0  0  0
  1  2  1  0  0  0  0
  1  5  1  0  0  0  0
  2  3  1  0  0  0  0
  3  4  1  0  0  0  0
  3  7  1  0  0  0  0
  4  5  1  0  0  0  0
  5  6  2  0  0  0  0
  7  8  4  0  0  0  0
  7 12  4  0  0  0  0
  8  9  4  0  0  0  0
  9 10  4  0  0  0  0
 10 11  4  0  0  0  0
 11 12  4  0  0  0  0
M  END
>  <Name_Molregno>
336505

>  <DOPAMINE D1>
5

>  <DOPAMINE D2>
5

>  <DOPAMINE D5>
5

$$$$
336537
  Marvin  02231216192D 0   1.00000     0.00000     0

 23 26  0  0  0  0  0  0  0  0999 V2000
    0.3598   -0.2967    0.0000 N   0  0  0  0  0  0  0  0  0
    0.6106   -1.0826    0.0000 C   0  0  0  0  0  0  0  0  0
    1.3625   -1.4222    0.0000 C   0  0  0  0  0  0  0  0  0
    2.0325   -0.9409    0.0000 C   0  0  0  0  0  0  0  0  0
    2.7843   -1.2804    0.0000 C   0  0  0  0  0  0  0  0  0
    2.8662   -2.1014    0.0000 C   0  0  0  0  0  0  0  0  0
    2.1962   -2.5827    0.0000 C   0  0  0  0  0  0  0  0  0
    1.4443   -2.2431    0.0000 N   0  0  0  0  0  0  0  0  0
    0.7743   -2.7245    0.0000 C   0  0  0  0  0  0  0  0  0
    0.0224   -2.3849    0.0000 C   0  0  0  0  0  0  0  0  0
   -0.0594   -1.5640    0.0000 C   0  0  0  0  0  0  0  0  0
   -0.7243   -1.0755    0.0000 C   0  0  0  0  0  0  0  0  0
   -0.4652   -0.2923    0.0000 C   0  0  0  0  0  0  0  0  0
   -1.0139    0.3238    0.0000 C   0  0  0  0  0  0  0  0  0
   -1.8218    0.1565    0.0000 C   0  0  0  0  0  0  0  0  0
   -2.0809   -0.6267    0.0000 C   0  0  0  0  0  0  0  0  0
   -1.5322   -1.2427    0.0000 C   0  0  0  0  0  0  0  0  0
    1.5262   -3.0641    0.0000 C   0  0  0  0  0  0  0  0  0
    2.2781   -3.4036    0.0000 C   0  0  0  0  0  0  0  0  0
    3.4544   -0.7991    0.0000 C   0  0  0  0  0  0  0  0  0
    3.3725    0.0219    0.0000 C   0  0  0  0  0  0  0  0  0
    2.6206    0.3614    0.0000 C   0  0  0  0  0  0  0  0  0
    1.9506   -0.1199    0.0000 C   0  0  0  0  0  0  0  0  0
  1  2  4  0  0  0  0
  1 13  4  0  0  0  0
  2  3  1  0  0  0  0
  2 11  4  0  0  0  0
  3  4  1  0  0  0  0
  4  5  4  0  0  0  0
  4 23  4  0  0  0  0
  5  6  1  0  0  0  0
  5 20  4  0  0  0  0
  6  7  1  0  0  0  0
  7  8  1  0  0  0  0
  8  9  1  0  0  0  0
  8 18  1  0  0  0  0
  9 10  1  0  0  0  0
 10 11  1  0  0  0  0
 11 12  4  0  0  0  0
 12 13  4  0  0  0  0
 12 17  4  0  0  0  0
 13 14  4  0  0  0  0
 14 15  4  0  0  0  0
 15 16  4  0  0  0  0
 16 17  4  0  0  0  0
 18 19  1  0  0  0  0
 20 21  4  0  0  0  0
 21 22  4  0  0  0  0
 22 23  4  0  0  0  0
M  STY  1   1 DAT
M  SAL   1  1   1
M  SDT   1 MRV_IMPLICIT_H                                        
M  SDD   1     0.0000    0.0000    DR    ALL  0       0  
M  SED   1 IMPL_H1
M  END
>  <Name_Molregno>
336537

>  <DOPAMINE D1>
7.28

>  <DOPAMINE D2>
6.84

>  <DOPAMINE D4>
6.42

>  <DOPAMINE D5>
7.74

$$$$
336538
  Marvin  02231216192D 0   1.00000     0.00000     0

 23 25  0  0  0  0  0  0  0  0999 V2000
    0.9668    3.6013    0.0000 O   0  0  0  0  0  0  0  0  0
    0.2524    4.0138    0.0000 C   0  0  0  0  0  0  0  0  0
    0.9668    2.7763    0.0000 C   0  0  0  0  0  0  0  0  0
    1.6813    2.3638    0.0000 C   0  0  0  0  0  0  0  0  0
    1.6813    1.5388    0.0000 C   0  0  0  0  0  0  0  0  0
    2.3958    1.1263    0.0000 C   0  0  0  0  0  0  0  0  0
    3.1102    1.5388    0.0000 C   0  0  0  0  0  0  0  0  0
    3.8247    1.1263    0.0000 C   0  0  0  0  0  0  0  0  0
    3.8247    0.3013    0.0000 C   0  0  0  0  0  0  0  0  0
    3.1102   -0.1112    0.0000 C   0  0  0  0  0  0  0  0  0
    2.3958    0.3013    0.0000 N   0  0  0  0  0  0  0  0  0
    1.6813   -0.1112    0.0000 C   0  0  0  0  0  0  0  0  0
    0.9668    0.3013    0.0000 C   0  0  0  0  0  0  0  0  0
    0.9668    1.1263    0.0000 C   0  0  0  0  0  0  0  0  0
    0.2524    1.5388    0.0000 C   0  0  0  0  0  0  0  0  0
    0.2524    2.3638    0.0000 C   0  0  0  0  0  0  0  0  0
   -0.4621    2.7763    0.0000 O   0  0  0  0  0  0  0  0  0
   -1.1766    2.3638    0.0000 C   0  0  0  0  0  0  0  0  0
    1.9109    0.9687    0.0000 C   0  0  0  0  0  0  0  0  0
    4.5392    1.5388    0.0000 C   0  0  0  0  0  0  0  0  0
    4.5392    2.3638    0.0000 C   0  0  0  0  0  0  0  0  0
    3.8247    2.7763    0.0000 C   0  0  0  0  0  0  0  0  0
    3.1102    2.3638    0.0000 C   0  0  0  0  0  0  0  0  0
  1  2  1  0  0  0  0
  1  3  1  0  0  0  0
  3  4  4  0  0  0  0
  3 16  4  0  0  0  0
  4  5  4  0  0  0  0
  5  6  1  0  0  0  0
  5 14  4  0  0  0  0
  6  7  1  0  0  0  0
  7  8  4  0  0  0  0
  7 23  4  0  0  0  0
  8  9  1  0  0  0  0
  8 20  4  0  0  0  0
  9 10  1  0  0  0  0
 10 11  1  0  0  0  0
 11 12  1  0  0  0  0
 11 19  1  0  0  0  0
 12 13  1  0  0  0  0
 13 14  1  0  0  0  0
 14 15  4  0  0  0  0
 15 16  4  0  0  0  0
 16 17  1  0  0  0  0
 17 18  1  0  0  0  0
 20 21  4  0  0  0  0
 21 22  4  0  0  0  0
 22 23  4  0  0  0  0
M  END
>  <Name_Molregno>
336538

>  <DOPAMINE D1>
6.29

>  <DOPAMINE D2>
5.3

>  <DOPAMINE D4>
5.6

>  <DOPAMINE D5>
5.58

$$$$
336543
  Marvin  02231216192D 0   1.00000     0.00000     0

 29 33  0  0  0  0  0  0  0  0999 V2000
    1.5843    1.6909    0.0000 N   0  0  0  0  0  0  0  0  0
    1.8351    0.9049    0.0000 C   0  0  0  0  0  0  0  0  0
    2.5869    0.5654    0.0000 C   0  0  0  0  0  0  0  0  0
    3.2570    1.0467    0.0000 C   0  0  0  0  0  0  0  0  0
    4.0088    0.7072    0.0000 C   0  0  0  0  0  0  0  0  0
    4.0907   -0.1138    0.0000 C   0  0  0  0  0  0  0  0  0
    3.4207   -0.5951    0.0000 C   0  0  0  0  0  0  0  0  0
    2.6688   -0.2556    0.0000 N   0  0  0  0  0  0  0  0  0
    1.9988   -0.7369    0.0000 C   0  0  0  0  0  0  0  0  0
    1.2469   -0.3973    0.0000 C   0  0  0  0  0  0  0  0  0
    1.1650    0.4236    0.0000 C   0  0  0  0  0  0  0  0  0
    0.5002    0.9121    0.0000 C   0  0  0  0  0  0  0  0  0
    0.7593    1.6953    0.0000 C   0  0  0  0  0  0  0  0  0
    0.2106    2.3113    0.0000 C   0  0  0  0  0  0  0  0  0
   -0.5973    2.1441    0.0000 C   0  0  0  0  0  0  0  0  0
   -0.8564    1.3609    0.0000 C   0  0  0  0  0  0  0  0  0
   -0.3077    0.7448    0.0000 C   0  0  0  0  0  0  0  0  0
    2.7507   -1.0765    0.0000 C   0  0  0  0  0  0  0  0  0
    3.5025   -1.4161    0.0000 C   0  0  0  0  0  0  0  0  0
    3.5844   -2.2370    0.0000 C   0  0  0  0  0  0  0  0  0
    4.3363   -2.5766    0.0000 C   0  0  0  0  0  0  0  0  0
    4.4181   -3.3975    0.0000 C   0  0  0  0  0  0  0  0  0
    3.7481   -3.8788    0.0000 C   0  0  0  0  0  0  0  0  0
    2.9962   -3.5393    0.0000 C   0  0  0  0  0  0  0  0  0
    2.9144   -2.7183    0.0000 C   0  0  0  0  0  0  0  0  0
    4.6788    1.1885    0.0000 C   0  0  0  0  0  0  0  0  0
    4.5970    2.0094    0.0000 C   0  0  0  0  0  0  0  0  0
    3.8451    2.3490    0.0000 C   0  0  0  0  0  0  0  0  0
    3.1751    1.8677    0.0000 C   0  0  0  0  0  0  0  0  0
  1  2  4  0  0  0  0
  1 13  4  0  0  0  0
  2  3  1  0  0  0  0
  2 11  4  0  0  0  0
  3  4  1  0  0  0  0
  4  5  4  0  0  0  0
  4 29  4  0  0  0  0
  5  6  1  0  0  0  0
  5 26  4  0  0  0  0
  6  7  1  0  0  0  0
  7  8  1  0  0  0  0
  8  9  1  0  0  0  0
  8 18  1  0  0  0  0
  9 10  1  0  0  0  0
 10 11  1  0  0  0  0
 11 12  4  0  0  0  0
 12 13  4  0  0  0  0
 12 17  4  0  0  0  0
 13 14  4  0  0  0  0
 14 15  4  0  0  0  0
 15 16  4  0  0  0  0
 16 17  4  0  0  0  0
 18 19  1  0  0  0  0
 19 20  1  0  0  0  0
 20 21  4  0  0  0  0
 20 25  4  0  0  0  0
 21 22  4  0  0  0  0
 22 23  4  0  0  0  0
 23 24  4  0  0  0  0
 24 25  4  0  0  0  0
 26 27  4  0  0  0  0
 27 28  4  0  0  0  0
 28 29  4  0  0  0  0
M  STY  1   1 DAT
M  SAL   1  1   1
M  SDT   1 MRV_IMPLICIT_H                                        
M  SDD   1     0.0000    0.0000    DR    ALL  0       0  
M  SED   1 IMPL_H1
M  END
>  <Name_Molregno>
336543

>  <DOPAMINE D1>
5

>  <DOPAMINE D2>
5

>  <DOPAMINE D5>
5

$$$$
336544
  Marvin  02231216192D 0   1.00000     0.00000     0

 25 29  0  0  0  0  0  0  0  0999 V2000
    1.1489    0.2869    0.0000 N   0  0  0  0  0  0  0  0  0
    1.3996   -0.4991    0.0000 C   0  0  0  0  0  0  0  0  0
    2.1515   -0.8386    0.0000 C   0  0  0  0  0  0  0  0  0
    2.8215   -0.3573    0.0000 C   0  0  0  0  0  0  0  0  0
    3.5734   -0.6969    0.0000 C   0  0  0  0  0  0  0  0  0
    3.6553   -1.5178    0.0000 C   0  0  0  0  0  0  0  0  0
    2.9852   -1.9991    0.0000 C   0  0  0  0  0  0  0  0  0
    2.2334   -1.6596    0.0000 N   0  0  0  0  0  0  0  0  0
    1.5633   -2.1409    0.0000 C   0  0  0  0  0  0  0  0  0
    0.8115   -1.8014    0.0000 C   0  0  0  0  0  0  0  0  0
    0.7296   -0.9804    0.0000 C   0  0  0  0  0  0  0  0  0
    0.0648   -0.4920    0.0000 C   0  0  0  0  0  0  0  0  0
    0.3239    0.2913    0.0000 C   0  0  0  0  0  0  0  0  0
   -0.2249    0.9073    0.0000 C   0  0  0  0  0  0  0  0  0
   -1.0327    0.7401    0.0000 C   0  0  0  0  0  0  0  0  0
   -1.2919   -0.0431    0.0000 C   0  0  0  0  0  0  0  0  0
   -0.7431   -0.6592    0.0000 C   0  0  0  0  0  0  0  0  0
    2.3152   -2.4805    0.0000 C   0  0  0  0  0  0  0  0  0
    1.6452   -2.9619    0.0000 C   0  0  0  0  0  0  0  0  0
    1.3056   -3.7137    0.0000 C   0  0  0  0  0  0  0  0  0
    0.8243   -3.0437    0.0000 C   0  0  0  0  0  0  0  0  0
    4.2434   -0.2155    0.0000 C   0  0  0  0  0  0  0  0  0
    4.1615    0.6054    0.0000 C   0  0  0  0  0  0  0  0  0
    3.4097    0.9450    0.0000 C   0  0  0  0  0  0  0  0  0
    2.7397    0.4636    0.0000 C   0  0  0  0  0  0  0  0  0
  1  2  4  0  0  0  0
  1 13  4  0  0  0  0
  2  3  1  0  0  0  0
  2 11  4  0  0  0  0
  3  4  1  0  0  0  0
  4  5  4  0  0  0  0
  4 25  4  0  0  0  0
  5  6  1  0  0  0  0
  5 22  4  0  0  0  0
  6  7  1  0  0  0  0
  7  8  1  0  0  0  0
  8  9  1  0  0  0  0
  8 18  1  0  0  0  0
  9 10  1  0  0  0  0
 10 11  1  0  0  0  0
 11 12  4  0  0  0  0
 12 13  4  0  0  0  0
 12 17  4  0  0  0  0
 13 14  4  0  0  0  0
 14 15  4  0  0  0  0
 15 16  4  0  0  0  0
 16 17  4  0  0  0  0
 18 19  1  0  0  0  0
 19 20  1  0  0  0  0
 19 21  1  0  0  0  0
 20 21  1  0  0  0  0
 22 23  4  0  0  0  0
 23 24  4  0  0  0  0
 24 25  4  0  0  0  0
M  STY  1   1 DAT
M  SAL   1  1   1
M  SDT   1 MRV_IMPLICIT_H                                        
M  SDD   1     0.0000    0.0000    DR    ALL  0       0  
M  SED   1 IMPL_H1
M  END
>  <Name_Molregno>
336544

>  <DOPAMINE D1>
6.12

>  <DOPAMINE D2>
5.3

>  <DOPAMINE D4>
5.3

>  <DOPAMINE D5>
6.05

$$$$
336546
  Marvin  02231216192D 0   1.00000     0.00000     0

 19 21  0  0  0  0  0  0  0  0999 V2000
   -0.0062   -0.9132    0.0000 N   0  0  0  0  0  0  0  0  0
    0.5811   -0.3338    0.0000 C   0  0  0  0  0  0  0  0  0
    0.5435    0.4903    0.0000 C   0  0  0  0  0  0  0  0  0
    1.2384    0.9350    0.0000 C   0  0  0  0  0  0  0  0  0
    1.9710    0.5555    0.0000 N   0  0  0  0  0  0  0  0  0
    2.6659    1.0001    0.0000 C   0  0  0  0  0  0  0  0  0
    3.3984    0.6206    0.0000 C   0  0  0  0  0  0  0  0  0
    3.4360   -0.2035    0.0000 C   0  0  0  0  0  0  0  0  0
    2.7411   -0.6482    0.0000 C   0  0  0  0  0  0  0  0  0
    2.0086   -0.2687    0.0000 C   0  0  0  0  0  0  0  0  0
    1.3136   -0.7133    0.0000 C   0  0  0  0  0  0  0  0  0
    1.1791   -1.5273    0.0000 C   0  0  0  0  0  0  0  0  0
    0.3634   -1.6508    0.0000 C   0  0  0  0  0  0  0  0  0
    2.7787   -1.4723    0.0000 C   0  0  0  0  0  0  0  0  0
    3.5112   -1.8518    0.0000 C   0  0  0  0  0  0  0  0  0
    4.2062   -1.4072    0.0000 C   0  0  0  0  0  0  0  0  0
    4.1686   -0.5830    0.0000 C   0  0  0  0  0  0  0  0  0
    1.5170   -0.1334    0.0000 C   0  0  0  0  0  0  0  0  0
   -0.8201   -0.7787    0.0000 C   0  0  0  0  0  0  0  0  0
  1  2  4  0  0  0  0
  1 13  4  0  0  0  0
  1 19  1  0  0  0  0
  2  3  1  0  0  0  0
  2 11  4  0  0  0  0
  3  4  1  0  0  0  0
  4  5  1  0  0  0  0
  5  6  1  0  0  0  0
  5 18  1  0  0  0  0
  6  7  1  0  0  0  0
  7  8  1  0  0  0  0
  8  9  4  0  0  0  0
  8 17  4  0  0  0  0
  9 10  1  0  0  0  0
  9 14  4  0  0  0  0
 10 11  1  0  0  0  0
 11 12  4  0  0  0  0
 12 13  4  0  0  0  0
 14 15  4  0  0  0  0
 15 16  4  0  0  0  0
 16 17  4  0  0  0  0
M  END
>  <Name_Molregno>
336546

>  <DOPAMINE D1>
6.61

>  <DOPAMINE D2>
6.37

>  <DOPAMINE D4>
5.78

>  <DOPAMINE D5>
6.45

$$$$
336559
  Marvin  02231216192D 0   1.00000     0.00000     0

 18 20  0  0  0  0  0  0  0  0999 V2000
   -0.0147   -0.9409    0.0000 S   0  0  0  0  0  0  0  0  0
    0.5726   -0.3615    0.0000 C   0  0  0  0  0  0  0  0  0
    0.5350    0.4627    0.0000 C   0  0  0  0  0  0  0  0  0
    1.2299    0.9073    0.0000 C   0  0  0  0  0  0  0  0  0
    1.9624    0.5278    0.0000 N   0  0  0  0  0  0  0  0  0
    2.6574    0.9724    0.0000 C   0  0  0  0  0  0  0  0  0
    3.3899    0.5929    0.0000 C   0  0  0  0  0  0  0  0  0
    3.4275   -0.2312    0.0000 C   0  0  0  0  0  0  0  0  0
    2.7326   -0.6758    0.0000 C   0  0  0  0  0  0  0  0  0
    2.0000   -0.2963    0.0000 C   0  0  0  0  0  0  0  0  0
    1.3051   -0.7410    0.0000 C   0  0  0  0  0  0  0  0  0
    1.1705   -1.5549    0.0000 C   0  0  0  0  0  0  0  0  0
    0.3548   -1.6785    0.0000 C   0  0  0  0  0  0  0  0  0
    2.7702   -1.5000    0.0000 C   0  0  0  0  0  0  0  0  0
    3.5027   -1.8795    0.0000 C   0  0  0  0  0  0  0  0  0
    4.1976   -1.4349    0.0000 C   0  0  0  0  0  0  0  0  0
    4.1600   -0.6107    0.0000 C   0  0  0  0  0  0  0  0  0
    1.5084   -0.1610    0.0000 C   0  0  0  0  0  0  0  0  0
  1  2  4  0  0  0  0
  1 13  4  0  0  0  0
  2  3  1  0  0  0  0
  2 11  4  0  0  0  0
  3  4  1  0  0  0  0
  4  5  1  0  0  0  0
  5  6  1  0  0  0  0
  5 18  1  0  0  0  0
  6  7  1  0  0  0  0
  7  8  1  0  0  0  0
  8  9  4  0  0  0  0
  8 17  4  0  0  0  0
  9 10  1  0  0  0  0
  9 14  4  0  0  0  0
 10 11  1  0  0  0  0
 11 12  4  0  0  0  0
 12 13  4  0  0  0  0
 14 15  4  0  0  0  0
 15 16  4  0  0  0  0
 16 17  4  0  0  0  0
M  END
>  <Name_Molregno>
336559

>  <DOPAMINE D1>
7.32

>  <DOPAMINE D2>
6.87

>  <DOPAMINE D4>
6.52

>  <DOPAMINE D5>
7.28

$$$$
336561
  Marvin  02231216192D 0   1.00000     0.00000     0

 17 19  0  0  0  0  0  0  0  0999 V2000
   -0.3341   -0.0907    0.0000 N   0  0  0  0  0  0  0  0  0
    0.3547   -0.5447    0.0000 C   0  0  0  0  0  0  0  0  0
    1.0337   -0.0761    0.0000 C   0  0  0  0  0  0  0  0  0
    1.8550   -0.1536    0.0000 C   0  0  0  0  0  0  0  0  0
    2.4344   -0.7409    0.0000 C   0  0  0  0  0  0  0  0  0
    2.5008   -1.5632    0.0000 C   0  0  0  0  0  0  0  0  0
    2.0230   -2.2358    0.0000 N   0  0  0  0  0  0  0  0  0
    1.2247   -2.4439    0.0000 C   0  0  0  0  0  0  0  0  0
    0.4794   -2.0902    0.0000 C   0  0  0  0  0  0  0  0  0
    0.1358   -1.3401    0.0000 C   0  0  0  0  0  0  0  0  0
   -0.6884   -1.3777    0.0000 C   0  0  0  0  0  0  0  0  0
   -0.9788   -0.6056    0.0000 C   0  0  0  0  0  0  0  0  0
   -1.7927   -0.4710    0.0000 C   0  0  0  0  0  0  0  0  0
   -2.3163   -1.1086    0.0000 C   0  0  0  0  0  0  0  0  0
   -2.0258   -1.8808    0.0000 C   0  0  0  0  0  0  0  0  0
   -1.2119   -2.0154    0.0000 C   0  0  0  0  0  0  0  0  0
    2.4916   -2.9148    0.0000 C   0  0  0  0  0  0  0  0  0
  1  2  4  0  0  0  0
  1 12  4  0  0  0  0
  2  3  1  0  0  0  0
  2 10  4  0  0  0  0
  3  4  1  0  0  0  0
  4  5  1  0  0  0  0
  5  6  1  0  0  0  0
  6  7  1  0  0  0  0
  7  8  1  0  0  0  0
  7 17  1  0  0  0  0
  8  9  1  0  0  0  0
  9 10  1  0  0  0  0
 10 11  4  0  0  0  0
 11 12  4  0  0  0  0
 11 16  4  0  0  0  0
 12 13  4  0  0  0  0
 13 14  4  0  0  0  0
 14 15  4  0  0  0  0
 15 16  4  0  0  0  0
M  STY  1   1 DAT
M  SAL   1  1   1
M  SDT   1 MRV_IMPLICIT_H                                        
M  SDD   1     0.0000    0.0000    DR    ALL  0       0  
M  SED   1 IMPL_H1
M  END
>  <Name_Molregno>
336561

>  <DOPAMINE D1>
5

>  <DOPAMINE D2>
5

>  <DOPAMINE D5>
5

$$$$
336569
  Marvin  02231216192D 0   1.00000     0.00000     0

 23 26  0  0  1  0  0  0  0  0999 V2000
   -3.6841    1.1134    0.0000 N   0  0  0  0  0  0  0  0  0
   -2.9952    0.6594    0.0000 C   0  0  0  0  0  0  0  0  0
   -2.3163    1.1281    0.0000 C   0  0  0  0  0  0  0  0  0
   -1.4949    1.0506    0.0000 C   0  0  0  0  0  0  0  0  0
   -0.9155    0.4633    0.0000 C   0  0  0  0  0  0  0  0  0
   -0.8492   -0.3590    0.0000 C   0  0  0  0  0  0  0  0  0
   -1.3269   -1.0316    0.0000 N   0  0  0  0  0  0  0  0  0
   -2.1252   -1.2397    0.0000 C   0  0  0  0  0  0  0  0  0
   -2.8706   -0.8860    0.0000 C   0  0  0  0  0  0  0  0  0
   -3.2142   -0.1360    0.0000 C   0  0  0  0  0  0  0  0  0
   -4.0383   -0.1736    0.0000 C   0  0  0  0  0  0  0  0  0
   -4.3287    0.5986    0.0000 C   0  0  0  0  0  0  0  0  0
   -5.1427    0.7332    0.0000 C   0  0  0  0  0  0  0  0  0
   -5.6662    0.0956    0.0000 C   0  0  0  0  0  0  0  0  0
   -5.3758   -0.6766    0.0000 C   0  0  0  0  0  0  0  0  0
   -4.5618   -0.8112    0.0000 C   0  0  0  0  0  0  0  0  0
   -0.8583   -1.7106    0.0000 C   0  0  0  0  0  0  0  0  0
   -0.0537   -0.5780    0.0000 C   0  0  0  0  0  0  0  0  0
    0.5336    0.0014    0.0000 C   0  0  0  0  0  0  0  0  0
    1.3290   -0.2175    0.0000 C   0  0  0  0  0  0  0  0  0
    1.5371   -1.0158    0.0000 C   0  0  0  0  0  0  0  0  0
    0.9498   -1.5952    0.0000 C   0  0  0  0  0  0  0  0  0
    0.1544   -1.3763    0.0000 C   0  0  0  0  0  0  0  0  0
  1  2  4  0  0  0  0
  1 12  4  0  0  0  0
  2  3  1  0  0  0  0
  2 10  4  0  0  0  0
  3  4  1  0  0  0  0
  4  5  1  0  0  0  0
  5  6  1  0  0  0  0
  6  7  1  0  0  0  0
  6 18  1  0  0  0  0
  7  8  1  0  0  0  0
  7 17  1  0  0  0  0
  8  9  1  0  0  0  0
  9 10  1  0  0  0  0
 10 11  4  0  0  0  0
 11 12  4  0  0  0  0
 11 16  4  0  0  0  0
 12 13  4  0  0  0  0
 13 14  4  0  0  0  0
 14 15  4  0  0  0  0
 15 16  4  0  0  0  0
 18 19  4  0  0  0  0
 18 23  4  0  0  0  0
 19 20  4  0  0  0  0
 20 21  4  0  0  0  0
 21 22  4  0  0  0  0
 22 23  4  0  0  0  0
M  STY  1   1 DAT
M  SAL   1  1   1
M  SDT   1 MRV_IMPLICIT_H                                        
M  SDD   1     0.0000    0.0000    DR    ALL  0       0  
M  SED   1 IMPL_H1
M  END
>  <Name_Molregno>
336569

>  <DOPAMINE D1>
5

>  <DOPAMINE D2>
7

>  <DOPAMINE D5>
5

$$$$
336577
  Marvin  02231216192D 0   1.00000     0.00000     0

 22 25  0  0  0  0  0  0  0  0999 V2000
    0.1700    0.2188    0.0000 N   0  0  0  0  0  0  0  0  0
    0.6922   -0.4199    0.0000 C   0  0  0  0  0  0  0  0  0
    1.4800   -0.1749    0.0000 C   0  0  0  0  0  0  0  0  0
    2.2409   -0.4937    0.0000 C   0  0  0  0  0  0  0  0  0
    2.6189   -1.2270    0.0000 C   0  0  0  0  0  0  0  0  0
    2.4371   -2.0318    0.0000 C   0  0  0  0  0  0  0  0  0
    1.7806   -2.5313    0.0000 N   0  0  0  0  0  0  0  0  0
    0.9566   -2.4920    0.0000 C   0  0  0  0  0  0  0  0  0
    0.3505   -1.9322    0.0000 C   0  0  0  0  0  0  0  0  0
    0.2461   -1.1139    0.0000 C   0  0  0  0  0  0  0  0  0
   -0.5517   -0.9041    0.0000 C   0  0  0  0  0  0  0  0  0
   -0.5988   -0.0804    0.0000 C   0  0  0  0  0  0  0  0  0
   -1.3356    0.2906    0.0000 C   0  0  0  0  0  0  0  0  0
   -2.0254   -0.1619    0.0000 C   0  0  0  0  0  0  0  0  0
   -1.9784   -0.9856    0.0000 C   0  0  0  0  0  0  0  0  0
   -1.2415   -1.3567    0.0000 C   0  0  0  0  0  0  0  0  0
    2.0255   -3.3192    0.0000 C   0  0  0  0  0  0  0  0  0
    2.8303   -3.5010    0.0000 C   0  0  0  0  0  0  0  0  0
    3.4430   -1.2663    0.0000 C   0  0  0  0  0  0  0  0  0
    3.8891   -0.5723    0.0000 C   0  0  0  0  0  0  0  0  0
    3.5111    0.1610    0.0000 C   0  0  0  0  0  0  0  0  0
    2.6870    0.2003    0.0000 C   0  0  0  0  0  0  0  0  0
  1  2  4  0  0  0  0
  1 12  4  0  0  0  0
  2  3  1  0  0  0  0
  2 10  4  0  0  0  0
  3  4  1  0  0  0  0
  4  5  4  0  0  0  0
  4 22  4  0  0  0  0
  5  6  1  0  0  0  0
  5 19  4  0  0  0  0
  6  7  1  0  0  0  0
  7  8  1  0  0  0  0
  7 17  1  0  0  0  0
  8  9  1  0  0  0  0
  9 10  1  0  0  0  0
 10 11  4  0  0  0  0
 11 12  4  0  0  0  0
 11 16  4  0  0  0  0
 12 13  4  0  0  0  0
 13 14  4  0  0  0  0
 14 15  4  0  0  0  0
 15 16  4  0  0  0  0
 17 18  1  0  0  0  0
 19 20  4  0  0  0  0
 20 21  4  0  0  0  0
 21 22  4  0  0  0  0
M  STY  1   1 DAT
M  SAL   1  1   1
M  SDT   1 MRV_IMPLICIT_H                                        
M  SDD   1     0.0000    0.0000    DR    ALL  0       0  
M  SED   1 IMPL_H1
M  END
>  <Name_Molregno>
336577

>  <DOPAMINE D1>
5

>  <DOPAMINE D2>
5

>  <DOPAMINE D5>
5

$$$$
336594
  Marvin  02231216192D 0   1.00000     0.00000     0

 24 27  0  0  1  0  0  0  0  0999 V2000
   -2.3916   -2.1472    0.0000 O   0  0  0  0  0  0  0  0  0
   -1.8396   -2.7603    0.0000 C   0  0  0  0  0  0  0  0  0
   -1.0326   -2.5888    0.0000 N   0  0  0  0  0  0  0  0  0
   -0.7777   -1.8042    0.0000 C   0  0  0  0  0  0  0  0  0
   -1.3297   -1.1911    0.0000 C   0  0  0  0  0  0  0  0  0
   -1.0748   -0.4064    0.0000 C   0  0  0  0  0  0  0  0  0
   -0.2901   -0.1515    0.0000 C   0  0  0  0  0  0  0  0  0
   -0.2901    0.6735    0.0000 C   0  0  0  0  0  0  0  0  0
   -1.0748    0.9284    0.0000 C   0  0  0  0  0  0  0  0  0
   -1.5597    0.2610    0.0000 C   0  0  0  0  0  0  0  0  0
    0.4243    1.0860    0.0000 C   0  0  0  0  0  0  0  0  0
    1.1388    0.6735    0.0000 C   0  0  0  0  0  0  0  0  0
    1.1388   -0.1515    0.0000 C   0  0  0  0  0  0  0  0  0
    0.4243   -0.5640    0.0000 C   0  0  0  0  0  0  0  0  0
   -0.4806   -3.2019    0.0000 C   0  0  0  0  0  0  0  0  0
   -0.7355   -3.9865    0.0000 C   0  0  0  0  0  0  0  0  0
   -1.5425   -4.1580    0.0000 C   0  0  0  0  0  0  0  0  0
   -2.0945   -3.5449    0.0000 C   0  0  0  0  0  0  0  0  0
    0.3264   -3.0303    0.0000 C   0  0  0  0  0  0  0  0  0
    0.5813   -2.2457    0.0000 C   0  0  0  0  0  0  0  0  0
    1.3883   -2.0742    0.0000 C   0  0  0  0  0  0  0  0  0
    1.9403   -2.6873    0.0000 C   0  0  0  0  0  0  0  0  0
    1.6854   -3.4719    0.0000 C   0  0  0  0  0  0  0  0  0
    0.8784   -3.6434    0.0000 C   0  0  0  0  0  0  0  0  0
  1  2  2  0  0  0  0
  2  3  1  0  0  0  0
  2 18  1  0  0  0  0
  3  4  1  0  0  0  0
  3 15  1  0  0  0  0
  4  5  1  0  0  0  0
  5  6  1  0  0  0  0
  6  7  1  0  0  0  0
  6 10  2  0  0  0  0
  7  8  4  0  0  0  0
  7 14  4  0  0  0  0
  8  9  1  0  0  0  0
  8 11  4  0  0  0  0
  9 10  1  0  0  0  0
 11 12  4  0  0  0  0
 12 13  4  0  0  0  0
 13 14  4  0  0  0  0
 15 16  1  0  0  0  0
 15 19  1  0  0  0  0
 16 17  1  0  0  0  0
 17 18  1  0  0  0  0
 19 20  4  0  0  0  0
 19 24  4  0  0  0  0
 20 21  4  0  0  0  0
 21 22  4  0  0  0  0
 22 23  4  0  0  0  0
 23 24  4  0  0  0  0
M  END
>  <Name_Molregno>
336594

>  <DOPAMINE D1>
5

>  <DOPAMINE D2>
5

>  <DOPAMINE D5>
5

$$$$
336597
  Marvin  02231216192D 0   1.00000     0.00000     0

 23 26  0  0  1  0  0  0  0  0999 V2000
   -2.8772   -0.3305    0.0000 N   0  0  0  0  0  0  0  0  0
   -2.1884   -0.7845    0.0000 C   0  0  0  0  0  0  0  0  0
   -1.5094   -0.3158    0.0000 C   0  0  0  0  0  0  0  0  0
   -0.6880   -0.3933    0.0000 C   0  0  0  0  0  0  0  0  0
   -0.1086   -0.9806    0.0000 C   0  0  0  0  0  0  0  0  0
   -0.0423   -1.8029    0.0000 C   0  0  0  0  0  0  0  0  0
   -0.5201   -2.4755    0.0000 N   0  0  0  0  0  0  0  0  0
   -1.3184   -2.6836    0.0000 C   0  0  0  0  0  0  0  0  0
   -2.0637   -2.3299    0.0000 C   0  0  0  0  0  0  0  0  0
   -2.4073   -1.5799    0.0000 C   0  0  0  0  0  0  0  0  0
   -3.2314   -1.6175    0.0000 C   0  0  0  0  0  0  0  0  0
   -3.5219   -0.8453    0.0000 C   0  0  0  0  0  0  0  0  0
   -4.3358   -0.7107    0.0000 C   0  0  0  0  0  0  0  0  0
   -4.8593   -1.3483    0.0000 C   0  0  0  0  0  0  0  0  0
   -4.5689   -2.1205    0.0000 C   0  0  0  0  0  0  0  0  0
   -3.7550   -2.2551    0.0000 C   0  0  0  0  0  0  0  0  0
   -0.0515   -3.1545    0.0000 C   0  0  0  0  0  0  0  0  0
    0.6414   -0.6370    0.0000 C   0  0  0  0  0  0  0  0  0
    0.7189    0.1843    0.0000 C   0  0  0  0  0  0  0  0  0
    1.4689    0.5279    0.0000 C   0  0  0  0  0  0  0  0  0
    2.1415    0.0502    0.0000 C   0  0  0  0  0  0  0  0  0
    2.0640   -0.7712    0.0000 C   0  0  0  0  0  0  0  0  0
    1.3140   -1.1148    0.0000 C   0  0  0  0  0  0  0  0  0
  1  2  4  0  0  0  0
  1 12  4  0  0  0  0
  2  3  1  0  0  0  0
  2 10  4  0  0  0  0
  3  4  1  0  0  0  0
  4  5  1  0  0  0  0
  5  6  1  0  0  0  0
  5 18  1  0  0  0  0
  6  7  1  0  0  0  0
  7  8  1  0  0  0  0
  7 17  1  0  0  0  0
  8  9  1  0  0  0  0
  9 10  1  0  0  0  0
 10 11  4  0  0  0  0
 11 12  4  0  0  0  0
 11 16  4  0  0  0  0
 12 13  4  0  0  0  0
 13 14  4  0  0  0  0
 14 15  4  0  0  0  0
 15 16  4  0  0  0  0
 18 19  4  0  0  0  0
 18 23  4  0  0  0  0
 19 20  4  0  0  0  0
 20 21  4  0  0  0  0
 21 22  4  0  0  0  0
 22 23  4  0  0  0  0
M  STY  1   1 DAT
M  SAL   1  1   1
M  SDT   1 MRV_IMPLICIT_H                                        
M  SDD   1     0.0000    0.0000    DR    ALL  0       0  
M  SED   1 IMPL_H1
M  END
>  <Name_Molregno>
336597

>  <DOPAMINE D1>
5

>  <DOPAMINE D2>
5

>  <DOPAMINE D5>
5

$$$$
336599
  Marvin  02231216192D 0   1.00000     0.00000     0

 23 26  0  0  1  0  0  0  0  0999 V2000
   -0.1800   -1.0834    0.0000 N   0  0  0  0  0  0  0  0  0
    0.5089   -0.6294    0.0000 C   0  0  0  0  0  0  0  0  0
    0.2899    0.1661    0.0000 C   0  0  0  0  0  0  0  0  0
    0.6335    0.9161    0.0000 C   0  0  0  0  0  0  0  0  0
    1.3789    1.2698    0.0000 C   0  0  0  0  0  0  0  0  0
    2.1772    1.0617    0.0000 N   0  0  0  0  0  0  0  0  0
    2.6549    0.3891    0.0000 C   0  0  0  0  0  0  0  0  0
    2.5886   -0.4332    0.0000 C   0  0  0  0  0  0  0  0  0
    2.0092   -1.0205    0.0000 C   0  0  0  0  0  0  0  0  0
    1.1879   -1.0980    0.0000 C   0  0  0  0  0  0  0  0  0
    0.9797   -1.8963    0.0000 C   0  0  0  0  0  0  0  0  0
    1.5670   -2.4757    0.0000 C   0  0  0  0  0  0  0  0  0
    1.3589   -3.2740    0.0000 C   0  0  0  0  0  0  0  0  0
    0.5635   -3.4929    0.0000 C   0  0  0  0  0  0  0  0  0
   -0.0238   -2.9135    0.0000 C   0  0  0  0  0  0  0  0  0
    0.1843   -2.1152    0.0000 C   0  0  0  0  0  0  0  0  0
    2.6458    1.7407    0.0000 C   0  0  0  0  0  0  0  0  0
   -0.5342    0.2037    0.0000 C   0  0  0  0  0  0  0  0  0
   -0.8246   -0.5685    0.0000 C   0  0  0  0  0  0  0  0  0
   -1.6386   -0.7031    0.0000 C   0  0  0  0  0  0  0  0  0
   -2.1621   -0.0655    0.0000 C   0  0  0  0  0  0  0  0  0
   -1.8717    0.7067    0.0000 C   0  0  0  0  0  0  0  0  0
   -1.0577    0.8413    0.0000 C   0  0  0  0  0  0  0  0  0
  1  2  4  0  0  0  0
  1 19  4  0  0  0  0
  2  3  4  0  0  0  0
  2 10  1  0  0  0  0
  3  4  1  0  0  0  0
  3 18  4  0  0  0  0
  4  5  1  0  0  0  0
  5  6  1  0  0  0  0
  6  7  1  0  0  0  0
  6 17  1  0  0  0  0
  7  8  1  0  0  0  0
  8  9  1  0  0  0  0
  9 10  1  0  0  0  0
 10 11  1  0  0  0  0
 11 12  4  0  0  0  0
 11 16  4  0  0  0  0
 12 13  4  0  0  0  0
 13 14  4  0  0  0  0
 14 15  4  0  0  0  0
 15 16  4  0  0  0  0
 18 19  4  0  0  0  0
 18 23  4  0  0  0  0
 19 20  4  0  0  0  0
 20 21  4  0  0  0  0
 21 22  4  0  0  0  0
 22 23  4  0  0  0  0
M  STY  1   1 DAT
M  SAL   1  1   1
M  SDT   1 MRV_IMPLICIT_H                                        
M  SDD   1     0.0000    0.0000    DR    ALL  0       0  
M  SED   1 IMPL_H1
M  END
>  <Name_Molregno>
336599

>  <DOPAMINE D1>
5

>  <DOPAMINE D2>
5

>  <DOPAMINE D5>
5

$$$$
336601
  Marvin  02231216192D 0   1.00000     0.00000     0

 25 27  0  0  1  0  0  0  0  0999 V2000
   -5.7649   -1.6632    0.0000 O   0  0  0  0  0  0  0  0  0
   -5.7649   -0.8382    0.0000 C   0  0  0  0  0  0  0  0  0
   -5.0504   -0.4257    0.0000 C   0  0  0  0  0  0  0  0  0
   -4.3359   -0.8382    0.0000 C   0  0  0  0  0  0  0  0  0
   -3.6215   -0.4257    0.0000 C   0  0  0  0  0  0  0  0  0
   -2.9070   -0.8382    0.0000 C   0  0  0  0  0  0  0  0  0
   -2.9070   -1.6632    0.0000 O   0  0  0  0  0  0  0  0  0
   -2.1925   -0.4257    0.0000 N   0  0  0  0  0  0  0  0  0
   -1.4781   -0.8382    0.0000 C   0  0  0  0  0  0  0  0  0
   -0.7636   -0.4257    0.0000 C   0  0  0  0  0  0  0  0  0
   -0.0491   -0.8382    0.0000 C   0  0  0  0  0  0  0  0  0
    0.0371   -1.6587    0.0000 C   0  0  0  0  0  0  0  0  0
    0.8441   -1.8302    0.0000 C   0  0  0  0  0  0  0  0  0
    1.2566   -1.1157    0.0000 C   0  0  0  0  0  0  0  0  0
    0.7046   -0.5026    0.0000 C   0  0  0  0  0  0  0  0  0
    1.0990   -2.6148    0.0000 C   0  0  0  0  0  0  0  0  0
    0.5470   -3.2279    0.0000 C   0  0  0  0  0  0  0  0  0
   -0.2600   -3.0564    0.0000 C   0  0  0  0  0  0  0  0  0
   -0.5149   -2.2718    0.0000 C   0  0  0  0  0  0  0  0  0
   -6.4794   -0.4257    0.0000 C   0  0  0  0  0  0  0  0  0
   -7.1938   -0.8382    0.0000 C   0  0  0  0  0  0  0  0  0
   -7.9083   -0.4257    0.0000 C   0  0  0  0  0  0  0  0  0
   -7.9083    0.3993    0.0000 C   0  0  0  0  0  0  0  0  0
   -7.1938    0.8118    0.0000 C   0  0  0  0  0  0  0  0  0
   -6.4794    0.3993    0.0000 C   0  0  0  0  0  0  0  0  0
  1  2  1  0  0  0  0
  2  3  1  0  0  0  0
  2 20  1  0  0  0  0
  3  4  1  0  0  0  0
  4  5  1  0  0  0  0
  5  6  1  0  0  0  0
  6  7  2  0  0  0  0
  6  8  1  0  0  0  0
  8  9  1  0  0  0  0
  9 10  1  0  0  0  0
 10 11  1  0  0  0  0
 11 12  1  0  0  0  0
 11 15  2  0  0  0  0
 12 13  4  0  0  0  0
 12 19  4  0  0  0  0
 13 14  1  0  0  0  0
 13 16  4  0  0  0  0
 14 15  1  0  0  0  0
 16 17  4  0  0  0  0
 17 18  4  0  0  0  0
 18 19  4  0  0  0  0
 20 21  4  0  0  0  0
 20 25  4  0  0  0  0
 21 22  4  0  0  0  0
 22 23  4  0  0  0  0
 23 24  4  0  0  0  0
 24 25  4  0  0  0  0
M  END
>  <Name_Molregno>
336601

>  <DOPAMINE D1>
5

>  <DOPAMINE D2>
5

>  <DOPAMINE D5>
5

$$$$
336604
  Marvin  02231216192D 0   1.00000     0.00000     0

 18 20  0  0  0  0  0  0  0  0999 V2000
   -1.4325   -0.2058    0.0000 N   0  0  0  0  0  0  0  0  0
   -0.8506   -0.7906    0.0000 C   0  0  0  0  0  0  0  0  0
   -0.0266   -0.7495    0.0000 C   0  0  0  0  0  0  0  0  0
    0.3498   -0.0154    0.0000 C   0  0  0  0  0  0  0  0  0
    1.1738    0.0257    0.0000 C   0  0  0  0  0  0  0  0  0
    1.6214   -0.6673    0.0000 C   0  0  0  0  0  0  0  0  0
    1.2450   -1.4014    0.0000 C   0  0  0  0  0  0  0  0  0
    0.4210   -1.4425    0.0000 N   0  0  0  0  0  0  0  0  0
    0.0446   -2.1767    0.0000 C   0  0  0  0  0  0  0  0  0
   -0.7794   -2.2178    0.0000 C   0  0  0  0  0  0  0  0  0
   -1.2270   -1.5247    0.0000 C   0  0  0  0  0  0  0  0  0
   -2.0415   -1.3936    0.0000 C   0  0  0  0  0  0  0  0  0
   -2.1685   -0.5785    0.0000 C   0  0  0  0  0  0  0  0  0
   -2.9379   -0.2809    0.0000 C   0  0  0  0  0  0  0  0  0
   -3.5804   -0.7984    0.0000 C   0  0  0  0  0  0  0  0  0
   -3.4534   -1.6136    0.0000 C   0  0  0  0  0  0  0  0  0
   -2.6839   -1.9112    0.0000 C   0  0  0  0  0  0  0  0  0
   -0.3485   -1.1449    0.0000 C   0  0  0  0  0  0  0  0  0
  1  2  4  0  0  0  0
  1 13  4  0  0  0  0
  2  3  1  0  0  0  0
  2 11  4  0  0  0  0
  3  4  1  0  0  0  0
  4  5  1  0  0  0  0
  5  6  1  0  0  0  0
  6  7  1  0  0  0  0
  7  8  1  0  0  0  0
  8  9  1  0  0  0  0
  8 18  1  0  0  0  0
  9 10  1  0  0  0  0
 10 11  1  0  0  0  0
 11 12  4  0  0  0  0
 12 13  4  0  0  0  0
 12 17  4  0  0  0  0
 13 14  4  0  0  0  0
 14 15  4  0  0  0  0
 15 16  4  0  0  0  0
 16 17  4  0  0  0  0
M  STY  1   1 DAT
M  SAL   1  1   1
M  SDT   1 MRV_IMPLICIT_H                                        
M  SDD   1     0.0000    0.0000    DR    ALL  0       0  
M  SED   1 IMPL_H1
M  END
>  <Name_Molregno>
336604

>  <DOPAMINE D1>
5

>  <DOPAMINE D2>
5

>  <DOPAMINE D5>
5

$$$$
336623
  Marvin  02231216192D 0   1.00000     0.00000     0

 21 24  0  0  0  0  0  0  0  0999 V2000
   -2.5276    0.5874    0.0000 N   0  0  0  0  0  0  0  0  0
   -1.9457    0.0026    0.0000 C   0  0  0  0  0  0  0  0  0
   -1.1217    0.0437    0.0000 C   0  0  0  0  0  0  0  0  0
   -0.7453    0.7778    0.0000 C   0  0  0  0  0  0  0  0  0
    0.0786    0.8189    0.0000 C   0  0  0  0  0  0  0  0  0
    0.5262    0.1259    0.0000 C   0  0  0  0  0  0  0  0  0
    0.1498   -0.6083    0.0000 C   0  0  0  0  0  0  0  0  0
   -0.6741   -0.6494    0.0000 N   0  0  0  0  0  0  0  0  0
   -1.0505   -1.3835    0.0000 C   0  0  0  0  0  0  0  0  0
   -1.8745   -1.4246    0.0000 C   0  0  0  0  0  0  0  0  0
   -2.3221   -0.7315    0.0000 C   0  0  0  0  0  0  0  0  0
   -3.1366   -0.6004    0.0000 C   0  0  0  0  0  0  0  0  0
   -3.2636    0.2147    0.0000 C   0  0  0  0  0  0  0  0  0
   -4.0331    0.5123    0.0000 C   0  0  0  0  0  0  0  0  0
   -4.6755   -0.0052    0.0000 C   0  0  0  0  0  0  0  0  0
   -4.5485   -0.8204    0.0000 C   0  0  0  0  0  0  0  0  0
   -3.7791   -1.1180    0.0000 C   0  0  0  0  0  0  0  0  0
   -0.2266   -1.3424    0.0000 C   0  0  0  0  0  0  0  0  0
   -0.6030   -2.0765    0.0000 C   0  0  0  0  0  0  0  0  0
   -0.5619   -2.9005    0.0000 C   0  0  0  0  0  0  0  0  0
   -1.2960   -2.5241    0.0000 C   0  0  0  0  0  0  0  0  0
  1  2  4  0  0  0  0
  1 13  4  0  0  0  0
  2  3  1  0  0  0  0
  2 11  4  0  0  0  0
  3  4  1  0  0  0  0
  4  5  1  0  0  0  0
  5  6  1  0  0  0  0
  6  7  1  0  0  0  0
  7  8  1  0  0  0  0
  8  9  1  0  0  0  0
  8 18  1  0  0  0  0
  9 10  1  0  0  0  0
 10 11  1  0  0  0  0
 11 12  4  0  0  0  0
 12 13  4  0  0  0  0
 12 17  4  0  0  0  0
 13 14  4  0  0  0  0
 14 15  4  0  0  0  0
 15 16  4  0  0  0  0
 16 17  4  0  0  0  0
 18 19  1  0  0  0  0
 19 20  1  0  0  0  0
 19 21  1  0  0  0  0
 20 21  1  0  0  0  0
M  STY  1   1 DAT
M  SAL   1  1   1
M  SDT   1 MRV_IMPLICIT_H                                        
M  SDD   1     0.0000    0.0000    DR    ALL  0       0  
M  SED   1 IMPL_H1
M  END
>  <Name_Molregno>
336623

>  <DOPAMINE D1>
5

>  <DOPAMINE D2>
5

>  <DOPAMINE D5>
5

$$$$
336628
  Marvin  02231216192D 0   1.00000     0.00000     0

 23 26  0  0  1  0  0  0  0  0999 V2000
   -0.2025   -0.2842    0.0000 N   0  0  0  0  0  0  0  0  0
    0.4863   -0.7382    0.0000 C   0  0  0  0  0  0  0  0  0
    1.1653   -0.2696    0.0000 C   0  0  0  0  0  0  0  0  0
    1.9867   -0.3471    0.0000 C   0  0  0  0  0  0  0  0  0
    2.5661   -0.9344    0.0000 C   0  0  0  0  0  0  0  0  0
    2.6324   -1.7567    0.0000 C   0  0  0  0  0  0  0  0  0
    2.1546   -2.4293    0.0000 N   0  0  0  0  0  0  0  0  0
    1.3563   -2.6374    0.0000 C   0  0  0  0  0  0  0  0  0
    0.6110   -2.2837    0.0000 C   0  0  0  0  0  0  0  0  0
    0.2674   -1.5337    0.0000 C   0  0  0  0  0  0  0  0  0
   -0.5568   -1.5713    0.0000 C   0  0  0  0  0  0  0  0  0
   -0.8472   -0.7991    0.0000 C   0  0  0  0  0  0  0  0  0
   -1.6611   -0.6645    0.0000 C   0  0  0  0  0  0  0  0  0
   -2.1847   -1.3021    0.0000 C   0  0  0  0  0  0  0  0  0
   -1.8942   -2.0743    0.0000 C   0  0  0  0  0  0  0  0  0
   -1.0803   -2.2089    0.0000 C   0  0  0  0  0  0  0  0  0
    2.6232   -3.1083    0.0000 C   0  0  0  0  0  0  0  0  0
    2.3404    0.3982    0.0000 C   0  0  0  0  0  0  0  0  0
    1.8718    1.0772    0.0000 C   0  0  0  0  0  0  0  0  0
    2.2255    1.8225    0.0000 C   0  0  0  0  0  0  0  0  0
    3.0478    1.8889    0.0000 C   0  0  0  0  0  0  0  0  0
    3.5164    1.2099    0.0000 C   0  0  0  0  0  0  0  0  0
    3.1627    0.4646    0.0000 C   0  0  0  0  0  0  0  0  0
  1  2  4  0  0  0  0
  1 12  4  0  0  0  0
  2  3  1  0  0  0  0
  2 10  4  0  0  0  0
  3  4  1  0  0  0  0
  4  5  1  0  0  0  0
  4 18  1  0  0  0  0
  5  6  1  0  0  0  0
  6  7  1  0  0  0  0
  7  8  1  0  0  0  0
  7 17  1  0  0  0  0
  8  9  1  0  0  0  0
  9 10  1  0  0  0  0
 10 11  4  0  0  0  0
 11 12  4  0  0  0  0
 11 16  4  0  0  0  0
 12 13  4  0  0  0  0
 13 14  4  0  0  0  0
 14 15  4  0  0  0  0
 15 16  4  0  0  0  0
 18 19  4  0  0  0  0
 18 23  4  0  0  0  0
 19 20  4  0  0  0  0
 20 21  4  0  0  0  0
 21 22  4  0  0  0  0
 22 23  4  0  0  0  0
M  STY  1   1 DAT
M  SAL   1  1   1
M  SDT   1 MRV_IMPLICIT_H                                        
M  SDD   1     0.0000    0.0000    DR    ALL  0       0  
M  SED   1 IMPL_H1
M  END
>  <Name_Molregno>
336628

>  <DOPAMINE D1>
6.13

>  <DOPAMINE D2>
6.03

>  <DOPAMINE D5>
6.95

$$$$
336632
  Marvin  02231216192D 0   1.00000     0.00000     0

 24 27  0  0  1  0  0  0  0  0999 V2000
    0.9320    0.8347    0.0000 N   0  0  0  0  0  0  0  0  0
    1.5139    0.2499    0.0000 C   0  0  0  0  0  0  0  0  0
    2.3378    0.2910    0.0000 C   0  0  0  0  0  0  0  0  0
    2.7142    1.0251    0.0000 C   0  0  0  0  0  0  0  0  0
    3.5382    1.0662    0.0000 C   0  0  0  0  0  0  0  0  0
    3.9858    0.3732    0.0000 C   0  0  0  0  0  0  0  0  0
    3.6094   -0.3609    0.0000 C   0  0  0  0  0  0  0  0  0
    2.7854   -0.4020    0.0000 N   0  0  0  0  0  0  0  0  0
    2.4090   -1.1362    0.0000 C   0  0  0  0  0  0  0  0  0
    1.5850   -1.1773    0.0000 C   0  0  0  0  0  0  0  0  0
    1.1375   -0.4842    0.0000 C   0  0  0  0  0  0  0  0  0
    0.3230   -0.3531    0.0000 C   0  0  0  0  0  0  0  0  0
    0.1960    0.4621    0.0000 C   0  0  0  0  0  0  0  0  0
   -0.5735    0.7597    0.0000 C   0  0  0  0  0  0  0  0  0
   -1.2160    0.2421    0.0000 C   0  0  0  0  0  0  0  0  0
   -1.0890   -0.5731    0.0000 C   0  0  0  0  0  0  0  0  0
   -0.3195   -0.8707    0.0000 C   0  0  0  0  0  0  0  0  0
    2.0160   -0.1044    0.0000 C   0  0  0  0  0  0  0  0  0
    4.0570   -1.0540    0.0000 C   0  0  0  0  0  0  0  0  0
    4.8809   -1.0129    0.0000 C   0  0  0  0  0  0  0  0  0
    5.3285   -1.7059    0.0000 C   0  0  0  0  0  0  0  0  0
    4.9521   -2.4400    0.0000 C   0  0  0  0  0  0  0  0  0
    4.1282   -2.4811    0.0000 C   0  0  0  0  0  0  0  0  0
    3.6806   -1.7881    0.0000 C   0  0  0  0  0  0  0  0  0
  1  2  4  0  0  0  0
  1 13  4  0  0  0  0
  2  3  1  0  0  0  0
  2 11  4  0  0  0  0
  3  4  1  0  0  0  0
  4  5  1  0  0  0  0
  5  6  1  0  0  0  0
  6  7  1  0  0  0  0
  7  8  1  0  0  0  0
  7 19  1  0  0  0  0
  8  9  1  0  0  0  0
  8 18  1  0  0  0  0
  9 10  1  0  0  0  0
 10 11  1  0  0  0  0
 11 12  4  0  0  0  0
 12 13  4  0  0  0  0
 12 17  4  0  0  0  0
 13 14  4  0  0  0  0
 14 15  4  0  0  0  0
 15 16  4  0  0  0  0
 16 17  4  0  0  0  0
 19 20  4  0  0  0  0
 19 24  4  0  0  0  0
 20 21  4  0  0  0  0
 21 22  4  0  0  0  0
 22 23  4  0  0  0  0
 23 24  4  0  0  0  0
M  STY  1   1 DAT
M  SAL   1  1   1
M  SDT   1 MRV_IMPLICIT_H                                        
M  SDD   1     0.0000    0.0000    DR    ALL  0       0  
M  SED   1 IMPL_H1
M  END
>  <Name_Molregno>
336632

>  <DOPAMINE D1>
5

>  <DOPAMINE D2>
6.3

>  <DOPAMINE D5>
5

$$$$
336640
  Marvin  02231216192D 0   1.00000     0.00000     0

 23 27  0  0  1  0  0  0  0  0999 V2000
    0.4762   -2.1601    0.0000 N   0  0  0  0  0  0  0  0  0
    0.9923   -1.5165    0.0000 C   0  0  0  0  0  0  0  0  0
    1.8160   -1.4694    0.0000 C   0  0  0  0  0  0  0  0  0
    2.1870   -0.7325    0.0000 N   0  0  0  0  0  0  0  0  0
    1.7343   -0.0427    0.0000 C   0  0  0  0  0  0  0  0  0
    0.9107   -0.0899    0.0000 C   0  0  0  0  0  0  0  0  0
    0.5397   -0.8268    0.0000 C   0  0  0  0  0  0  0  0  0
   -0.2562   -1.0441    0.0000 C   0  0  0  0  0  0  0  0  0
   -0.2954   -1.8682    0.0000 C   0  0  0  0  0  0  0  0  0
   -1.0286   -2.2463    0.0000 C   0  0  0  0  0  0  0  0  0
   -1.7227   -1.8003    0.0000 C   0  0  0  0  0  0  0  0  0
   -1.6835   -0.9762    0.0000 C   0  0  0  0  0  0  0  0  0
   -0.9502   -0.5981    0.0000 C   0  0  0  0  0  0  0  0  0
    3.0106   -0.6853    0.0000 C   0  0  0  0  0  0  0  0  0
    3.4633   -1.3751    0.0000 C   0  0  0  0  0  0  0  0  0
    3.0923   -2.1119    0.0000 C   0  0  0  0  0  0  0  0  0
    2.2686   -2.1591    0.0000 C   0  0  0  0  0  0  0  0  0
    3.3816    0.0515    0.0000 C   0  0  0  0  0  0  0  0  0
    2.9290    0.7413    0.0000 C   0  0  0  0  0  0  0  0  0
    3.3000    1.4782    0.0000 C   0  0  0  0  0  0  0  0  0
    4.1236    1.5253    0.0000 C   0  0  0  0  0  0  0  0  0
    4.5763    0.8356    0.0000 C   0  0  0  0  0  0  0  0  0
    4.2053    0.0987    0.0000 C   0  0  0  0  0  0  0  0  0
  1  2  4  0  0  0  0
  1  9  4  0  0  0  0
  2  3  1  0  0  0  0
  2  7  4  0  0  0  0
  3  4  1  0  0  0  0
  3 17  1  0  0  0  0
  4  5  1  0  0  0  0
  4 14  1  0  0  0  0
  5  6  1  0  0  0  0
  6  7  1  0  0  0  0
  7  8  4  0  0  0  0
  8  9  4  0  0  0  0
  8 13  4  0  0  0  0
  9 10  4  0  0  0  0
 10 11  4  0  0  0  0
 11 12  4  0  0  0  0
 12 13  4  0  0  0  0
 14 15  1  0  0  0  0
 14 18  1  0  0  0  0
 15 16  1  0  0  0  0
 16 17  1  0  0  0  0
 18 19  4  0  0  0  0
 18 23  4  0  0  0  0
 19 20  4  0  0  0  0
 20 21  4  0  0  0  0
 21 22  4  0  0  0  0
 22 23  4  0  0  0  0
M  STY  1   1 DAT
M  SAL   1  1   1
M  SDT   1 MRV_IMPLICIT_H                                        
M  SDD   1     0.0000    0.0000    DR    ALL  0       0  
M  SED   1 IMPL_H1
M  END
>  <Name_Molregno>
336640

>  <DOPAMINE D1>
5

>  <DOPAMINE D2>
5

>  <DOPAMINE D5>
5

$$$$
336642
  Marvin  02231216192D 0   1.00000     0.00000     0

 13 14  0  0  1  0  0  0  0  0999 V2000
    3.2786    0.3068    0.0000 O   0  0  0  0  0  0  0  0  0
    3.2786   -0.5182    0.0000 C   0  0  0  0  0  0  0  0  0
    2.5641   -0.9307    0.0000 C   0  0  0  0  0  0  0  0  0
    1.8497   -0.5182    0.0000 C   0  0  0  0  0  0  0  0  0
    1.8497    0.3068    0.0000 C   0  0  0  0  0  0  0  0  0
    1.1352    0.7193    0.0000 C   0  0  0  0  0  0  0  0  0
    0.4207    0.3068    0.0000 C   0  0  0  0  0  0  0  0  0
   -0.2937    0.7193    0.0000 C   0  0  0  0  0  0  0  0  0
   -0.2937    1.5443    0.0000 C   0  0  0  0  0  0  0  0  0
    0.4207    1.9568    0.0000 C   0  0  0  0  0  0  0  0  0
    1.1352    1.5443    0.0000 C   0  0  0  0  0  0  0  0  0
    2.5641    0.7193    0.0000 C   0  0  0  0  0  0  0  0  0
    2.5641    1.5443    0.0000 O   0  0  0  0  0  0  0  0  0
  1  2  1  0  0  0  0
  1 12  1  0  0  0  0
  2  3  1  0  0  0  0
  3  4  1  0  0  0  0
  4  5  1  0  0  0  0
  5  6  1  0  0  0  0
  5 12  1  0  0  0  0
  6  7  4  0  0  0  0
  6 11  4  0  0  0  0
  7  8  4  0  0  0  0
  8  9  4  0  0  0  0
  9 10  4  0  0  0  0
 10 11  4  0  0  0  0
 12 13  2  0  0  0  0
M  END
>  <Name_Molregno>
336642

>  <DOPAMINE D1>
5

>  <DOPAMINE D2>
5

>  <DOPAMINE D5>
5

$$$$
336646
  Marvin  02231216192D 0   1.00000     0.00000     0

 19 21  0  0  0  0  0  0  0  0999 V2000
    0.0255   -0.6767    0.0000 N   0  0  0  0  0  0  0  0  0
    0.7400   -0.2642    0.0000 C   0  0  0  0  0  0  0  0  0
    1.4545   -0.6767    0.0000 C   0  0  0  0  0  0  0  0  0
    1.4545   -1.5017    0.0000 C   0  0  0  0  0  0  0  0  0
    0.7400   -1.9142    0.0000 C   0  0  0  0  0  0  0  0  0
    0.0255   -1.5017    0.0000 C   0  0  0  0  0  0  0  0  0
   -0.6889   -1.9142    0.0000 C   0  0  0  0  0  0  0  0  0
   -1.4034   -1.5017    0.0000 C   0  0  0  0  0  0  0  0  0
   -1.4034   -0.6767    0.0000 C   0  0  0  0  0  0  0  0  0
   -0.6889   -0.2642    0.0000 C   0  0  0  0  0  0  0  0  0
   -2.1179   -1.9142    0.0000 C   0  0  0  0  0  0  0  0  0
   -2.1179   -2.7392    0.0000 C   0  0  0  0  0  0  0  0  0
   -1.4034   -3.1517    0.0000 C   0  0  0  0  0  0  0  0  0
   -0.6889   -2.7392    0.0000 C   0  0  0  0  0  0  0  0  0
    0.7400   -2.7392    0.0000 C   0  0  0  0  0  0  0  0  0
    1.4545   -3.1517    0.0000 C   0  0  0  0  0  0  0  0  0
    2.1689   -2.7392    0.0000 C   0  0  0  0  0  0  0  0  0
    2.1689   -1.9142    0.0000 C   0  0  0  0  0  0  0  0  0
   -0.4594   -1.3441    0.0000 C   0  0  0  0  0  0  0  0  0
  1  2  1  0  0  0  0
  1 10  1  0  0  0  0
  1 19  1  0  0  0  0
  2  3  1  0  0  0  0
  3  4  1  0  0  0  0
  4  5  4  0  0  0  0
  4 18  4  0  0  0  0
  5  6  1  0  0  0  0
  5 15  4  0  0  0  0
  6  7  1  0  0  0  0
  7  8  4  0  0  0  0
  7 14  4  0  0  0  0
  8  9  1  0  0  0  0
  8 11  4  0  0  0  0
  9 10  1  0  0  0  0
 11 12  4  0  0  0  0
 12 13  4  0  0  0  0
 13 14  4  0  0  0  0
 15 16  4  0  0  0  0
 16 17  4  0  0  0  0
 17 18  4  0  0  0  0
M  END
>  <Name_Molregno>
336646

>  <DOPAMINE D1>
8.14

>  <DOPAMINE D2>
7.45

>  <DOPAMINE D3>
7.3

>  <DOPAMINE D4>
6.87

>  <DOPAMINE D5>
8.14

$$$$
336648
  Marvin  02231216192D 0   1.00000     0.00000     0

 16 16  0  0  1  0  0  0  0  0999 V2000
   -0.6758   -1.9725    0.0000 Br  0  0  0  0  0  0  0  0  0
    0.0387   -2.3850    0.0000 C   0  0  0  0  0  0  0  0  0
    0.7531   -1.9725    0.0000 C   0  0  0  0  0  0  0  0  0
    1.4676   -2.3850    0.0000 C   0  0  0  0  0  0  0  0  0
    2.1821   -1.9725    0.0000 C   0  0  0  0  0  0  0  0  0
    2.8965   -2.3850    0.0000 C   0  0  0  0  0  0  0  0  0
    3.6110   -1.9725    0.0000 O   0  0  0  0  0  0  0  0  0
    4.3255   -2.3850    0.0000 C   0  0  0  0  0  0  0  0  0
    5.0400   -1.9725    0.0000 C   0  0  0  0  0  0  0  0  0
    2.8965   -3.2100    0.0000 O   0  0  0  0  0  0  0  0  0
    2.1821   -1.1475    0.0000 C   0  0  0  0  0  0  0  0  0
    1.4676   -0.7350    0.0000 C   0  0  0  0  0  0  0  0  0
    1.4676    0.0900    0.0000 C   0  0  0  0  0  0  0  0  0
    2.1821    0.5025    0.0000 C   0  0  0  0  0  0  0  0  0
    2.8965    0.0900    0.0000 C   0  0  0  0  0  0  0  0  0
    2.8965   -0.7350    0.0000 C   0  0  0  0  0  0  0  0  0
  1  2  1  0  0  0  0
  2  3  1  0  0  0  0
  3  4  1  0  0  0  0
  4  5  1  0  0  0  0
  5  6  1  0  0  0  0
  5 11  1  0  0  0  0
  6  7  1  0  0  0  0
  6 10  2  0  0  0  0
  7  8  1  0  0  0  0
  8  9  1  0  0  0  0
 11 12  4  0  0  0  0
 11 16  4  0  0  0  0
 12 13  4  0  0  0  0
 13 14  4  0  0  0  0
 14 15  4  0  0  0  0
 15 16  4  0  0  0  0
M  END
>  <Name_Molregno>
336648

>  <DOPAMINE D1>
5

>  <DOPAMINE D2>
5

>  <DOPAMINE D5>
5

$$$$
336649
  Marvin  02231216192D 0   1.00000     0.00000     0

 24 27  0  0  1  0  0  0  0  0999 V2000
   -0.0637   -0.3024    0.0000 O   0  0  0  0  0  0  0  0  0
    0.4883   -0.9155    0.0000 C   0  0  0  0  0  0  0  0  0
    1.2953   -0.7440    0.0000 N   0  0  0  0  0  0  0  0  0
    1.8473   -1.3571    0.0000 C   0  0  0  0  0  0  0  0  0
    1.5924   -2.1417    0.0000 C   0  0  0  0  0  0  0  0  0
    0.7854   -2.3132    0.0000 C   0  0  0  0  0  0  0  0  0
    0.2334   -1.7001    0.0000 C   0  0  0  0  0  0  0  0  0
   -0.5736   -1.8717    0.0000 C   0  0  0  0  0  0  0  0  0
   -0.8285   -2.6563    0.0000 C   0  0  0  0  0  0  0  0  0
   -1.6355   -2.8278    0.0000 C   0  0  0  0  0  0  0  0  0
   -2.1875   -2.2147    0.0000 C   0  0  0  0  0  0  0  0  0
   -1.9326   -1.4301    0.0000 C   0  0  0  0  0  0  0  0  0
   -1.1256   -1.2586    0.0000 C   0  0  0  0  0  0  0  0  0
    1.5502    0.0406    0.0000 C   0  0  0  0  0  0  0  0  0
    2.3572    0.2122    0.0000 C   0  0  0  0  0  0  0  0  0
    2.6121    0.9968    0.0000 C   0  0  0  0  0  0  0  0  0
    3.3968    1.2517    0.0000 C   0  0  0  0  0  0  0  0  0
    3.3968    2.0767    0.0000 C   0  0  0  0  0  0  0  0  0
    2.6121    2.3317    0.0000 N   0  0  0  0  0  0  0  0  0
    2.1272    1.6642    0.0000 C   0  0  0  0  0  0  0  0  0
    4.1112    2.4892    0.0000 C   0  0  0  0  0  0  0  0  0
    4.8257    2.0767    0.0000 C   0  0  0  0  0  0  0  0  0
    4.8257    1.2517    0.0000 C   0  0  0  0  0  0  0  0  0
    4.1112    0.8392    0.0000 C   0  0  0  0  0  0  0  0  0
  1  2  2  0  0  0  0
  2  3  1  0  0  0  0
  2  7  1  0  0  0  0
  3  4  1  0  0  0  0
  3 14  1  0  0  0  0
  4  5  1  0  0  0  0
  5  6  1  0  0  0  0
  6  7  1  0  0  0  0
  7  8  1  0  0  0  0
  8  9  4  0  0  0  0
  8 13  4  0  0  0  0
  9 10  4  0  0  0  0
 10 11  4  0  0  0  0
 11 12  4  0  0  0  0
 12 13  4  0  0  0  0
 14 15  1  0  0  0  0
 15 16  1  0  0  0  0
 16 17  4  0  0  0  0
 16 20  4  0  0  0  0
 17 18  4  0  0  0  0
 17 24  4  0  0  0  0
 18 19  4  0  0  0  0
 18 21  4  0  0  0  0
 19 20  4  0  0  0  0
 21 22  4  0  0  0  0
 22 23  4  0  0  0  0
 23 24  4  0  0  0  0
M  STY  1   1 DAT
M  SAL   1  1  19
M  SDT   1 MRV_IMPLICIT_H                                        
M  SDD   1     0.0000    0.0000    DR    ALL  0       0  
M  SED   1 IMPL_H1
M  END
>  <Name_Molregno>
336649

>  <DOPAMINE D1>
5

>  <DOPAMINE D2>
5

>  <DOPAMINE D5>
5

$$$$
336655
  Marvin  02231216192D 0   1.00000     0.00000     0

 24 27  0  0  1  0  0  0  0  0999 V2000
   -1.2245   -0.8771    0.0000 N   0  0  0  0  0  0  0  0  0
   -0.6426   -1.4620    0.0000 C   0  0  0  0  0  0  0  0  0
    0.1814   -1.4209    0.0000 C   0  0  0  0  0  0  0  0  0
    0.5578   -0.6867    0.0000 C   0  0  0  0  0  0  0  0  0
    1.3817   -0.6456    0.0000 C   0  0  0  0  0  0  0  0  0
    1.8293   -1.3387    0.0000 C   0  0  0  0  0  0  0  0  0
    1.4529   -2.0728    0.0000 C   0  0  0  0  0  0  0  0  0
    0.6290   -2.1139    0.0000 N   0  0  0  0  0  0  0  0  0
    0.2526   -2.8480    0.0000 C   0  0  0  0  0  0  0  0  0
   -0.5714   -2.8891    0.0000 C   0  0  0  0  0  0  0  0  0
   -1.0190   -2.1961    0.0000 C   0  0  0  0  0  0  0  0  0
   -1.8335   -2.0650    0.0000 C   0  0  0  0  0  0  0  0  0
   -1.9605   -1.2498    0.0000 C   0  0  0  0  0  0  0  0  0
   -2.7300   -0.9522    0.0000 C   0  0  0  0  0  0  0  0  0
   -3.3724   -1.4698    0.0000 C   0  0  0  0  0  0  0  0  0
   -3.2454   -2.2850    0.0000 C   0  0  0  0  0  0  0  0  0
   -2.4760   -2.5825    0.0000 C   0  0  0  0  0  0  0  0  0
   -0.1405   -1.8163    0.0000 C   0  0  0  0  0  0  0  0  0
    0.1102    0.0063    0.0000 C   0  0  0  0  0  0  0  0  0
   -0.7138   -0.0348    0.0000 C   0  0  0  0  0  0  0  0  0
   -1.1614    0.6582    0.0000 C   0  0  0  0  0  0  0  0  0
   -0.7850    1.3924    0.0000 C   0  0  0  0  0  0  0  0  0
    0.0390    1.4335    0.0000 C   0  0  0  0  0  0  0  0  0
    0.4866    0.7404    0.0000 C   0  0  0  0  0  0  0  0  0
  1  2  4  0  0  0  0
  1 13  4  0  0  0  0
  2  3  1  0  0  0  0
  2 11  4  0  0  0  0
  3  4  1  0  0  0  0
  4  5  1  0  0  0  0
  4 19  1  0  0  0  0
  5  6  1  0  0  0  0
  6  7  1  0  0  0  0
  7  8  1  0  0  0  0
  8  9  1  0  0  0  0
  8 18  1  0  0  0  0
  9 10  1  0  0  0  0
 10 11  1  0  0  0  0
 11 12  4  0  0  0  0
 12 13  4  0  0  0  0
 12 17  4  0  0  0  0
 13 14  4  0  0  0  0
 14 15  4  0  0  0  0
 15 16  4  0  0  0  0
 16 17  4  0  0  0  0
 19 20  4  0  0  0  0
 19 24  4  0  0  0  0
 20 21  4  0  0  0  0
 21 22  4  0  0  0  0
 22 23  4  0  0  0  0
 23 24  4  0  0  0  0
M  STY  1   1 DAT
M  SAL   1  1   1
M  SDT   1 MRV_IMPLICIT_H                                        
M  SDD   1     0.0000    0.0000    DR    ALL  0       0  
M  SED   1 IMPL_H1
M  END
>  <Name_Molregno>
336655

>  <DOPAMINE D1>
5

>  <DOPAMINE D2>
5

>  <DOPAMINE D5>
5

$$$$
336663
  Marvin  02231216192D 0   1.00000     0.00000     0

 24 27  0  0  1  0  0  0  0  0999 V2000
    0.1624   -0.0054    0.0000 N   0  0  0  0  0  0  0  0  0
    0.7442    0.5794    0.0000 C   0  0  0  0  0  0  0  0  0
    0.3679    1.3136    0.0000 C   0  0  0  0  0  0  0  0  0
    0.8154    2.0066    0.0000 C   0  0  0  0  0  0  0  0  0
    1.6394    1.9655    0.0000 C   0  0  0  0  0  0  0  0  0
    2.0158    1.2314    0.0000 N   0  0  0  0  0  0  0  0  0
    2.8398    1.1903    0.0000 C   0  0  0  0  0  0  0  0  0
    3.2162    0.4561    0.0000 C   0  0  0  0  0  0  0  0  0
    2.7686   -0.2369    0.0000 C   0  0  0  0  0  0  0  0  0
    1.9446   -0.1958    0.0000 C   0  0  0  0  0  0  0  0  0
    1.5682    0.5383    0.0000 C   0  0  0  0  0  0  0  0  0
    1.3567   -0.2591    0.0000 C   0  0  0  0  0  0  0  0  0
    1.9415   -0.8410    0.0000 C   0  0  0  0  0  0  0  0  0
    1.7300   -1.6384    0.0000 C   0  0  0  0  0  0  0  0  0
    0.9337   -1.8540    0.0000 C   0  0  0  0  0  0  0  0  0
    0.3489   -1.2721    0.0000 C   0  0  0  0  0  0  0  0  0
    0.5604   -0.4746    0.0000 C   0  0  0  0  0  0  0  0  0
    2.0611    0.4076    0.0000 C   0  0  0  0  0  0  0  0  0
   -0.4467    1.1824    0.0000 C   0  0  0  0  0  0  0  0  0
   -0.5737    0.3673    0.0000 C   0  0  0  0  0  0  0  0  0
   -1.3431    0.0697    0.0000 C   0  0  0  0  0  0  0  0  0
   -1.9856    0.5872    0.0000 C   0  0  0  0  0  0  0  0  0
   -1.8586    1.4024    0.0000 C   0  0  0  0  0  0  0  0  0
   -1.0891    1.7000    0.0000 C   0  0  0  0  0  0  0  0  0
  1  2  4  0  0  0  0
  1 20  4  0  0  0  0
  2  3  4  0  0  0  0
  2 11  1  0  0  0  0
  3  4  1  0  0  0  0
  3 19  4  0  0  0  0
  4  5  1  0  0  0  0
  5  6  1  0  0  0  0
  6  7  1  0  0  0  0
  6 18  1  0  0  0  0
  7  8  1  0  0  0  0
  8  9  1  0  0  0  0
  9 10  1  0  0  0  0
 10 11  1  0  0  0  0
 11 12  1  0  0  0  0
 12 13  4  0  0  0  0
 12 17  4  0  0  0  0
 13 14  4  0  0  0  0
 14 15  4  0  0  0  0
 15 16  4  0  0  0  0
 16 17  4  0  0  0  0
 19 20  4  0  0  0  0
 19 24  4  0  0  0  0
 20 21  4  0  0  0  0
 21 22  4  0  0  0  0
 22 23  4  0  0  0  0
 23 24  4  0  0  0  0
M  STY  1   1 DAT
M  SAL   1  1   1
M  SDT   1 MRV_IMPLICIT_H                                        
M  SDD   1     0.0000    0.0000    DR    ALL  0       0  
M  SED   1 IMPL_H1
M  END
>  <Name_Molregno>
336663

>  <DOPAMINE D1>
5

>  <DOPAMINE D2>
5

>  <DOPAMINE D5>
5

$$$$
336666
  Marvin  02231216192D 0   1.00000     0.00000     0

 20 22  0  0  0  0  0  0  0  0999 V2000
    0.3810   -0.8391    0.0000 O   0  0  0  0  0  0  0  0  0
    1.0955   -0.4266    0.0000 C   0  0  0  0  0  0  0  0  0
    1.0955    0.3984    0.0000 C   0  0  0  0  0  0  0  0  0
    1.8099    0.8109    0.0000 C   0  0  0  0  0  0  0  0  0
    1.8099    1.6359    0.0000 C   0  0  0  0  0  0  0  0  0
    2.5244    2.0484    0.0000 C   0  0  0  0  0  0  0  0  0
    3.2389    1.6359    0.0000 N   0  0  0  0  0  0  0  0  0
    3.9533    2.0484    0.0000 C   0  0  0  0  0  0  0  0  0
    4.6678    1.6359    0.0000 C   0  0  0  0  0  0  0  0  0
    4.6678    0.8109    0.0000 C   0  0  0  0  0  0  0  0  0
    3.9533    0.3984    0.0000 C   0  0  0  0  0  0  0  0  0
    3.2389    0.8109    0.0000 C   0  0  0  0  0  0  0  0  0
    2.5244    0.3984    0.0000 C   0  0  0  0  0  0  0  0  0
    2.5244   -0.4266    0.0000 C   0  0  0  0  0  0  0  0  0
    1.8099   -0.8391    0.0000 C   0  0  0  0  0  0  0  0  0
    3.9533   -0.4266    0.0000 C   0  0  0  0  0  0  0  0  0
    4.6678   -0.8391    0.0000 C   0  0  0  0  0  0  0  0  0
    5.3823   -0.4266    0.0000 C   0  0  0  0  0  0  0  0  0
    5.3823    0.3984    0.0000 C   0  0  0  0  0  0  0  0  0
    2.7539    0.9685    0.0000 C   0  0  0  0  0  0  0  0  0
  1  2  1  0  0  0  0
  2  3  4  0  0  0  0
  2 15  4  0  0  0  0
  3  4  4  0  0  0  0
  4  5  1  0  0  0  0
  4 13  4  0  0  0  0
  5  6  1  0  0  0  0
  6  7  1  0  0  0  0
  7  8  1  0  0  0  0
  7 20  1  0  0  0  0
  8  9  1  0  0  0  0
  9 10  1  0  0  0  0
 10 11  4  0  0  0  0
 10 19  4  0  0  0  0
 11 12  1  0  0  0  0
 11 16  4  0  0  0  0
 12 13  1  0  0  0  0
 13 14  4  0  0  0  0
 14 15  4  0  0  0  0
 16 17  4  0  0  0  0
 17 18  4  0  0  0  0
 18 19  4  0  0  0  0
M  END
>  <Name_Molregno>
336666

>  <DOPAMINE D1>
9.16

>  <DOPAMINE D2>
7.68

>  <DOPAMINE D3>
7.31

>  <DOPAMINE D4>
7.95

>  <DOPAMINE D5>
8.81

$$$$
340961
  Marvin  02231216192D 0   1.00000     0.00000     0

 21 23  0  0  0  0  0  0  0  0999 V2000
    0.3310   -1.6397    0.0000 Cl  0  0  0  0  0  0  0  0  0
    1.0454   -1.2272    0.0000 C   0  0  0  0  0  0  0  0  0
    1.0454   -0.4022    0.0000 C   0  0  0  0  0  0  0  0  0
    1.7599    0.0103    0.0000 C   0  0  0  0  0  0  0  0  0
    1.7599    0.8353    0.0000 C   0  0  0  0  0  0  0  0  0
    2.4744    1.2478    0.0000 C   0  0  0  0  0  0  0  0  0
    3.1889    0.8353    0.0000 N   0  0  0  0  0  0  0  0  0
    3.9033    1.2478    0.0000 C   0  0  0  0  0  0  0  0  0
    4.6178    0.8353    0.0000 C   0  0  0  0  0  0  0  0  0
    4.6178    0.0103    0.0000 C   0  0  0  0  0  0  0  0  0
    3.9033   -0.4022    0.0000 C   0  0  0  0  0  0  0  0  0
    3.1889    0.0103    0.0000 C   0  0  0  0  0  0  0  0  0
    2.4744   -0.4022    0.0000 C   0  0  0  0  0  0  0  0  0
    2.4744   -1.2272    0.0000 C   0  0  0  0  0  0  0  0  0
    1.7599   -1.6397    0.0000 C   0  0  0  0  0  0  0  0  0
    1.7599   -2.4647    0.0000 O   0  0  0  0  0  0  0  0  0
    3.9033   -1.2272    0.0000 C   0  0  0  0  0  0  0  0  0
    4.6178   -1.6397    0.0000 C   0  0  0  0  0  0  0  0  0
    5.3323   -1.2272    0.0000 C   0  0  0  0  0  0  0  0  0
    5.3323   -0.4022    0.0000 C   0  0  0  0  0  0  0  0  0
    2.7039    0.1678    0.0000 C   0  0  0  0  0  0  0  0  0
  1  2  1  0  0  0  0
  2  3  4  0  0  0  0
  2 15  4  0  0  0  0
  3  4  4  0  0  0  0
  4  5  1  0  0  0  0
  4 13  4  0  0  0  0
  5  6  1  0  0  0  0
  6  7  1  0  0  0  0
  7  8  1  0  0  0  0
  7 21  1  0  0  0  0
  8  9  1  0  0  0  0
  9 10  1  0  0  0  0
 10 11  4  0  0  0  0
 10 20  4  0  0  0  0
 11 12  1  0  0  0  0
 11 17  4  0  0  0  0
 12 13  1  0  0  0  0
 13 14  4  0  0  0  0
 14 15  4  0  0  0  0
 15 16  1  0  0  0  0
 17 18  4  0  0  0  0
 18 19  4  0  0  0  0
 19 20  4  0  0  0  0
M  END
>  <Name_Molregno>
340961

>  <DOPAMINE D1>
8.24

>  <DOPAMINE D2>
8.51

>  <DOPAMINE D3>
7.56

>  <DOPAMINE D5>
8.41

$$$$
341251
  Marvin  02231216192D 0   1.00000     0.00000     0

 20 22  0  0  0  0  0  0  0  0999 V2000
    1.6040    0.1461    0.0000 O   0  0  0  0  0  0  0  0  0
    0.8896   -0.2664    0.0000 C   0  0  0  0  0  0  0  0  0
    0.8896   -1.0914    0.0000 C   0  0  0  0  0  0  0  0  0
    1.6040   -1.5039    0.0000 C   0  0  0  0  0  0  0  0  0
    2.3185   -1.0914    0.0000 C   0  0  0  0  0  0  0  0  0
    3.0330   -1.5039    0.0000 C   0  0  0  0  0  0  0  0  0
    3.0330   -2.3289    0.0000 C   0  0  0  0  0  0  0  0  0
    2.3185   -2.7414    0.0000 C   0  0  0  0  0  0  0  0  0
    1.6040   -2.3289    0.0000 N   0  0  0  0  0  0  0  0  0
    0.8896   -2.7414    0.0000 C   0  0  0  0  0  0  0  0  0
    0.1751   -2.3289    0.0000 C   0  0  0  0  0  0  0  0  0
    0.1751   -1.5039    0.0000 C   0  0  0  0  0  0  0  0  0
   -0.5394   -1.0914    0.0000 C   0  0  0  0  0  0  0  0  0
   -0.5394   -0.2664    0.0000 C   0  0  0  0  0  0  0  0  0
    0.1751    0.1461    0.0000 C   0  0  0  0  0  0  0  0  0
    1.1191   -1.6615    0.0000 C   0  0  0  0  0  0  0  0  0
    3.7475   -1.0914    0.0000 C   0  0  0  0  0  0  0  0  0
    3.7475   -0.2664    0.0000 C   0  0  0  0  0  0  0  0  0
    3.0330    0.1461    0.0000 C   0  0  0  0  0  0  0  0  0
    2.3185   -0.2664    0.0000 C   0  0  0  0  0  0  0  0  0
  1  2  1  0  0  0  0
  2  3  4  0  0  0  0
  2 15  4  0  0  0  0
  3  4  1  0  0  0  0
  3 12  4  0  0  0  0
  4  5  1  0  0  0  0
  5  6  4  0  0  0  0
  5 20  4  0  0  0  0
  6  7  1  0  0  0  0
  6 17  4  0  0  0  0
  7  8  1  0  0  0  0
  8  9  1  0  0  0  0
  9 10  1  0  0  0  0
  9 16  1  0  0  0  0
 10 11  1  0  0  0  0
 11 12  1  0  0  0  0
 12 13  4  0  0  0  0
 13 14  4  0  0  0  0
 14 15  4  0  0  0  0
 17 18  4  0  0  0  0
 18 19  4  0  0  0  0
 19 20  4  0  0  0  0
M  END
>  <Name_Molregno>
341251

>  <DOPAMINE D1>
7.63

>  <DOPAMINE D2>
7.59

>  <DOPAMINE D3>
6.67

>  <DOPAMINE D5>
7.98

$$$$
341293
  Marvin  02231216192D 0   1.00000     0.00000     0

 21 23  0  0  0  0  0  0  0  0999 V2000
   -1.4484    0.1191    0.0000 O   0  0  0  0  0  0  0  0  0
   -1.4484    0.9441    0.0000 C   0  0  0  0  0  0  0  0  0
   -2.1629   -0.2934    0.0000 C   0  0  0  0  0  0  0  0  0
   -2.1629   -1.1184    0.0000 C   0  0  0  0  0  0  0  0  0
   -1.4484   -1.5309    0.0000 C   0  0  0  0  0  0  0  0  0
   -0.7339   -1.1184    0.0000 C   0  0  0  0  0  0  0  0  0
   -0.0195   -1.5309    0.0000 C   0  0  0  0  0  0  0  0  0
   -0.0195   -2.3559    0.0000 C   0  0  0  0  0  0  0  0  0
   -0.7339   -2.7684    0.0000 C   0  0  0  0  0  0  0  0  0
   -1.4484   -2.3559    0.0000 N   0  0  0  0  0  0  0  0  0
   -2.1629   -2.7684    0.0000 C   0  0  0  0  0  0  0  0  0
   -2.8774   -2.3559    0.0000 C   0  0  0  0  0  0  0  0  0
   -2.8774   -1.5309    0.0000 C   0  0  0  0  0  0  0  0  0
   -3.5918   -1.1184    0.0000 C   0  0  0  0  0  0  0  0  0
   -3.5918   -0.2934    0.0000 C   0  0  0  0  0  0  0  0  0
   -2.8774    0.1191    0.0000 C   0  0  0  0  0  0  0  0  0
   -1.9333   -1.6885    0.0000 C   0  0  0  0  0  0  0  0  0
    0.6950   -1.1184    0.0000 C   0  0  0  0  0  0  0  0  0
    0.6950   -0.2934    0.0000 C   0  0  0  0  0  0  0  0  0
   -0.0195    0.1191    0.0000 C   0  0  0  0  0  0  0  0  0
   -0.7339   -0.2934    0.0000 C   0  0  0  0  0  0  0  0  0
  1  2  1  0  0  0  0
  1  3  1  0  0  0  0
  3  4  4  0  0  0  0
  3 16  4  0  0  0  0
  4  5  1  0  0  0  0
  4 13  4  0  0  0  0
  5  6  1  0  0  0  0
  6  7  4  0  0  0  0
  6 21  4  0  0  0  0
  7  8  1  0  0  0  0
  7 18  4  0  0  0  0
  8  9  1  0  0  0  0
  9 10  1  0  0  0  0
 10 11  1  0  0  0  0
 10 17  1  0  0  0  0
 11 12  1  0  0  0  0
 12 13  1  0  0  0  0
 13 14  4  0  0  0  0
 14 15  4  0  0  0  0
 15 16  4  0  0  0  0
 18 19  4  0  0  0  0
 19 20  4  0  0  0  0
 20 21  4  0  0  0  0
M  END
>  <Name_Molregno>
341293

>  <DOPAMINE D1>
7.77

>  <DOPAMINE D2>
7.1

>  <DOPAMINE D3>
5.74

>  <DOPAMINE D5>
7.26

$$$$
341318
  Marvin  02231216192D 0   1.00000     0.00000     0

 21 23  0  0  0  0  0  0  0  0999 V2000
    0.3270   -0.4954    0.0000 O   0  0  0  0  0  0  0  0  0
    1.0414   -0.0829    0.0000 C   0  0  0  0  0  0  0  0  0
    1.0414    0.7421    0.0000 C   0  0  0  0  0  0  0  0  0
    1.7559    1.1546    0.0000 C   0  0  0  0  0  0  0  0  0
    1.7559    1.9796    0.0000 C   0  0  0  0  0  0  0  0  0
    2.4704    2.3921    0.0000 C   0  0  0  0  0  0  0  0  0
    3.1849    1.9796    0.0000 N   0  0  0  0  0  0  0  0  0
    3.8993    2.3921    0.0000 C   0  0  0  0  0  0  0  0  0
    4.6138    1.9796    0.0000 C   0  0  0  0  0  0  0  0  0
    4.6138    1.1546    0.0000 C   0  0  0  0  0  0  0  0  0
    5.3283    0.7421    0.0000 C   0  0  0  0  0  0  0  0  0
    5.3283   -0.0829    0.0000 C   0  0  0  0  0  0  0  0  0
    6.0427   -0.4954    0.0000 O   0  0  0  0  0  0  0  0  0
    4.6138   -0.4954    0.0000 C   0  0  0  0  0  0  0  0  0
    3.8993   -0.0829    0.0000 C   0  0  0  0  0  0  0  0  0
    3.8993    0.7421    0.0000 C   0  0  0  0  0  0  0  0  0
    3.1849    1.1546    0.0000 C   0  0  0  0  0  0  0  0  0
    2.4704    0.7421    0.0000 C   0  0  0  0  0  0  0  0  0
    2.4704   -0.0829    0.0000 C   0  0  0  0  0  0  0  0  0
    1.7559   -0.4954    0.0000 C   0  0  0  0  0  0  0  0  0
    2.6999    1.3121    0.0000 C   0  0  0  0  0  0  0  0  0
  1  2  1  0  0  0  0
  2  3  4  0  0  0  0
  2 20  4  0  0  0  0
  3  4  4  0  0  0  0
  4  5  1  0  0  0  0
  4 18  4  0  0  0  0
  5  6  1  0  0  0  0
  6  7  1  0  0  0  0
  7  8  1  0  0  0  0
  7 21  1  0  0  0  0
  8  9  1  0  0  0  0
  9 10  1  0  0  0  0
 10 11  4  0  0  0  0
 10 16  4  0  0  0  0
 11 12  4  0  0  0  0
 12 13  1  0  0  0  0
 12 14  4  0  0  0  0
 14 15  4  0  0  0  0
 15 16  4  0  0  0  0
 16 17  1  0  0  0  0
 17 18  1  0  0  0  0
 18 19  4  0  0  0  0
 19 20  4  0  0  0  0
M  END
>  <Name_Molregno>
341318

>  <DOPAMINE D1>
8.59

>  <DOPAMINE D2>
7.47

>  <DOPAMINE D3>
6.47

>  <DOPAMINE D5>
9.02

$$$$
341319
  Marvin  02231216192D 0   1.00000     0.00000     0

 23 25  0  0  0  0  0  0  0  0999 V2000
   -6.0296   -0.4982    0.0000 O   0  0  0  0  0  0  0  0  0
   -6.0296   -1.3232    0.0000 C   0  0  0  0  0  0  0  0  0
   -5.3152   -0.0857    0.0000 C   0  0  0  0  0  0  0  0  0
   -5.3152    0.7393    0.0000 C   0  0  0  0  0  0  0  0  0
   -4.6007    1.1518    0.0000 C   0  0  0  0  0  0  0  0  0
   -4.6007    1.9768    0.0000 C   0  0  0  0  0  0  0  0  0
   -3.8862    2.3893    0.0000 C   0  0  0  0  0  0  0  0  0
   -3.1717    1.9768    0.0000 N   0  0  0  0  0  0  0  0  0
   -2.4573    2.3893    0.0000 C   0  0  0  0  0  0  0  0  0
   -1.7428    1.9768    0.0000 C   0  0  0  0  0  0  0  0  0
   -1.7428    1.1518    0.0000 C   0  0  0  0  0  0  0  0  0
   -1.0283    0.7393    0.0000 C   0  0  0  0  0  0  0  0  0
   -1.0283   -0.0857    0.0000 C   0  0  0  0  0  0  0  0  0
   -0.3139   -0.4982    0.0000 O   0  0  0  0  0  0  0  0  0
    0.4006   -0.0857    0.0000 C   0  0  0  0  0  0  0  0  0
   -1.7428   -0.4982    0.0000 C   0  0  0  0  0  0  0  0  0
   -2.4573   -0.0857    0.0000 C   0  0  0  0  0  0  0  0  0
   -2.4573    0.7393    0.0000 C   0  0  0  0  0  0  0  0  0
   -3.1717    1.1518    0.0000 C   0  0  0  0  0  0  0  0  0
   -3.8862    0.7393    0.0000 C   0  0  0  0  0  0  0  0  0
   -3.8862   -0.0857    0.0000 C   0  0  0  0  0  0  0  0  0
   -4.6007   -0.4982    0.0000 C   0  0  0  0  0  0  0  0  0
   -3.6567    1.3093    0.0000 C   0  0  0  0  0  0  0  0  0
  1  2  1  0  0  0  0
  1  3  1  0  0  0  0
  3  4  4  0  0  0  0
  3 22  4  0  0  0  0
  4  5  4  0  0  0  0
  5  6  1  0  0  0  0
  5 20  4  0  0  0  0
  6  7  1  0  0  0  0
  7  8  1  0  0  0  0
  8  9  1  0  0  0  0
  8 23  1  0  0  0  0
  9 10  1  0  0  0  0
 10 11  1  0  0  0  0
 11 12  4  0  0  0  0
 11 18  4  0  0  0  0
 12 13  4  0  0  0  0
 13 14  1  0  0  0  0
 13 16  4  0  0  0  0
 14 15  1  0  0  0  0
 16 17  4  0  0  0  0
 17 18  4  0  0  0  0
 18 19  1  0  0  0  0
 19 20  1  0  0  0  0
 20 21  4  0  0  0  0
 21 22  4  0  0  0  0
M  END
>  <Name_Molregno>
341319

>  <DOPAMINE D1>
7.8

>  <DOPAMINE D2>
8.7

>  <DOPAMINE D3>
6.99

>  <DOPAMINE D5>
7.92

$$$$
341495
  Marvin  02231216192D 0   1.00000     0.00000     0

 21 23  0  0  0  0  0  0  0  0999 V2000
   -5.4665   -0.7767    0.0000 O   0  0  0  0  0  0  0  0  0
   -5.4665   -1.6017    0.0000 C   0  0  0  0  0  0  0  0  0
   -4.7520   -0.3642    0.0000 C   0  0  0  0  0  0  0  0  0
   -4.7520    0.4608    0.0000 C   0  0  0  0  0  0  0  0  0
   -4.0375    0.8733    0.0000 C   0  0  0  0  0  0  0  0  0
   -4.0375    1.6983    0.0000 C   0  0  0  0  0  0  0  0  0
   -3.3231    2.1108    0.0000 C   0  0  0  0  0  0  0  0  0
   -2.6086    1.6983    0.0000 N   0  0  0  0  0  0  0  0  0
   -1.8941    2.1108    0.0000 C   0  0  0  0  0  0  0  0  0
   -1.1796    1.6983    0.0000 C   0  0  0  0  0  0  0  0  0
   -1.1796    0.8733    0.0000 C   0  0  0  0  0  0  0  0  0
   -1.8941    0.4608    0.0000 C   0  0  0  0  0  0  0  0  0
   -2.6086    0.8733    0.0000 C   0  0  0  0  0  0  0  0  0
   -3.3231    0.4608    0.0000 C   0  0  0  0  0  0  0  0  0
   -3.3231   -0.3642    0.0000 C   0  0  0  0  0  0  0  0  0
   -4.0375   -0.7767    0.0000 C   0  0  0  0  0  0  0  0  0
   -1.8941   -0.3642    0.0000 C   0  0  0  0  0  0  0  0  0
   -1.1796   -0.7767    0.0000 C   0  0  0  0  0  0  0  0  0
   -0.4652   -0.3642    0.0000 C   0  0  0  0  0  0  0  0  0
   -0.4652    0.4608    0.0000 C   0  0  0  0  0  0  0  0  0
   -3.0935    1.0309    0.0000 C   0  0  0  0  0  0  0  0  0
  1  2  1  0  0  0  0
  1  3  1  0  0  0  0
  3  4  4  0  0  0  0
  3 16  4  0  0  0  0
  4  5  4  0  0  0  0
  5  6  1  0  0  0  0
  5 14  4  0  0  0  0
  6  7  1  0  0  0  0
  7  8  1  0  0  0  0
  8  9  1  0  0  0  0
  8 21  1  0  0  0  0
  9 10  1  0  0  0  0
 10 11  1  0  0  0  0
 11 12  4  0  0  0  0
 11 20  4  0  0  0  0
 12 13  1  0  0  0  0
 12 17  4  0  0  0  0
 13 14  1  0  0  0  0
 14 15  4  0  0  0  0
 15 16  4  0  0  0  0
 17 18  4  0  0  0  0
 18 19  4  0  0  0  0
 19 20  4  0  0  0  0
M  END
>  <Name_Molregno>
341495

>  <DOPAMINE D1>
7.58

>  <DOPAMINE D2>
8.16

>  <DOPAMINE D3>
7.12

>  <DOPAMINE D4>
7.36

>  <DOPAMINE D5>
7.53

$$$$
341497
  Marvin  02231216192D 0   1.00000     0.00000     0

 21 23  0  0  0  0  0  0  0  0999 V2000
   -4.7162   -0.5690    0.0000 Cl  0  0  0  0  0  0  0  0  0
   -4.0017   -0.9815    0.0000 C   0  0  0  0  0  0  0  0  0
   -3.2872   -0.5690    0.0000 C   0  0  0  0  0  0  0  0  0
   -3.2872    0.2560    0.0000 C   0  0  0  0  0  0  0  0  0
   -2.5727    0.6685    0.0000 C   0  0  0  0  0  0  0  0  0
   -1.8583    0.2560    0.0000 N   0  0  0  0  0  0  0  0  0
   -1.1438    0.6685    0.0000 C   0  0  0  0  0  0  0  0  0
   -0.4293    0.2560    0.0000 C   0  0  0  0  0  0  0  0  0
   -0.4293   -0.5690    0.0000 C   0  0  0  0  0  0  0  0  0
   -1.1438   -0.9815    0.0000 C   0  0  0  0  0  0  0  0  0
   -1.8583   -0.5690    0.0000 C   0  0  0  0  0  0  0  0  0
   -2.5727   -0.9815    0.0000 C   0  0  0  0  0  0  0  0  0
   -2.5727   -1.8065    0.0000 C   0  0  0  0  0  0  0  0  0
   -3.2872   -2.2190    0.0000 C   0  0  0  0  0  0  0  0  0
   -4.0017   -1.8065    0.0000 C   0  0  0  0  0  0  0  0  0
   -4.7162   -2.2190    0.0000 O   0  0  0  0  0  0  0  0  0
   -1.1438   -1.8065    0.0000 C   0  0  0  0  0  0  0  0  0
   -0.4293   -2.2190    0.0000 C   0  0  0  0  0  0  0  0  0
    0.2851   -1.8065    0.0000 C   0  0  0  0  0  0  0  0  0
    0.2851   -0.9815    0.0000 C   0  0  0  0  0  0  0  0  0
   -2.3432   -0.4114    0.0000 C   0  0  0  0  0  0  0  0  0
  1  2  1  0  0  0  0
  2  3  4  0  0  0  0
  2 15  4  0  0  0  0
  3  4  1  0  0  0  0
  3 12  4  0  0  0  0
  4  5  1  0  0  0  0
  5  6  1  0  0  0  0
  6  7  1  0  0  0  0
  6 21  1  0  0  0  0
  7  8  1  0  0  0  0
  8  9  1  0  0  0  0
  9 10  4  0  0  0  0
  9 20  4  0  0  0  0
 10 11  1  0  0  0  0
 10 17  4  0  0  0  0
 11 12  1  0  0  0  0
 12 13  4  0  0  0  0
 13 14  4  0  0  0  0
 14 15  4  0  0  0  0
 15 16  1  0  0  0  0
 17 18  4  0  0  0  0
 18 19  4  0  0  0  0
 19 20  4  0  0  0  0
M  END
>  <Name_Molregno>
341497

>  <DOPAMINE D1>
9.17

>  <DOPAMINE D2>
8.35

>  <DOPAMINE D3>
7.61

>  <DOPAMINE D4>
7.73

>  <DOPAMINE D5>
10.26

$$$$
341794
  Marvin  02231216192D 0   1.00000     0.00000     0

 21 23  0  0  0  0  0  0  0  0999 V2000
    0.3310   -1.6397    0.0000 O   0  0  0  0  0  0  0  0  0
    1.0454   -1.2272    0.0000 C   0  0  0  0  0  0  0  0  0
    1.0454   -0.4022    0.0000 C   0  0  0  0  0  0  0  0  0
    1.7599    0.0103    0.0000 C   0  0  0  0  0  0  0  0  0
    1.7599    0.8353    0.0000 C   0  0  0  0  0  0  0  0  0
    2.4744    1.2478    0.0000 C   0  0  0  0  0  0  0  0  0
    3.1889    0.8353    0.0000 N   0  0  0  0  0  0  0  0  0
    3.9033    1.2478    0.0000 C   0  0  0  0  0  0  0  0  0
    4.6178    0.8353    0.0000 C   0  0  0  0  0  0  0  0  0
    4.6178    0.0103    0.0000 C   0  0  0  0  0  0  0  0  0
    3.9033   -0.4022    0.0000 C   0  0  0  0  0  0  0  0  0
    3.1889    0.0103    0.0000 C   0  0  0  0  0  0  0  0  0
    2.4744   -0.4022    0.0000 C   0  0  0  0  0  0  0  0  0
    2.4744   -1.2272    0.0000 C   0  0  0  0  0  0  0  0  0
    1.7599   -1.6397    0.0000 C   0  0  0  0  0  0  0  0  0
    1.7599   -2.4647    0.0000 N   0  0  0  0  0  0  0  0  0
    3.9033   -1.2272    0.0000 C   0  0  0  0  0  0  0  0  0
    4.6178   -1.6397    0.0000 C   0  0  0  0  0  0  0  0  0
    5.3323   -1.2272    0.0000 C   0  0  0  0  0  0  0  0  0
    5.3323   -0.4022    0.0000 C   0  0  0  0  0  0  0  0  0
    2.7039    0.1678    0.0000 C   0  0  0  0  0  0  0  0  0
  1  2  1  0  0  0  0
  2  3  4  0  0  0  0
  2 15  4  0  0  0  0
  3  4  4  0  0  0  0
  4  5  1  0  0  0  0
  4 13  4  0  0  0  0
  5  6  1  0  0  0  0
  6  7  1  0  0  0  0
  7  8  1  0  0  0  0
  7 21  1  0  0  0  0
  8  9  1  0  0  0  0
  9 10  1  0  0  0  0
 10 11  4  0  0  0  0
 10 20  4  0  0  0  0
 11 12  1  0  0  0  0
 11 17  4  0  0  0  0
 12 13  1  0  0  0  0
 13 14  4  0  0  0  0
 14 15  4  0  0  0  0
 15 16  1  0  0  0  0
 17 18  4  0  0  0  0
 18 19  4  0  0  0  0
 19 20  4  0  0  0  0
M  END
>  <Name_Molregno>
341794

>  <DOPAMINE D1>
7.85

>  <DOPAMINE D2>
7.5

>  <DOPAMINE D5>
7.02

$$$$
341800
  Marvin  02231216192D 0   1.00000     0.00000     0

 20 22  0  0  0  0  0  0  0  0999 V2000
    0.9629    0.2847    0.0000 O   0  0  0  0  0  0  0  0  0
    0.9629   -0.5403    0.0000 C   0  0  0  0  0  0  0  0  0
    1.6773   -0.9528    0.0000 C   0  0  0  0  0  0  0  0  0
    1.6773   -1.7778    0.0000 C   0  0  0  0  0  0  0  0  0
    2.3918   -2.1903    0.0000 C   0  0  0  0  0  0  0  0  0
    3.1063   -1.7778    0.0000 C   0  0  0  0  0  0  0  0  0
    3.8208   -2.1903    0.0000 C   0  0  0  0  0  0  0  0  0
    3.8208   -3.0153    0.0000 C   0  0  0  0  0  0  0  0  0
    3.1063   -3.4278    0.0000 C   0  0  0  0  0  0  0  0  0
    2.3918   -3.0153    0.0000 N   0  0  0  0  0  0  0  0  0
    1.6773   -3.4278    0.0000 C   0  0  0  0  0  0  0  0  0
    0.9629   -3.0153    0.0000 C   0  0  0  0  0  0  0  0  0
    0.9629   -2.1903    0.0000 C   0  0  0  0  0  0  0  0  0
    0.2484   -1.7778    0.0000 C   0  0  0  0  0  0  0  0  0
    0.2484   -0.9528    0.0000 C   0  0  0  0  0  0  0  0  0
    1.9069   -2.3479    0.0000 C   0  0  0  0  0  0  0  0  0
    4.5352   -1.7778    0.0000 C   0  0  0  0  0  0  0  0  0
    4.5352   -0.9528    0.0000 C   0  0  0  0  0  0  0  0  0
    3.8208   -0.5403    0.0000 C   0  0  0  0  0  0  0  0  0
    3.1063   -0.9528    0.0000 C   0  0  0  0  0  0  0  0  0
  1  2  1  0  0  0  0
  2  3  4  0  0  0  0
  2 15  4  0  0  0  0
  3  4  4  0  0  0  0
  4  5  1  0  0  0  0
  4 13  4  0  0  0  0
  5  6  1  0  0  0  0
  6  7  4  0  0  0  0
  6 20  4  0  0  0  0
  7  8  1  0  0  0  0
  7 17  4  0  0  0  0
  8  9  1  0  0  0  0
  9 10  1  0  0  0  0
 10 11  1  0  0  0  0
 10 16  1  0  0  0  0
 11 12  1  0  0  0  0
 12 13  1  0  0  0  0
 13 14  4  0  0  0  0
 14 15  4  0  0  0  0
 17 18  4  0  0  0  0
 18 19  4  0  0  0  0
 19 20  4  0  0  0  0
M  END
>  <Name_Molregno>
341800

>  <DOPAMINE D1>
8.32

>  <DOPAMINE D2>
7.57

>  <DOPAMINE D3>
6.53

>  <DOPAMINE D5>
7.4

$$$$
341801
  Marvin  02231216192D 0   1.00000     0.00000     0

 21 23  0  0  0  0  0  0  0  0999 V2000
   -3.3819    0.2489    0.0000 O   0  0  0  0  0  0  0  0  0
   -4.0964    0.6614    0.0000 C   0  0  0  0  0  0  0  0  0
   -3.3819   -0.5761    0.0000 C   0  0  0  0  0  0  0  0  0
   -2.6674   -0.9886    0.0000 C   0  0  0  0  0  0  0  0  0
   -2.6674   -1.8136    0.0000 C   0  0  0  0  0  0  0  0  0
   -1.9530   -2.2261    0.0000 C   0  0  0  0  0  0  0  0  0
   -1.2385   -1.8136    0.0000 C   0  0  0  0  0  0  0  0  0
   -0.5240   -2.2261    0.0000 C   0  0  0  0  0  0  0  0  0
   -0.5240   -3.0511    0.0000 C   0  0  0  0  0  0  0  0  0
   -1.2385   -3.4636    0.0000 C   0  0  0  0  0  0  0  0  0
   -1.9530   -3.0511    0.0000 N   0  0  0  0  0  0  0  0  0
   -2.6674   -3.4636    0.0000 C   0  0  0  0  0  0  0  0  0
   -3.3819   -3.0511    0.0000 C   0  0  0  0  0  0  0  0  0
   -3.3819   -2.2261    0.0000 C   0  0  0  0  0  0  0  0  0
   -4.0964   -1.8136    0.0000 C   0  0  0  0  0  0  0  0  0
   -4.0964   -0.9886    0.0000 C   0  0  0  0  0  0  0  0  0
   -2.4379   -2.3837    0.0000 C   0  0  0  0  0  0  0  0  0
    0.1904   -1.8136    0.0000 C   0  0  0  0  0  0  0  0  0
    0.1904   -0.9886    0.0000 C   0  0  0  0  0  0  0  0  0
   -0.5240   -0.5761    0.0000 C   0  0  0  0  0  0  0  0  0
   -1.2385   -0.9886    0.0000 C   0  0  0  0  0  0  0  0  0
  1  2  1  0  0  0  0
  1  3  1  0  0  0  0
  3  4  4  0  0  0  0
  3 16  4  0  0  0  0
  4  5  4  0  0  0  0
  5  6  1  0  0  0  0
  5 14  4  0  0  0  0
  6  7  1  0  0  0  0
  7  8  4  0  0  0  0
  7 21  4  0  0  0  0
  8  9  1  0  0  0  0
  8 18  4  0  0  0  0
  9 10  1  0  0  0  0
 10 11  1  0  0  0  0
 11 12  1  0  0  0  0
 11 17  1  0  0  0  0
 12 13  1  0  0  0  0
 13 14  1  0  0  0  0
 14 15  4  0  0  0  0
 15 16  4  0  0  0  0
 18 19  4  0  0  0  0
 19 20  4  0  0  0  0
 20 21  4  0  0  0  0
M  END
>  <Name_Molregno>
341801

>  <DOPAMINE D1>
6.67

>  <DOPAMINE D2>
7.44

>  <DOPAMINE D3>
6.82

>  <DOPAMINE D5>
5.98

$$$$
341802
  Marvin  02231216192D 0   1.00000     0.00000     0

 23 25  0  0  0  0  0  0  0  0999 V2000
    1.4741   -0.1428    0.0000 Cl  0  0  0  0  0  0  0  0  0
    0.7597   -0.5553    0.0000 C   0  0  0  0  0  0  0  0  0
    0.7597   -1.3803    0.0000 C   0  0  0  0  0  0  0  0  0
    1.4741   -1.7928    0.0000 C   0  0  0  0  0  0  0  0  0
    2.1886   -1.3803    0.0000 C   0  0  0  0  0  0  0  0  0
    2.9031   -1.7928    0.0000 C   0  0  0  0  0  0  0  0  0
    2.9031   -2.6178    0.0000 C   0  0  0  0  0  0  0  0  0
    2.1886   -3.0303    0.0000 C   0  0  0  0  0  0  0  0  0
    1.4741   -2.6178    0.0000 N   0  0  0  0  0  0  0  0  0
    0.7597   -3.0303    0.0000 C   0  0  0  0  0  0  0  0  0
    0.0452   -2.6178    0.0000 C   0  0  0  0  0  0  0  0  0
    0.0452   -1.7928    0.0000 C   0  0  0  0  0  0  0  0  0
   -0.6693   -1.3803    0.0000 C   0  0  0  0  0  0  0  0  0
   -0.6693   -0.5553    0.0000 C   0  0  0  0  0  0  0  0  0
   -1.3838   -0.1428    0.0000 Cl  0  0  0  0  0  0  0  0  0
    0.0452   -0.1428    0.0000 C   0  0  0  0  0  0  0  0  0
    0.0452    0.6822    0.0000 O   0  0  0  0  0  0  0  0  0
   -0.6693    1.0947    0.0000 C   0  0  0  0  0  0  0  0  0
    0.9892   -1.9504    0.0000 C   0  0  0  0  0  0  0  0  0
    3.6175   -1.3803    0.0000 C   0  0  0  0  0  0  0  0  0
    3.6175   -0.5553    0.0000 C   0  0  0  0  0  0  0  0  0
    2.9031   -0.1428    0.0000 C   0  0  0  0  0  0  0  0  0
    2.1886   -0.5553    0.0000 C   0  0  0  0  0  0  0  0  0
  1  2  1  0  0  0  0
  2  3  4  0  0  0  0
  2 16  4  0  0  0  0
  3  4  1  0  0  0  0
  3 12  4  0  0  0  0
  4  5  1  0  0  0  0
  5  6  4  0  0  0  0
  5 23  4  0  0  0  0
  6  7  1  0  0  0  0
  6 20  4  0  0  0  0
  7  8  1  0  0  0  0
  8  9  1  0  0  0  0
  9 10  1  0  0  0  0
  9 19  1  0  0  0  0
 10 11  1  0  0  0  0
 11 12  1  0  0  0  0
 12 13  4  0  0  0  0
 13 14  4  0  0  0  0
 14 15  1  0  0  0  0
 14 16  4  0  0  0  0
 16 17  1  0  0  0  0
 17 18  1  0  0  0  0
 20 21  4  0  0  0  0
 21 22  4  0  0  0  0
 22 23  4  0  0  0  0
M  END
>  <Name_Molregno>
341802

>  <DOPAMINE D1>
7.53

>  <DOPAMINE D2>
7.64

>  <DOPAMINE D3>
6.38

>  <DOPAMINE D5>
7.23

$$$$
341811
  Marvin  02231216192D 0   1.00000     0.00000     0

 21 23  0  0  0  0  0  0  0  0999 V2000
    1.5417    0.0772    0.0000 Cl  0  0  0  0  0  0  0  0  0
    0.8272   -0.3353    0.0000 C   0  0  0  0  0  0  0  0  0
    0.8272   -1.1603    0.0000 C   0  0  0  0  0  0  0  0  0
    1.5417   -1.5728    0.0000 C   0  0  0  0  0  0  0  0  0
    2.2562   -1.1603    0.0000 C   0  0  0  0  0  0  0  0  0
    2.9706   -1.5728    0.0000 C   0  0  0  0  0  0  0  0  0
    2.9706   -2.3978    0.0000 C   0  0  0  0  0  0  0  0  0
    2.2562   -2.8103    0.0000 C   0  0  0  0  0  0  0  0  0
    1.5417   -2.3978    0.0000 N   0  0  0  0  0  0  0  0  0
    0.8272   -2.8103    0.0000 C   0  0  0  0  0  0  0  0  0
    0.1128   -2.3978    0.0000 C   0  0  0  0  0  0  0  0  0
    0.1128   -1.5728    0.0000 C   0  0  0  0  0  0  0  0  0
   -0.6017   -1.1603    0.0000 C   0  0  0  0  0  0  0  0  0
   -0.6017   -0.3353    0.0000 C   0  0  0  0  0  0  0  0  0
    0.1128    0.0772    0.0000 C   0  0  0  0  0  0  0  0  0
    0.1128    0.9022    0.0000 O   0  0  0  0  0  0  0  0  0
    1.0568   -1.7304    0.0000 C   0  0  0  0  0  0  0  0  0
    3.6851   -1.1603    0.0000 C   0  0  0  0  0  0  0  0  0
    3.6851   -0.3353    0.0000 C   0  0  0  0  0  0  0  0  0
    2.9706    0.0772    0.0000 C   0  0  0  0  0  0  0  0  0
    2.2562   -0.3353    0.0000 C   0  0  0  0  0  0  0  0  0
  1  2  1  0  0  0  0
  2  3  4  0  0  0  0
  2 15  4  0  0  0  0
  3  4  1  0  0  0  0
  3 12  4  0  0  0  0
  4  5  1  0  0  0  0
  5  6  4  0  0  0  0
  5 21  4  0  0  0  0
  6  7  1  0  0  0  0
  6 18  4  0  0  0  0
  7  8  1  0  0  0  0
  8  9  1  0  0  0  0
  9 10  1  0  0  0  0
  9 17  1  0  0  0  0
 10 11  1  0  0  0  0
 11 12  1  0  0  0  0
 12 13  4  0  0  0  0
 13 14  4  0  0  0  0
 14 15  4  0  0  0  0
 15 16  1  0  0  0  0
 18 19  4  0  0  0  0
 19 20  4  0  0  0  0
 20 21  4  0  0  0  0
M  END
>  <Name_Molregno>
341811

>  <DOPAMINE D1>
8.76

>  <DOPAMINE D2>
9.45

>  <DOPAMINE D3>
8.73

>  <DOPAMINE D5>
8.91

$$$$
341837
  Marvin  02231216192D 0   1.00000     0.00000     0

 22 24  0  0  0  0  0  0  0  0999 V2000
   -4.5699   -0.5483    0.0000 Cl  0  0  0  0  0  0  0  0  0
   -3.8554   -0.9608    0.0000 C   0  0  0  0  0  0  0  0  0
   -3.1409   -0.5483    0.0000 C   0  0  0  0  0  0  0  0  0
   -3.1409    0.2767    0.0000 C   0  0  0  0  0  0  0  0  0
   -2.4265    0.6892    0.0000 C   0  0  0  0  0  0  0  0  0
   -1.7120    0.2767    0.0000 N   0  0  0  0  0  0  0  0  0
   -0.9975    0.6892    0.0000 C   0  0  0  0  0  0  0  0  0
   -0.2831    0.2767    0.0000 C   0  0  0  0  0  0  0  0  0
   -0.2831   -0.5483    0.0000 C   0  0  0  0  0  0  0  0  0
   -0.9975   -0.9608    0.0000 C   0  0  0  0  0  0  0  0  0
   -1.7120   -0.5483    0.0000 C   0  0  0  0  0  0  0  0  0
   -2.4265   -0.9608    0.0000 C   0  0  0  0  0  0  0  0  0
   -2.4265   -1.7858    0.0000 C   0  0  0  0  0  0  0  0  0
   -3.1409   -2.1983    0.0000 C   0  0  0  0  0  0  0  0  0
   -3.1409   -3.0233    0.0000 Cl  0  0  0  0  0  0  0  0  0
   -3.8554   -1.7858    0.0000 C   0  0  0  0  0  0  0  0  0
   -4.5699   -2.1983    0.0000 O   0  0  0  0  0  0  0  0  0
   -0.9975   -1.7858    0.0000 C   0  0  0  0  0  0  0  0  0
   -0.2831   -2.1983    0.0000 C   0  0  0  0  0  0  0  0  0
    0.4314   -1.7858    0.0000 C   0  0  0  0  0  0  0  0  0
    0.4314   -0.9608    0.0000 C   0  0  0  0  0  0  0  0  0
   -2.1969   -0.3908    0.0000 C   0  0  0  0  0  0  0  0  0
  1  2  1  0  0  0  0
  2  3  4  0  0  0  0
  2 16  4  0  0  0  0
  3  4  1  0  0  0  0
  3 12  4  0  0  0  0
  4  5  1  0  0  0  0
  5  6  1  0  0  0  0
  6  7  1  0  0  0  0
  6 22  1  0  0  0  0
  7  8  1  0  0  0  0
  8  9  1  0  0  0  0
  9 10  4  0  0  0  0
  9 21  4  0  0  0  0
 10 11  1  0  0  0  0
 10 18  4  0  0  0  0
 11 12  1  0  0  0  0
 12 13  4  0  0  0  0
 13 14  4  0  0  0  0
 14 15  1  0  0  0  0
 14 16  4  0  0  0  0
 16 17  1  0  0  0  0
 18 19  4  0  0  0  0
 19 20  4  0  0  0  0
 20 21  4  0  0  0  0
M  END
>  <Name_Molregno>
341837

>  <DOPAMINE D1>
8.45

>  <DOPAMINE D2>
7.24

>  <DOPAMINE D5>
8.92

$$$$
349093
  Marvin  02231216192D 0   1.00000     0.00000     0

 37 41  0  0  0  0  0  0  0  0999 V2000
  -10.5423   -1.1396    0.0000 O   0  0  0  0  0  0  0  0  0
  -11.1256   -1.7229    0.0000 C   0  0  0  0  0  0  0  0  0
  -10.7558   -0.3427    0.0000 C   0  0  0  0  0  0  0  0  0
  -11.5527   -0.1292    0.0000 C   0  0  0  0  0  0  0  0  0
  -11.7662    0.6677    0.0000 C   0  0  0  0  0  0  0  0  0
  -11.1828    1.2511    0.0000 C   0  0  0  0  0  0  0  0  0
  -10.3859    1.0376    0.0000 C   0  0  0  0  0  0  0  0  0
  -10.1724    0.2407    0.0000 C   0  0  0  0  0  0  0  0  0
   -9.3755    0.0271    0.0000 N   0  0  0  0  0  0  0  0  0
   -8.7922    0.6105    0.0000 C   0  0  0  0  0  0  0  0  0
   -7.9953    0.3970    0.0000 C   0  0  0  0  0  0  0  0  0
   -7.7818   -0.3999    0.0000 N   0  0  0  0  0  0  0  0  0
   -8.3651   -0.9833    0.0000 C   0  0  0  0  0  0  0  0  0
   -9.1620   -0.7697    0.0000 C   0  0  0  0  0  0  0  0  0
   -6.9849   -0.6134    0.0000 C   0  0  0  0  0  0  0  0  0
   -6.4015   -0.0301    0.0000 C   0  0  0  0  0  0  0  0  0
   -5.6046   -0.2436    0.0000 C   0  0  0  0  0  0  0  0  0
   -5.0213    0.3398    0.0000 C   0  0  0  0  0  0  0  0  0
   -4.2244    0.1262    0.0000 N   0  0  0  0  0  0  0  0  0
   -3.6410    0.7096    0.0000 C   0  0  0  0  0  0  0  0  0
   -3.8545    1.5065    0.0000 O   0  0  0  0  0  0  0  0  0
   -2.8441    0.4961    0.0000 C   0  0  0  0  0  0  0  0  0
   -2.4316    1.2105    0.0000 C   0  0  0  0  0  0  0  0  0
   -1.7171    1.6230    0.0000 C   0  0  0  0  0  0  0  0  0
   -0.8921    1.6230    0.0000 C   0  0  0  0  0  0  0  0  0
   -0.1777    1.2105    0.0000 C   0  0  0  0  0  0  0  0  0
    0.2348    0.4961    0.0000 C   0  0  0  0  0  0  0  0  0
    0.2348   -0.3289    0.0000 C   0  0  0  0  0  0  0  0  0
   -0.1777   -1.0434    0.0000 C   0  0  0  0  0  0  0  0  0
   -0.8921   -1.4559    0.0000 C   0  0  0  0  0  0  0  0  0
   -1.7171   -1.4559    0.0000 C   0  0  0  0  0  0  0  0  0
   -2.4316   -1.0434    0.0000 C   0  0  0  0  0  0  0  0  0
   -2.8441   -0.3289    0.0000 C   0  0  0  0  0  0  0  0  0
   -2.2438   -0.2921    0.0000 C   0  0  0  0  0  0  0  0  0
   -2.2438    0.4592    0.0000 C   0  0  0  0  0  0  0  0  0
   -0.3655   -0.2921    0.0000 C   0  0  0  0  0  0  0  0  0
   -0.3655    0.4592    0.0000 C   0  0  0  0  0  0  0  0  0
  1  2  1  0  0  0  0
  1  3  1  0  0  0  0
  3  4  4  0  0  0  0
  3  8  4  0  0  0  0
  4  5  4  0  0  0  0
  5  6  4  0  0  0  0
  6  7  4  0  0  0  0
  7  8  4  0  0  0  0
  8  9  1  0  0  0  0
  9 10  1  0  0  0  0
  9 14  1  0  0  0  0
 10 11  1  0  0  0  0
 11 12  1  0  0  0  0
 12 13  1  0  0  0  0
 12 15  1  0  0  0  0
 13 14  1  0  0  0  0
 15 16  1  0  0  0  0
 16 17  1  0  0  0  0
 17 18  1  0  0  0  0
 18 19  1  0  0  0  0
 19 20  1  0  0  0  0
 20 21  2  0  0  0  0
 20 22  1  0  0  0  0
 22 23  4  0  0  0  0
 22 33  4  0  0  0  0
 23 24  1  0  0  0  0
 23 35  4  0  0  0  0
 24 25  1  0  0  0  0
 25 26  1  0  0  0  0
 26 27  4  0  0  0  0
 26 37  4  0  0  0  0
 27 28  4  0  0  0  0
 28 29  4  0  0  0  0
 29 30  1  0  0  0  0
 29 36  4  0  0  0  0
 30 31  1  0  0  0  0
 31 32  1  0  0  0  0
 32 33  4  0  0  0  0
 32 34  4  0  0  0  0
 34 35  4  0  0  0  0
 36 37  4  0  0  0  0
M  END
>  <Name_Molregno>
349093

>  <5-HT1A>
7.42

>  <DOPAMINE D1>
6.24

>  <DOPAMINE D2>
7.98

>  <DOPAMINE D3>
9.12

>  <DOPAMINE D4>
8.15

$$$$
349345
  Marvin  02231216192D 0   1.00000     0.00000     0

 37 41  0  0  0  0  0  0  0  0999 V2000
    1.3466    3.6338    0.0000 Cl  0  0  0  0  0  0  0  0  0
    0.7633    3.0505    0.0000 C   0  0  0  0  0  0  0  0  0
    0.9768    2.2536    0.0000 C   0  0  0  0  0  0  0  0  0
    1.7737    2.0401    0.0000 N   0  0  0  0  0  0  0  0  0
    2.3570    2.6234    0.0000 C   0  0  0  0  0  0  0  0  0
    3.1539    2.4099    0.0000 C   0  0  0  0  0  0  0  0  0
    3.3675    1.6130    0.0000 N   0  0  0  0  0  0  0  0  0
    2.7841    1.0296    0.0000 C   0  0  0  0  0  0  0  0  0
    1.9872    1.2432    0.0000 C   0  0  0  0  0  0  0  0  0
    4.1643    1.3995    0.0000 C   0  0  0  0  0  0  0  0  0
    4.3779    0.6026    0.0000 C   0  0  0  0  0  0  0  0  0
    5.1748    0.3891    0.0000 C   0  0  0  0  0  0  0  0  0
    5.3883   -0.4078    0.0000 C   0  0  0  0  0  0  0  0  0
    6.1852   -0.6213    0.0000 N   0  0  0  0  0  0  0  0  0
    6.3987   -1.4182    0.0000 C   0  0  0  0  0  0  0  0  0
    5.8153   -2.0016    0.0000 O   0  0  0  0  0  0  0  0  0
    7.1956   -1.6318    0.0000 C   0  0  0  0  0  0  0  0  0
    7.6081   -0.9173    0.0000 C   0  0  0  0  0  0  0  0  0
    8.3226   -0.5048    0.0000 C   0  0  0  0  0  0  0  0  0
    9.1476   -0.5048    0.0000 C   0  0  0  0  0  0  0  0  0
    9.8620   -0.9173    0.0000 C   0  0  0  0  0  0  0  0  0
   10.2745   -1.6318    0.0000 C   0  0  0  0  0  0  0  0  0
   10.2745   -2.4568    0.0000 C   0  0  0  0  0  0  0  0  0
    9.8620   -3.1712    0.0000 C   0  0  0  0  0  0  0  0  0
    9.1476   -3.5837    0.0000 C   0  0  0  0  0  0  0  0  0
    8.3226   -3.5837    0.0000 C   0  0  0  0  0  0  0  0  0
    7.6081   -3.1712    0.0000 C   0  0  0  0  0  0  0  0  0
    7.1956   -2.4568    0.0000 C   0  0  0  0  0  0  0  0  0
    7.7959   -2.4199    0.0000 C   0  0  0  0  0  0  0  0  0
    7.7959   -1.6686    0.0000 C   0  0  0  0  0  0  0  0  0
    9.6742   -2.4199    0.0000 C   0  0  0  0  0  0  0  0  0
    9.6742   -1.6686    0.0000 C   0  0  0  0  0  0  0  0  0
    0.3934    1.6702    0.0000 C   0  0  0  0  0  0  0  0  0
   -0.4035    1.8838    0.0000 C   0  0  0  0  0  0  0  0  0
   -0.6170    2.6806    0.0000 C   0  0  0  0  0  0  0  0  0
   -0.0336    3.2640    0.0000 C   0  0  0  0  0  0  0  0  0
   -0.2472    4.0609    0.0000 Cl  0  0  0  0  0  0  0  0  0
  1  2  1  0  0  0  0
  2  3  4  0  0  0  0
  2 36  4  0  0  0  0
  3  4  1  0  0  0  0
  3 33  4  0  0  0  0
  4  5  1  0  0  0  0
  4  9  1  0  0  0  0
  5  6  1  0  0  0  0
  6  7  1  0  0  0  0
  7  8  1  0  0  0  0
  7 10  1  0  0  0  0
  8  9  1  0  0  0  0
 10 11  1  0  0  0  0
 11 12  1  0  0  0  0
 12 13  1  0  0  0  0
 13 14  1  0  0  0  0
 14 15  1  0  0  0  0
 15 16  2  0  0  0  0
 15 17  1  0  0  0  0
 17 18  4  0  0  0  0
 17 28  4  0  0  0  0
 18 19  1  0  0  0  0
 18 30  4  0  0  0  0
 19 20  1  0  0  0  0
 20 21  1  0  0  0  0
 21 22  4  0  0  0  0
 21 32  4  0  0  0  0
 22 23  4  0  0  0  0
 23 24  4  0  0  0  0
 24 25  1  0  0  0  0
 24 31  4  0  0  0  0
 25 26  1  0  0  0  0
 26 27  1  0  0  0  0
 27 28  4  0  0  0  0
 27 29  4  0  0  0  0
 29 30  4  0  0  0  0
 31 32  4  0  0  0  0
 33 34  4  0  0  0  0
 34 35  4  0  0  0  0
 35 36  4  0  0  0  0
 36 37  1  0  0  0  0
M  END
>  <Name_Molregno>
349345

>  <5-HT1A>
6.18

>  <DOPAMINE D1>
5.55

>  <DOPAMINE D2>
6.75

>  <DOPAMINE D3>
8.44

>  <DOPAMINE D4>
6.92

$$$$
349376
  Marvin  02231216192D 0   1.00000     0.00000     0

 41 45  0  0  0  0  0  0  0  0999 V2000
   -2.4600    1.8818    0.0000 O   0  0  0  0  0  0  0  0  0
   -2.7149    1.0971    0.0000 C   0  0  0  0  0  0  0  0  0
   -3.5399    1.0971    0.0000 C   0  0  0  0  0  0  0  0  0
   -3.7949    1.8818    0.0000 C   0  0  0  0  0  0  0  0  0
   -3.1274    2.3667    0.0000 C   0  0  0  0  0  0  0  0  0
   -3.1274    3.1917    0.0000 O   0  0  0  0  0  0  0  0  0
   -3.8419    3.6042    0.0000 C   0  0  0  0  0  0  0  0  0
   -4.5564    3.1917    0.0000 C   0  0  0  0  0  0  0  0  0
   -5.2709    3.6042    0.0000 C   0  0  0  0  0  0  0  0  0
   -5.2709    4.4292    0.0000 C   0  0  0  0  0  0  0  0  0
   -4.5564    4.8417    0.0000 C   0  0  0  0  0  0  0  0  0
   -3.8419    4.4292    0.0000 C   0  0  0  0  0  0  0  0  0
   -3.1274    4.8417    0.0000 C   0  0  0  0  0  0  0  0  0
   -6.0555    4.6841    0.0000 C   0  0  0  0  0  0  0  0  0
   -6.5404    4.0167    0.0000 C   0  0  0  0  0  0  0  0  0
   -6.0555    3.3492    0.0000 C   0  0  0  0  0  0  0  0  0
   -5.8924    2.5405    0.0000 C   0  0  0  0  0  0  0  0  0
   -6.6628    2.7908    0.0000 C   0  0  0  0  0  0  0  0  0
   -2.2300    0.4297    0.0000 C   0  0  0  0  0  0  0  0  0
   -2.5656   -0.3240    0.0000 O   0  0  0  0  0  0  0  0  0
   -1.4095    0.5159    0.0000 N   0  0  0  0  0  0  0  0  0
   -0.9246   -0.1515    0.0000 C   0  0  0  0  0  0  0  0  0
   -0.1041   -0.0653    0.0000 C   0  0  0  0  0  0  0  0  0
    0.2314    0.6884    0.0000 O   0  0  0  0  0  0  0  0  0
    1.0519    0.7746    0.0000 C   0  0  0  0  0  0  0  0  0
    0.3808   -0.7327    0.0000 N   0  0  0  0  0  0  0  0  0
    0.0452   -1.4864    0.0000 C   0  0  0  0  0  0  0  0  0
   -0.7753   -1.5726    0.0000 N   0  0  0  0  0  0  0  0  0
   -1.2602   -0.9052    0.0000 C   0  0  0  0  0  0  0  0  0
   -2.0807   -0.9914    0.0000 O   0  0  0  0  0  0  0  0  0
   -2.4162   -1.7451    0.0000 C   0  0  0  0  0  0  0  0  0
    0.5302   -2.1538    0.0000 N   0  0  0  0  0  0  0  0  0
    1.3506   -2.0676    0.0000 C   0  0  0  0  0  0  0  0  0
    1.8356   -2.7350    0.0000 C   0  0  0  0  0  0  0  0  0
    2.6560   -2.6488    0.0000 C   0  0  0  0  0  0  0  0  0
    3.1410   -3.3162    0.0000 N   0  0  0  0  0  0  0  0  0
    3.9614   -3.2300    0.0000 C   0  0  0  0  0  0  0  0  0
    4.4464   -3.8974    0.0000 C   0  0  0  0  0  0  0  0  0
    4.1108   -4.6511    0.0000 O   0  0  0  0  0  0  0  0  0
    3.2903   -4.7373    0.0000 C   0  0  0  0  0  0  0  0  0
    2.8054   -4.0699    0.0000 C   0  0  0  0  0  0  0  0  0
  1  2  4  0  0  0  0
  1  5  4  0  0  0  0
  2  3  4  0  0  0  0
  2 19  1  0  0  0  0
  3  4  4  0  0  0  0
  4  5  4  0  0  0  0
  5  6  1  0  0  0  0
  6  7  1  0  0  0  0
  7  8  4  0  0  0  0
  7 12  4  0  0  0  0
  8  9  4  0  0  0  0
  9 10  4  0  0  0  0
  9 16  1  0  0  0  0
 10 11  4  0  0  0  0
 10 14  1  0  0  0  0
 11 12  4  0  0  0  0
 12 13  1  0  0  0  0
 14 15  1  0  0  0  0
 15 16  1  0  0  0  0
 16 17  1  0  0  0  0
 16 18  1  0  0  0  0
 19 20  2  0  0  0  0
 19 21  1  0  0  0  0
 21 22  1  0  0  0  0
 22 23  4  0  0  0  0
 22 29  4  0  0  0  0
 23 24  1  0  0  0  0
 23 26  4  0  0  0  0
 24 25  1  0  0  0  0
 26 27  4  0  0  0  0
 27 28  4  0  0  0  0
 27 32  1  0  0  0  0
 28 29  4  0  0  0  0
 29 30  1  0  0  0  0
 30 31  1  0  0  0  0
 32 33  1  0  0  0  0
 33 34  1  0  0  0  0
 34 35  1  0  0  0  0
 35 36  1  0  0  0  0
 36 37  1  0  0  0  0
 36 41  1  0  0  0  0
 37 38  1  0  0  0  0
 38 39  1  0  0  0  0
 39 40  1  0  0  0  0
 40 41  1  0  0  0  0
M  END
>  <Name_Molregno>
349376

>  <5-HT2A>
6.23

>  <5-HT2C>
6.02

>  <5-HT7>
5.76

>  <DOPAMINE D1>
5.79

>  <DOPAMINE D3>
5.93

>  <DOPAMINE D4>
5.6

>  <Dopamine transporter>
5.74

>  <HISTAMINE H2>
5.91

>  <Muscarinic acetylcholine receptor M1>
5.39

>  <Muscarinic acetylcholine receptor M4>
5.43

>  <Norepinephrine transporter>
5.29

>  <Serotonin transporter>
5.84

$$$$
349377
  Marvin  02231216192D 0   1.00000     0.00000     0

 38 42  0  0  0  0  0  0  0  0999 V2000
   -0.1995   -1.5097    0.0000 Cl  0  0  0  0  0  0  0  0  0
    0.3839   -0.9263    0.0000 C   0  0  0  0  0  0  0  0  0
    0.1704   -0.1294    0.0000 C   0  0  0  0  0  0  0  0  0
    0.7537    0.4539    0.0000 C   0  0  0  0  0  0  0  0  0
    1.5506    0.2404    0.0000 C   0  0  0  0  0  0  0  0  0
    1.7642   -0.5565    0.0000 C   0  0  0  0  0  0  0  0  0
    2.5610   -0.7700    0.0000 N   0  0  0  0  0  0  0  0  0
    3.1444   -0.1867    0.0000 C   0  0  0  0  0  0  0  0  0
    3.9413   -0.4002    0.0000 C   0  0  0  0  0  0  0  0  0
    4.1548   -1.1971    0.0000 N   0  0  0  0  0  0  0  0  0
    3.5715   -1.7804    0.0000 C   0  0  0  0  0  0  0  0  0
    2.7746   -1.5669    0.0000 C   0  0  0  0  0  0  0  0  0
    4.9517   -1.4106    0.0000 C   0  0  0  0  0  0  0  0  0
    5.5351   -0.8272    0.0000 C   0  0  0  0  0  0  0  0  0
    6.3320   -1.0408    0.0000 C   0  0  0  0  0  0  0  0  0
    6.9153   -0.4574    0.0000 C   0  0  0  0  0  0  0  0  0
    7.7122   -0.6709    0.0000 N   0  0  0  0  0  0  0  0  0
    8.2956   -0.0876    0.0000 C   0  0  0  0  0  0  0  0  0
    8.0821    0.7093    0.0000 O   0  0  0  0  0  0  0  0  0
    9.0925   -0.3011    0.0000 C   0  0  0  0  0  0  0  0  0
    9.5050    0.4134    0.0000 C   0  0  0  0  0  0  0  0  0
   10.2194    0.8259    0.0000 C   0  0  0  0  0  0  0  0  0
   11.0444    0.8259    0.0000 C   0  0  0  0  0  0  0  0  0
   11.7589    0.4134    0.0000 C   0  0  0  0  0  0  0  0  0
   12.1714   -0.3011    0.0000 C   0  0  0  0  0  0  0  0  0
   12.1714   -1.1261    0.0000 C   0  0  0  0  0  0  0  0  0
   11.7589   -1.8406    0.0000 C   0  0  0  0  0  0  0  0  0
   11.0444   -2.2531    0.0000 C   0  0  0  0  0  0  0  0  0
   10.2194   -2.2531    0.0000 C   0  0  0  0  0  0  0  0  0
    9.5050   -1.8406    0.0000 C   0  0  0  0  0  0  0  0  0
    9.0925   -1.1261    0.0000 C   0  0  0  0  0  0  0  0  0
    9.6928   -1.0892    0.0000 C   0  0  0  0  0  0  0  0  0
    9.6928   -0.3379    0.0000 C   0  0  0  0  0  0  0  0  0
   11.5711   -1.0892    0.0000 C   0  0  0  0  0  0  0  0  0
   11.5711   -0.3379    0.0000 C   0  0  0  0  0  0  0  0  0
    1.1808   -1.1399    0.0000 C   0  0  0  0  0  0  0  0  0
    1.3943   -1.9367    0.0000 O   0  0  0  0  0  0  0  0  0
    2.1912   -2.1503    0.0000 C   0  0  0  0  0  0  0  0  0
  1  2  1  0  0  0  0
  2  3  4  0  0  0  0
  2 36  4  0  0  0  0
  3  4  4  0  0  0  0
  4  5  4  0  0  0  0
  5  6  4  0  0  0  0
  6  7  1  0  0  0  0
  6 36  4  0  0  0  0
  7  8  1  0  0  0  0
  7 12  1  0  0  0  0
  8  9  1  0  0  0  0
  9 10  1  0  0  0  0
 10 11  1  0  0  0  0
 10 13  1  0  0  0  0
 11 12  1  0  0  0  0
 13 14  1  0  0  0  0
 14 15  1  0  0  0  0
 15 16  1  0  0  0  0
 16 17  1  0  0  0  0
 17 18  1  0  0  0  0
 18 19  2  0  0  0  0
 18 20  1  0  0  0  0
 20 21  4  0  0  0  0
 20 31  4  0  0  0  0
 21 22  1  0  0  0  0
 21 33  4  0  0  0  0
 22 23  1  0  0  0  0
 23 24  1  0  0  0  0
 24 25  4  0  0  0  0
 24 35  4  0  0  0  0
 25 26  4  0  0  0  0
 26 27  4  0  0  0  0
 27 28  1  0  0  0  0
 27 34  4  0  0  0  0
 28 29  1  0  0  0  0
 29 30  1  0  0  0  0
 30 31  4  0  0  0  0
 30 32  4  0  0  0  0
 32 33  4  0  0  0  0
 34 35  4  0  0  0  0
 36 37  1  0  0  0  0
 37 38  1  0  0  0  0
M  END
>  <Name_Molregno>
349377

>  <5-HT1A>
7.66

>  <DOPAMINE D1>
6.01

>  <DOPAMINE D2>
7.47

>  <DOPAMINE D3>
9.34

>  <DOPAMINE D4>
7.48

$$$$
349778
  Marvin  02231216192D 0   1.00000     0.00000     0

 37 41  0  0  0  0  0  0  0  0999 V2000
    1.3466    3.6338    0.0000 F   0  0  0  0  0  0  0  0  0
    0.7633    3.0505    0.0000 C   0  0  0  0  0  0  0  0  0
    0.9768    2.2536    0.0000 C   0  0  0  0  0  0  0  0  0
    1.7737    2.0401    0.0000 N   0  0  0  0  0  0  0  0  0
    2.3570    2.6234    0.0000 C   0  0  0  0  0  0  0  0  0
    3.1539    2.4099    0.0000 C   0  0  0  0  0  0  0  0  0
    3.3675    1.6130    0.0000 N   0  0  0  0  0  0  0  0  0
    2.7841    1.0296    0.0000 C   0  0  0  0  0  0  0  0  0
    1.9872    1.2432    0.0000 C   0  0  0  0  0  0  0  0  0
    4.1643    1.3995    0.0000 C   0  0  0  0  0  0  0  0  0
    4.3779    0.6026    0.0000 C   0  0  0  0  0  0  0  0  0
    5.1748    0.3891    0.0000 C   0  0  0  0  0  0  0  0  0
    5.3883   -0.4078    0.0000 C   0  0  0  0  0  0  0  0  0
    6.1852   -0.6213    0.0000 N   0  0  0  0  0  0  0  0  0
    6.3987   -1.4182    0.0000 C   0  0  0  0  0  0  0  0  0
    5.8153   -2.0016    0.0000 O   0  0  0  0  0  0  0  0  0
    7.1956   -1.6318    0.0000 C   0  0  0  0  0  0  0  0  0
    7.6081   -0.9173    0.0000 C   0  0  0  0  0  0  0  0  0
    8.3226   -0.5048    0.0000 C   0  0  0  0  0  0  0  0  0
    9.1476   -0.5048    0.0000 C   0  0  0  0  0  0  0  0  0
    9.8620   -0.9173    0.0000 C   0  0  0  0  0  0  0  0  0
   10.2745   -1.6318    0.0000 C   0  0  0  0  0  0  0  0  0
   10.2745   -2.4568    0.0000 C   0  0  0  0  0  0  0  0  0
    9.8620   -3.1712    0.0000 C   0  0  0  0  0  0  0  0  0
    9.1476   -3.5837    0.0000 C   0  0  0  0  0  0  0  0  0
    8.3226   -3.5837    0.0000 C   0  0  0  0  0  0  0  0  0
    7.6081   -3.1712    0.0000 C   0  0  0  0  0  0  0  0  0
    7.1956   -2.4568    0.0000 C   0  0  0  0  0  0  0  0  0
    7.7959   -2.4199    0.0000 C   0  0  0  0  0  0  0  0  0
    7.7959   -1.6686    0.0000 C   0  0  0  0  0  0  0  0  0
    9.6742   -2.4199    0.0000 C   0  0  0  0  0  0  0  0  0
    9.6742   -1.6686    0.0000 C   0  0  0  0  0  0  0  0  0
    0.3934    1.6702    0.0000 C   0  0  0  0  0  0  0  0  0
   -0.4035    1.8838    0.0000 C   0  0  0  0  0  0  0  0  0
   -0.6170    2.6806    0.0000 C   0  0  0  0  0  0  0  0  0
   -0.0336    3.2640    0.0000 C   0  0  0  0  0  0  0  0  0
   -0.2472    4.0609    0.0000 F   0  0  0  0  0  0  0  0  0
  1  2  1  0  0  0  0
  2  3  4  0  0  0  0
  2 36  4  0  0  0  0
  3  4  1  0  0  0  0
  3 33  4  0  0  0  0
  4  5  1  0  0  0  0
  4  9  1  0  0  0  0
  5  6  1  0  0  0  0
  6  7  1  0  0  0  0
  7  8  1  0  0  0  0
  7 10  1  0  0  0  0
  8  9  1  0  0  0  0
 10 11  1  0  0  0  0
 11 12  1  0  0  0  0
 12 13  1  0  0  0  0
 13 14  1  0  0  0  0
 14 15  1  0  0  0  0
 15 16  2  0  0  0  0
 15 17  1  0  0  0  0
 17 18  4  0  0  0  0
 17 28  4  0  0  0  0
 18 19  1  0  0  0  0
 18 30  4  0  0  0  0
 19 20  1  0  0  0  0
 20 21  1  0  0  0  0
 21 22  4  0  0  0  0
 21 32  4  0  0  0  0
 22 23  4  0  0  0  0
 23 24  4  0  0  0  0
 24 25  1  0  0  0  0
 24 31  4  0  0  0  0
 25 26  1  0  0  0  0
 26 27  1  0  0  0  0
 27 28  4  0  0  0  0
 27 29  4  0  0  0  0
 29 30  4  0  0  0  0
 31 32  4  0  0  0  0
 33 34  4  0  0  0  0
 34 35  4  0  0  0  0
 35 36  4  0  0  0  0
 36 37  1  0  0  0  0
M  END
>  <Name_Molregno>
349778

>  <5-HT1A>
6.54

>  <DOPAMINE D1>
6.24

>  <DOPAMINE D2>
7.19

>  <DOPAMINE D3>
8.72

>  <DOPAMINE D4>
7.74

$$$$
349977
  Marvin  02231216192D 0   1.00000     0.00000     0

 40 45  0  0  0  0  0  0  0  0999 V2000
    4.4297    0.9973    0.0000 O   0  0  0  0  0  0  0  0  0
    5.2143    0.7423    0.0000 C   0  0  0  0  0  0  0  0  0
    5.6268    1.4568    0.0000 C   0  0  0  0  0  0  0  0  0
    6.3413    1.8693    0.0000 C   0  0  0  0  0  0  0  0  0
    7.1663    1.8693    0.0000 C   0  0  0  0  0  0  0  0  0
    7.8808    1.4568    0.0000 C   0  0  0  0  0  0  0  0  0
    8.2933    0.7423    0.0000 C   0  0  0  0  0  0  0  0  0
    8.2933   -0.0827    0.0000 C   0  0  0  0  0  0  0  0  0
    7.8808   -0.7971    0.0000 C   0  0  0  0  0  0  0  0  0
    7.1663   -1.2096    0.0000 C   0  0  0  0  0  0  0  0  0
    6.3413   -1.2096    0.0000 C   0  0  0  0  0  0  0  0  0
    5.6268   -0.7971    0.0000 C   0  0  0  0  0  0  0  0  0
    5.2143   -0.0827    0.0000 C   0  0  0  0  0  0  0  0  0
    4.4297   -0.3376    0.0000 C   0  0  0  0  0  0  0  0  0
    3.9448    0.3298    0.0000 C   0  0  0  0  0  0  0  0  0
    3.1198    0.3298    0.0000 C   0  0  0  0  0  0  0  0  0
    2.7073    1.0443    0.0000 O   0  0  0  0  0  0  0  0  0
    2.7073   -0.3846    0.0000 N   0  0  0  0  0  0  0  0  0
    1.8823   -0.3846    0.0000 C   0  0  0  0  0  0  0  0  0
    1.4698   -1.0991    0.0000 C   0  0  0  0  0  0  0  0  0
    0.6448   -1.0991    0.0000 C   0  0  0  0  0  0  0  0  0
    0.2323   -1.8136    0.0000 C   0  0  0  0  0  0  0  0  0
   -0.5927   -1.8136    0.0000 N   0  0  0  0  0  0  0  0  0
   -1.0052   -2.5280    0.0000 C   0  0  0  0  0  0  0  0  0
   -1.8302   -2.5280    0.0000 C   0  0  0  0  0  0  0  0  0
   -2.2427   -1.8136    0.0000 N   0  0  0  0  0  0  0  0  0
   -1.8302   -1.0991    0.0000 C   0  0  0  0  0  0  0  0  0
   -1.0052   -1.0991    0.0000 C   0  0  0  0  0  0  0  0  0
   -3.0677   -1.8136    0.0000 C   0  0  0  0  0  0  0  0  0
   -3.4802   -2.5280    0.0000 C   0  0  0  0  0  0  0  0  0
   -4.3052   -2.5280    0.0000 C   0  0  0  0  0  0  0  0  0
   -4.7177   -1.8136    0.0000 C   0  0  0  0  0  0  0  0  0
   -4.3052   -1.0991    0.0000 C   0  0  0  0  0  0  0  0  0
   -3.4802   -1.0991    0.0000 C   0  0  0  0  0  0  0  0  0
   -3.0677   -0.3846    0.0000 O   0  0  0  0  0  0  0  0  0
   -3.4802    0.3298    0.0000 C   0  0  0  0  0  0  0  0  0
    5.8147   -0.0458    0.0000 C   0  0  0  0  0  0  0  0  0
    5.8147    0.7055    0.0000 C   0  0  0  0  0  0  0  0  0
    7.6930   -0.0458    0.0000 C   0  0  0  0  0  0  0  0  0
    7.6930    0.7055    0.0000 C   0  0  0  0  0  0  0  0  0
  1  2  4  0  0  0  0
  1 15  4  0  0  0  0
  2  3  4  0  0  0  0
  2 13  4  0  0  0  0
  3  4  1  0  0  0  0
  3 38  4  0  0  0  0
  4  5  1  0  0  0  0
  5  6  1  0  0  0  0
  6  7  4  0  0  0  0
  6 40  4  0  0  0  0
  7  8  4  0  0  0  0
  8  9  4  0  0  0  0
  9 10  1  0  0  0  0
  9 39  4  0  0  0  0
 10 11  1  0  0  0  0
 11 12  1  0  0  0  0
 12 13  4  0  0  0  0
 12 37  4  0  0  0  0
 13 14  4  0  0  0  0
 14 15  4  0  0  0  0
 15 16  1  0  0  0  0
 16 17  2  0  0  0  0
 16 18  1  0  0  0  0
 18 19  1  0  0  0  0
 19 20  1  0  0  0  0
 20 21  1  0  0  0  0
 21 22  1  0  0  0  0
 22 23  1  0  0  0  0
 23 24  1  0  0  0  0
 23 28  1  0  0  0  0
 24 25  1  0  0  0  0
 25 26  1  0  0  0  0
 26 27  1  0  0  0  0
 26 29  1  0  0  0  0
 27 28  1  0  0  0  0
 29 30  4  0  0  0  0
 29 34  4  0  0  0  0
 30 31  4  0  0  0  0
 31 32  4  0  0  0  0
 32 33  4  0  0  0  0
 33 34  4  0  0  0  0
 34 35  1  0  0  0  0
 35 36  1  0  0  0  0
 37 38  4  0  0  0  0
 39 40  4  0  0  0  0
M  END
>  <Name_Molregno>
349977

>  <5-HT1A>
6.72

>  <DOPAMINE D1>
6.11

>  <DOPAMINE D2>
6.92

>  <DOPAMINE D3>
7.8

>  <DOPAMINE D4>
6.85

$$$$
356687
  Marvin  02231216192D 0   1.00000     0.00000     0

 41 46  0  0  0  0  0  0  0  0999 V2000
   -4.8448   -1.8896    0.0000 Cl  0  0  0  0  0  0  0  0  0
   -4.0564   -2.1327    0.0000 C   0  0  0  0  0  0  0  0  0
   -3.4517   -1.5716    0.0000 C   0  0  0  0  0  0  0  0  0
   -2.6633   -1.8148    0.0000 C   0  0  0  0  0  0  0  0  0
   -2.1489   -1.1698    0.0000 N   0  0  0  0  0  0  0  0  0
   -1.3239   -1.1698    0.0000 C   0  0  0  0  0  0  0  0  0
   -0.9660   -0.4265    0.0000 N   0  0  0  0  0  0  0  0  0
   -1.4307    0.2552    0.0000 C   0  0  0  0  0  0  0  0  0
   -1.0728    0.9985    0.0000 C   0  0  0  0  0  0  0  0  0
   -0.2501    1.0601    0.0000 N   0  0  0  0  0  0  0  0  0
    0.2147    0.3785    0.0000 C   0  0  0  0  0  0  0  0  0
   -0.1433   -0.3648    0.0000 C   0  0  0  0  0  0  0  0  0
    0.1079    1.8034    0.0000 C   0  0  0  0  0  0  0  0  0
   -0.8096   -1.8148    0.0000 C   0  0  0  0  0  0  0  0  0
   -0.9931   -2.6191    0.0000 C   0  0  0  0  0  0  0  0  0
   -1.7364   -2.9770    0.0000 N   0  0  0  0  0  0  0  0  0
   -1.7364   -3.8020    0.0000 N   0  0  0  0  0  0  0  0  0
   -2.4509   -4.2145    0.0000 C   0  0  0  0  0  0  0  0  0
   -3.1654   -3.8020    0.0000 O   0  0  0  0  0  0  0  0  0
   -2.4509   -5.0395    0.0000 C   0  0  0  0  0  0  0  0  0
   -1.7835   -5.5245    0.0000 C   0  0  0  0  0  0  0  0  0
   -2.0384   -6.3091    0.0000 N   0  0  0  0  0  0  0  0  0
   -2.8634   -6.3091    0.0000 N   0  0  0  0  0  0  0  0  0
   -3.1183   -5.5245    0.0000 C   0  0  0  0  0  0  0  0  0
   -3.9030   -5.2695    0.0000 C   0  0  0  0  0  0  0  0  0
   -4.6876   -5.0146    0.0000 F   0  0  0  0  0  0  0  0  0
   -4.1579   -6.0541    0.0000 F   0  0  0  0  0  0  0  0  0
   -3.6480   -4.4849    0.0000 F   0  0  0  0  0  0  0  0  0
   -3.3483   -6.9765    0.0000 C   0  0  0  0  0  0  0  0  0
   -3.0128   -7.7302    0.0000 C   0  0  0  0  0  0  0  0  0
   -3.4977   -8.3976    0.0000 C   0  0  0  0  0  0  0  0  0
   -4.3182   -8.3114    0.0000 C   0  0  0  0  0  0  0  0  0
   -4.6537   -7.5577    0.0000 C   0  0  0  0  0  0  0  0  0
   -4.1688   -6.8903    0.0000 C   0  0  0  0  0  0  0  0  0
   -2.4797   -2.6191    0.0000 C   0  0  0  0  0  0  0  0  0
   -3.0845   -3.1802    0.0000 C   0  0  0  0  0  0  0  0  0
   -3.8729   -2.9371    0.0000 C   0  0  0  0  0  0  0  0  0
   -0.3884   -3.1802    0.0000 C   0  0  0  0  0  0  0  0  0
    0.4000   -2.9371    0.0000 C   0  0  0  0  0  0  0  0  0
    0.5836   -2.1327    0.0000 C   0  0  0  0  0  0  0  0  0
   -0.0212   -1.5716    0.0000 C   0  0  0  0  0  0  0  0  0
  1  2  1  0  0  0  0
  2  3  4  0  0  0  0
  2 37  4  0  0  0  0
  3  4  4  0  0  0  0
  4  5  1  0  0  0  0
  4 35  4  0  0  0  0
  5  6  2  0  0  0  0
  6  7  1  0  0  0  0
  6 14  1  0  0  0  0
  7  8  1  0  0  0  0
  7 12  1  0  0  0  0
  8  9  1  0  0  0  0
  9 10  1  0  0  0  0
 10 11  1  0  0  0  0
 10 13  1  0  0  0  0
 11 12  1  0  0  0  0
 14 15  4  0  0  0  0
 14 41  4  0  0  0  0
 15 16  1  0  0  0  0
 15 38  4  0  0  0  0
 16 17  1  0  0  0  0
 16 35  1  0  0  0  0
 17 18  1  0  0  0  0
 18 19  2  0  0  0  0
 18 20  1  0  0  0  0
 20 21  4  0  0  0  0
 20 24  4  0  0  0  0
 21 22  4  0  0  0  0
 22 23  4  0  0  0  0
 23 24  4  0  0  0  0
 23 29  1  0  0  0  0
 24 25  1  0  0  0  0
 25 26  1  0  0  0  0
 25 27  1  0  0  0  0
 25 28  1  0  0  0  0
 29 30  4  0  0  0  0
 29 34  4  0  0  0  0
 30 31  4  0  0  0  0
 31 32  4  0  0  0  0
 32 33  4  0  0  0  0
 33 34  4  0  0  0  0
 35 36  4  0  0  0  0
 36 37  4  0  0  0  0
 38 39  4  0  0  0  0
 39 40  4  0  0  0  0
 40 41  4  0  0  0  0
M  END
>  <Name_Molregno>
356687

>  <DOPAMINE D1>
7.52

>  <DOPAMINE D2>
5.68

$$$$
356694
  Marvin  02231216192D 0   1.00000     0.00000     0

 34 38  0  0  0  0  0  0  0  0999 V2000
   -4.0203   -2.6143    0.0000 Cl  0  0  0  0  0  0  0  0  0
   -3.2320   -2.8575    0.0000 C   0  0  0  0  0  0  0  0  0
   -2.6272   -2.2963    0.0000 C   0  0  0  0  0  0  0  0  0
   -1.8389   -2.5395    0.0000 C   0  0  0  0  0  0  0  0  0
   -1.3245   -1.8945    0.0000 N   0  0  0  0  0  0  0  0  0
   -0.4995   -1.8945    0.0000 C   0  0  0  0  0  0  0  0  0
   -0.1415   -1.1512    0.0000 N   0  0  0  0  0  0  0  0  0
   -0.6063   -0.4695    0.0000 C   0  0  0  0  0  0  0  0  0
   -0.2483    0.2738    0.0000 C   0  0  0  0  0  0  0  0  0
    0.5744    0.3354    0.0000 N   0  0  0  0  0  0  0  0  0
    1.0391   -0.3462    0.0000 C   0  0  0  0  0  0  0  0  0
    0.6812   -1.0895    0.0000 C   0  0  0  0  0  0  0  0  0
    0.9323    1.0787    0.0000 C   0  0  0  0  0  0  0  0  0
    0.0149   -2.5395    0.0000 C   0  0  0  0  0  0  0  0  0
   -0.1687   -3.3438    0.0000 C   0  0  0  0  0  0  0  0  0
   -0.9120   -3.7018    0.0000 N   0  0  0  0  0  0  0  0  0
   -0.9120   -4.5268    0.0000 N   0  0  0  0  0  0  0  0  0
   -0.1975   -4.9393    0.0000 C   0  0  0  0  0  0  0  0  0
    0.5170   -4.5268    0.0000 O   0  0  0  0  0  0  0  0  0
   -0.1975   -5.7643    0.0000 C   0  0  0  0  0  0  0  0  0
    0.5170   -6.1768    0.0000 C   0  0  0  0  0  0  0  0  0
    0.5170   -7.0018    0.0000 C   0  0  0  0  0  0  0  0  0
   -0.1975   -7.4143    0.0000 C   0  0  0  0  0  0  0  0  0
   -0.1975   -8.2393    0.0000 O   0  0  0  0  0  0  0  0  0
    0.5170   -8.6518    0.0000 C   0  0  0  0  0  0  0  0  0
   -0.9120   -7.0018    0.0000 C   0  0  0  0  0  0  0  0  0
   -0.9120   -6.1768    0.0000 C   0  0  0  0  0  0  0  0  0
   -1.6553   -3.3438    0.0000 C   0  0  0  0  0  0  0  0  0
   -2.2601   -3.9050    0.0000 C   0  0  0  0  0  0  0  0  0
   -3.0484   -3.6618    0.0000 C   0  0  0  0  0  0  0  0  0
    0.4361   -3.9050    0.0000 C   0  0  0  0  0  0  0  0  0
    1.2244   -3.6618    0.0000 C   0  0  0  0  0  0  0  0  0
    1.4080   -2.8575    0.0000 C   0  0  0  0  0  0  0  0  0
    0.8032   -2.2963    0.0000 C   0  0  0  0  0  0  0  0  0
  1  2  1  0  0  0  0
  2  3  4  0  0  0  0
  2 30  4  0  0  0  0
  3  4  4  0  0  0  0
  4  5  1  0  0  0  0
  4 28  4  0  0  0  0
  5  6  2  0  0  0  0
  6  7  1  0  0  0  0
  6 14  1  0  0  0  0
  7  8  1  0  0  0  0
  7 12  1  0  0  0  0
  8  9  1  0  0  0  0
  9 10  1  0  0  0  0
 10 11  1  0  0  0  0
 10 13  1  0  0  0  0
 11 12  1  0  0  0  0
 14 15  4  0  0  0  0
 14 34  4  0  0  0  0
 15 16  1  0  0  0  0
 15 31  4  0  0  0  0
 16 17  1  0  0  0  0
 16 28  1  0  0  0  0
 17 18  1  0  0  0  0
 18 19  2  0  0  0  0
 18 20  1  0  0  0  0
 20 21  4  0  0  0  0
 20 27  4  0  0  0  0
 21 22  4  0  0  0  0
 22 23  4  0  0  0  0
 23 24  1  0  0  0  0
 23 26  4  0  0  0  0
 24 25  1  0  0  0  0
 26 27  4  0  0  0  0
 28 29  4  0  0  0  0
 29 30  4  0  0  0  0
 31 32  4  0  0  0  0
 32 33  4  0  0  0  0
 33 34  4  0  0  0  0
M  END
>  <Name_Molregno>
356694

>  <DOPAMINE D1>
7.33

>  <DOPAMINE D2>
5.52

$$$$
356758
  Marvin  02231216192D 0   1.00000     0.00000     0

 29 32  0  0  0  0  0  0  0  0999 V2000
   -3.7200   -3.1530    0.0000 Cl  0  0  0  0  0  0  0  0  0
   -2.9316   -3.3962    0.0000 C   0  0  0  0  0  0  0  0  0
   -2.3269   -2.8351    0.0000 C   0  0  0  0  0  0  0  0  0
   -1.5385   -3.0782    0.0000 C   0  0  0  0  0  0  0  0  0
   -1.0241   -2.4332    0.0000 N   0  0  0  0  0  0  0  0  0
   -0.1991   -2.4332    0.0000 C   0  0  0  0  0  0  0  0  0
    0.1588   -1.6899    0.0000 N   0  0  0  0  0  0  0  0  0
   -0.3059   -1.0083    0.0000 C   0  0  0  0  0  0  0  0  0
    0.0520   -0.2650    0.0000 C   0  0  0  0  0  0  0  0  0
    0.8747   -0.2033    0.0000 N   0  0  0  0  0  0  0  0  0
    1.3395   -0.8850    0.0000 C   0  0  0  0  0  0  0  0  0
    0.9815   -1.6283    0.0000 C   0  0  0  0  0  0  0  0  0
    1.2327    0.5400    0.0000 C   0  0  0  0  0  0  0  0  0
    0.3152   -3.0782    0.0000 C   0  0  0  0  0  0  0  0  0
    0.1317   -3.8825    0.0000 C   0  0  0  0  0  0  0  0  0
   -0.6116   -4.2405    0.0000 N   0  0  0  0  0  0  0  0  0
   -0.6116   -5.0655    0.0000 N   0  0  0  0  0  0  0  0  0
   -1.3261   -5.4780    0.0000 C   0  0  0  0  0  0  0  0  0
   -2.0406   -5.0655    0.0000 O   0  0  0  0  0  0  0  0  0
   -1.3261   -6.3030    0.0000 C   0  0  0  0  0  0  0  0  0
   -2.0406   -6.7155    0.0000 C   0  0  0  0  0  0  0  0  0
   -2.0406   -7.5405    0.0000 C   0  0  0  0  0  0  0  0  0
   -1.3549   -3.8825    0.0000 C   0  0  0  0  0  0  0  0  0
   -1.9597   -4.4437    0.0000 C   0  0  0  0  0  0  0  0  0
   -2.7481   -4.2005    0.0000 C   0  0  0  0  0  0  0  0  0
    0.7364   -4.4437    0.0000 C   0  0  0  0  0  0  0  0  0
    1.5248   -4.2005    0.0000 C   0  0  0  0  0  0  0  0  0
    1.7084   -3.3962    0.0000 C   0  0  0  0  0  0  0  0  0
    1.1036   -2.8351    0.0000 C   0  0  0  0  0  0  0  0  0
  1  2  1  0  0  0  0
  2  3  4  0  0  0  0
  2 25  4  0  0  0  0
  3  4  4  0  0  0  0
  4  5  1  0  0  0  0
  4 23  4  0  0  0  0
  5  6  2  0  0  0  0
  6  7  1  0  0  0  0
  6 14  1  0  0  0  0
  7  8  1  0  0  0  0
  7 12  1  0  0  0  0
  8  9  1  0  0  0  0
  9 10  1  0  0  0  0
 10 11  1  0  0  0  0
 10 13  1  0  0  0  0
 11 12  1  0  0  0  0
 14 15  4  0  0  0  0
 14 29  4  0  0  0  0
 15 16  1  0  0  0  0
 15 26  4  0  0  0  0
 16 17  1  0  0  0  0
 16 23  1  0  0  0  0
 17 18  1  0  0  0  0
 18 19  2  0  0  0  0
 18 20  1  0  0  0  0
 20 21  1  0  0  0  0
 21 22  1  0  0  0  0
 23 24  4  0  0  0  0
 24 25  4  0  0  0  0
 26 27  4  0  0  0  0
 27 28  4  0  0  0  0
 28 29  4  0  0  0  0
M  END
>  <Name_Molregno>
356758

>  <DOPAMINE D1>
6.81

>  <DOPAMINE D2>
6.4

$$$$
356759
  Marvin  02231216192D 0   1.00000     0.00000     0

 33 37  0  0  0  0  0  0  0  0999 V2000
   -4.8541   -2.5847    0.0000 Cl  0  0  0  0  0  0  0  0  0
   -4.0658   -2.8279    0.0000 C   0  0  0  0  0  0  0  0  0
   -3.4610   -2.2667    0.0000 C   0  0  0  0  0  0  0  0  0
   -2.6727   -2.5099    0.0000 C   0  0  0  0  0  0  0  0  0
   -2.1583   -1.8649    0.0000 N   0  0  0  0  0  0  0  0  0
   -1.3333   -1.8649    0.0000 C   0  0  0  0  0  0  0  0  0
   -0.9753   -1.1216    0.0000 N   0  0  0  0  0  0  0  0  0
   -1.4401   -0.4399    0.0000 C   0  0  0  0  0  0  0  0  0
   -1.0821    0.3034    0.0000 C   0  0  0  0  0  0  0  0  0
   -0.2594    0.3650    0.0000 N   0  0  0  0  0  0  0  0  0
    0.2053   -0.3166    0.0000 C   0  0  0  0  0  0  0  0  0
   -0.1526   -1.0599    0.0000 C   0  0  0  0  0  0  0  0  0
    0.0985    1.1083    0.0000 C   0  0  0  0  0  0  0  0  0
   -0.8189   -2.5099    0.0000 C   0  0  0  0  0  0  0  0  0
   -1.0025   -3.3142    0.0000 C   0  0  0  0  0  0  0  0  0
   -1.7458   -3.6722    0.0000 N   0  0  0  0  0  0  0  0  0
   -1.7458   -4.4972    0.0000 N   0  0  0  0  0  0  0  0  0
   -1.0313   -4.9097    0.0000 C   0  0  0  0  0  0  0  0  0
   -0.3168   -4.4972    0.0000 O   0  0  0  0  0  0  0  0  0
   -1.0313   -5.7347    0.0000 C   0  0  0  0  0  0  0  0  0
   -0.3168   -6.1472    0.0000 C   0  0  0  0  0  0  0  0  0
   -0.3168   -6.9722    0.0000 C   0  0  0  0  0  0  0  0  0
    0.3506   -7.4571    0.0000 C   0  0  0  0  0  0  0  0  0
    0.0957   -8.2417    0.0000 C   0  0  0  0  0  0  0  0  0
   -0.7293   -8.2417    0.0000 C   0  0  0  0  0  0  0  0  0
   -0.9843   -7.4571    0.0000 C   0  0  0  0  0  0  0  0  0
   -2.4891   -3.3142    0.0000 C   0  0  0  0  0  0  0  0  0
   -3.0938   -3.8754    0.0000 C   0  0  0  0  0  0  0  0  0
   -3.8822   -3.6322    0.0000 C   0  0  0  0  0  0  0  0  0
   -0.3977   -3.8754    0.0000 C   0  0  0  0  0  0  0  0  0
    0.3906   -3.6322    0.0000 C   0  0  0  0  0  0  0  0  0
    0.5742   -2.8279    0.0000 C   0  0  0  0  0  0  0  0  0
   -0.0305   -2.2667    0.0000 C   0  0  0  0  0  0  0  0  0
  1  2  1  0  0  0  0
  2  3  4  0  0  0  0
  2 29  4  0  0  0  0
  3  4  4  0  0  0  0
  4  5  1  0  0  0  0
  4 27  4  0  0  0  0
  5  6  2  0  0  0  0
  6  7  1  0  0  0  0
  6 14  1  0  0  0  0
  7  8  1  0  0  0  0
  7 12  1  0  0  0  0
  8  9  1  0  0  0  0
  9 10  1  0  0  0  0
 10 11  1  0  0  0  0
 10 13  1  0  0  0  0
 11 12  1  0  0  0  0
 14 15  4  0  0  0  0
 14 33  4  0  0  0  0
 15 16  1  0  0  0  0
 15 30  4  0  0  0  0
 16 17  1  0  0  0  0
 16 27  1  0  0  0  0
 17 18  1  0  0  0  0
 18 19  2  0  0  0  0
 18 20  1  0  0  0  0
 20 21  1  0  0  0  0
 21 22  1  0  0  0  0
 22 23  1  0  0  0  0
 22 26  1  0  0  0  0
 23 24  1  0  0  0  0
 24 25  1  0  0  0  0
 25 26  1  0  0  0  0
 27 28  4  0  0  0  0
 28 29  4  0  0  0  0
 30 31  4  0  0  0  0
 31 32  4  0  0  0  0
 32 33  4  0  0  0  0
M  END
>  <Name_Molregno>
356759

>  <DOPAMINE D1>
6.95

>  <DOPAMINE D2>
5.71

$$$$
356785
  Marvin  02231216192D 0   1.00000     0.00000     0

 34 38  0  0  0  0  0  0  0  0999 V2000
   -5.0151   -2.4498    0.0000 Cl  0  0  0  0  0  0  0  0  0
   -4.2268   -2.6930    0.0000 C   0  0  0  0  0  0  0  0  0
   -3.6220   -2.1318    0.0000 C   0  0  0  0  0  0  0  0  0
   -2.8337   -2.3750    0.0000 C   0  0  0  0  0  0  0  0  0
   -2.3193   -1.7300    0.0000 N   0  0  0  0  0  0  0  0  0
   -1.4943   -1.7300    0.0000 C   0  0  0  0  0  0  0  0  0
   -1.1363   -0.9867    0.0000 N   0  0  0  0  0  0  0  0  0
   -1.6011   -0.3050    0.0000 C   0  0  0  0  0  0  0  0  0
   -1.2431    0.4383    0.0000 C   0  0  0  0  0  0  0  0  0
   -0.4204    0.4999    0.0000 N   0  0  0  0  0  0  0  0  0
    0.0443   -0.1817    0.0000 C   0  0  0  0  0  0  0  0  0
   -0.3136   -0.9250    0.0000 C   0  0  0  0  0  0  0  0  0
   -0.0625    1.2432    0.0000 C   0  0  0  0  0  0  0  0  0
   -0.9799   -2.3750    0.0000 C   0  0  0  0  0  0  0  0  0
   -1.1635   -3.1793    0.0000 C   0  0  0  0  0  0  0  0  0
   -1.9068   -3.5373    0.0000 N   0  0  0  0  0  0  0  0  0
   -1.9068   -4.3623    0.0000 N   0  0  0  0  0  0  0  0  0
   -1.1923   -4.7748    0.0000 C   0  0  0  0  0  0  0  0  0
   -0.4779   -4.3623    0.0000 O   0  0  0  0  0  0  0  0  0
   -1.1923   -5.5998    0.0000 C   0  0  0  0  0  0  0  0  0
   -0.4779   -6.0123    0.0000 C   0  0  0  0  0  0  0  0  0
   -0.4779   -6.8373    0.0000 C   0  0  0  0  0  0  0  0  0
    0.2366   -7.2498    0.0000 C   0  0  0  0  0  0  0  0  0
    0.2366   -8.0748    0.0000 C   0  0  0  0  0  0  0  0  0
   -0.4779   -8.4873    0.0000 C   0  0  0  0  0  0  0  0  0
   -1.1923   -8.0748    0.0000 C   0  0  0  0  0  0  0  0  0
   -1.1923   -7.2498    0.0000 C   0  0  0  0  0  0  0  0  0
   -2.6501   -3.1793    0.0000 C   0  0  0  0  0  0  0  0  0
   -3.2549   -3.7405    0.0000 C   0  0  0  0  0  0  0  0  0
   -4.0432   -3.4973    0.0000 C   0  0  0  0  0  0  0  0  0
   -0.5587   -3.7405    0.0000 C   0  0  0  0  0  0  0  0  0
    0.2296   -3.4973    0.0000 C   0  0  0  0  0  0  0  0  0
    0.4132   -2.6930    0.0000 C   0  0  0  0  0  0  0  0  0
   -0.1916   -2.1318    0.0000 C   0  0  0  0  0  0  0  0  0
  1  2  1  0  0  0  0
  2  3  4  0  0  0  0
  2 30  4  0  0  0  0
  3  4  4  0  0  0  0
  4  5  1  0  0  0  0
  4 28  4  0  0  0  0
  5  6  2  0  0  0  0
  6  7  1  0  0  0  0
  6 14  1  0  0  0  0
  7  8  1  0  0  0  0
  7 12  1  0  0  0  0
  8  9  1  0  0  0  0
  9 10  1  0  0  0  0
 10 11  1  0  0  0  0
 10 13  1  0  0  0  0
 11 12  1  0  0  0  0
 14 15  4  0  0  0  0
 14 34  4  0  0  0  0
 15 16  1  0  0  0  0
 15 31  4  0  0  0  0
 16 17  1  0  0  0  0
 16 28  1  0  0  0  0
 17 18  1  0  0  0  0
 18 19  2  0  0  0  0
 18 20  1  0  0  0  0
 20 21  1  0  0  0  0
 21 22  1  0  0  0  0
 22 23  4  0  0  0  0
 22 27  4  0  0  0  0
 23 24  4  0  0  0  0
 24 25  4  0  0  0  0
 25 26  4  0  0  0  0
 26 27  4  0  0  0  0
 28 29  4  0  0  0  0
 29 30  4  0  0  0  0
 31 32  4  0  0  0  0
 32 33  4  0  0  0  0
 33 34  4  0  0  0  0
M  END
>  <Name_Molregno>
356785

>  <DOPAMINE D1>
7.1

>  <DOPAMINE D2>
6.21

$$$$
356786
  Marvin  02231216192D 0   1.00000     0.00000     0

 37 41  0  0  0  0  0  0  0  0999 V2000
    5.4120    4.7426    0.0000 Cl  0  0  0  0  0  0  0  0  0
    4.6975    4.3301    0.0000 C   0  0  0  0  0  0  0  0  0
    4.6975    3.5051    0.0000 C   0  0  0  0  0  0  0  0  0
    3.9830    3.0926    0.0000 C   0  0  0  0  0  0  0  0  0
    3.2686    3.5051    0.0000 C   0  0  0  0  0  0  0  0  0
    3.2686    4.3301    0.0000 C   0  0  0  0  0  0  0  0  0
    3.9830    4.7426    0.0000 C   0  0  0  0  0  0  0  0  0
    3.9830    5.5676    0.0000 O   0  0  0  0  0  0  0  0  0
    3.2686    5.9801    0.0000 C   0  0  0  0  0  0  0  0  0
    3.9830    2.2676    0.0000 C   0  0  0  0  0  0  0  0  0
    4.6975    1.8551    0.0000 C   0  0  0  0  0  0  0  0  0
    4.6975    1.0301    0.0000 C   0  0  0  0  0  0  0  0  0
    3.9830    0.6176    0.0000 O   0  0  0  0  0  0  0  0  0
    5.4120    0.6176    0.0000 N   0  0  0  0  0  0  0  0  0
    5.4120   -0.2074    0.0000 N   0  0  0  0  0  0  0  0  0
    6.1553   -0.5654    0.0000 C   0  0  0  0  0  0  0  0  0
    6.3389   -1.3697    0.0000 C   0  0  0  0  0  0  0  0  0
    7.1272   -1.6128    0.0000 C   0  0  0  0  0  0  0  0  0
    7.7320   -1.0517    0.0000 C   0  0  0  0  0  0  0  0  0
    7.5484   -0.2474    0.0000 C   0  0  0  0  0  0  0  0  0
    6.7601   -0.0042    0.0000 C   0  0  0  0  0  0  0  0  0
    5.8245   -2.0147    0.0000 C   0  0  0  0  0  0  0  0  0
    4.9995   -2.0147    0.0000 N   0  0  0  0  0  0  0  0  0
    4.4851   -1.3697    0.0000 C   0  0  0  0  0  0  0  0  0
    3.6968   -1.6128    0.0000 C   0  0  0  0  0  0  0  0  0
    3.0920   -1.0517    0.0000 C   0  0  0  0  0  0  0  0  0
    2.3036   -1.2949    0.0000 Cl  0  0  0  0  0  0  0  0  0
    3.2756   -0.2474    0.0000 C   0  0  0  0  0  0  0  0  0
    4.0639   -0.0042    0.0000 C   0  0  0  0  0  0  0  0  0
    4.6687   -0.5654    0.0000 C   0  0  0  0  0  0  0  0  0
    6.1824   -2.7580    0.0000 N   0  0  0  0  0  0  0  0  0
    7.0051   -2.8196    0.0000 C   0  0  0  0  0  0  0  0  0
    7.3631   -3.5629    0.0000 C   0  0  0  0  0  0  0  0  0
    6.8984   -4.2446    0.0000 N   0  0  0  0  0  0  0  0  0
    6.0757   -4.1829    0.0000 C   0  0  0  0  0  0  0  0  0
    5.7177   -3.4396    0.0000 C   0  0  0  0  0  0  0  0  0
    7.2563   -4.9879    0.0000 C   0  0  0  0  0  0  0  0  0
  1  2  1  0  0  0  0
  2  3  4  0  0  0  0
  2  7  4  0  0  0  0
  3  4  4  0  0  0  0
  4  5  4  0  0  0  0
  4 10  1  0  0  0  0
  5  6  4  0  0  0  0
  6  7  4  0  0  0  0
  7  8  1  0  0  0  0
  8  9  1  0  0  0  0
 10 11  1  0  0  0  0
 11 12  1  0  0  0  0
 12 13  2  0  0  0  0
 12 14  1  0  0  0  0
 14 15  1  0  0  0  0
 15 16  1  0  0  0  0
 15 30  1  0  0  0  0
 16 17  4  0  0  0  0
 16 21  4  0  0  0  0
 17 18  4  0  0  0  0
 17 22  1  0  0  0  0
 18 19  4  0  0  0  0
 19 20  4  0  0  0  0
 20 21  4  0  0  0  0
 22 23  2  0  0  0  0
 22 31  1  0  0  0  0
 23 24  1  0  0  0  0
 24 25  4  0  0  0  0
 24 30  4  0  0  0  0
 25 26  4  0  0  0  0
 26 27  1  0  0  0  0
 26 28  4  0  0  0  0
 28 29  4  0  0  0  0
 29 30  4  0  0  0  0
 31 32  1  0  0  0  0
 31 36  1  0  0  0  0
 32 33  1  0  0  0  0
 33 34  1  0  0  0  0
 34 35  1  0  0  0  0
 34 37  1  0  0  0  0
 35 36  1  0  0  0  0
M  END
>  <Name_Molregno>
356786

>  <DOPAMINE D1>
7.25

>  <DOPAMINE D2>
6.24

$$$$
356811
  Marvin  02231216192D 0   1.00000     0.00000     0

 34 38  0  0  0  0  0  0  0  0999 V2000
   -5.0151   -2.4498    0.0000 Cl  0  0  0  0  0  0  0  0  0
   -4.2268   -2.6930    0.0000 C   0  0  0  0  0  0  0  0  0
   -3.6220   -2.1318    0.0000 C   0  0  0  0  0  0  0  0  0
   -2.8337   -2.3750    0.0000 C   0  0  0  0  0  0  0  0  0
   -2.3193   -1.7300    0.0000 N   0  0  0  0  0  0  0  0  0
   -1.4943   -1.7300    0.0000 C   0  0  0  0  0  0  0  0  0
   -1.1363   -0.9867    0.0000 N   0  0  0  0  0  0  0  0  0
   -1.6011   -0.3050    0.0000 C   0  0  0  0  0  0  0  0  0
   -1.2431    0.4383    0.0000 C   0  0  0  0  0  0  0  0  0
   -0.4204    0.4999    0.0000 N   0  0  0  0  0  0  0  0  0
    0.0443   -0.1817    0.0000 C   0  0  0  0  0  0  0  0  0
   -0.3136   -0.9250    0.0000 C   0  0  0  0  0  0  0  0  0
   -0.0625    1.2432    0.0000 C   0  0  0  0  0  0  0  0  0
   -0.9799   -2.3750    0.0000 C   0  0  0  0  0  0  0  0  0
   -1.1635   -3.1793    0.0000 C   0  0  0  0  0  0  0  0  0
   -1.9068   -3.5373    0.0000 N   0  0  0  0  0  0  0  0  0
   -1.9068   -4.3623    0.0000 N   0  0  0  0  0  0  0  0  0
   -1.1923   -4.7748    0.0000 C   0  0  0  0  0  0  0  0  0
   -0.4779   -4.3623    0.0000 O   0  0  0  0  0  0  0  0  0
   -1.1923   -5.5998    0.0000 C   0  0  0  0  0  0  0  0  0
   -0.4779   -6.0123    0.0000 C   0  0  0  0  0  0  0  0  0
   -0.4779   -6.8373    0.0000 C   0  0  0  0  0  0  0  0  0
    0.2366   -7.2498    0.0000 C   0  0  0  0  0  0  0  0  0
    0.2366   -8.0748    0.0000 C   0  0  0  0  0  0  0  0  0
   -0.4779   -8.4873    0.0000 C   0  0  0  0  0  0  0  0  0
   -1.1923   -8.0748    0.0000 C   0  0  0  0  0  0  0  0  0
   -1.1923   -7.2498    0.0000 C   0  0  0  0  0  0  0  0  0
   -2.6501   -3.1793    0.0000 C   0  0  0  0  0  0  0  0  0
   -3.2549   -3.7405    0.0000 C   0  0  0  0  0  0  0  0  0
   -4.0432   -3.4973    0.0000 C   0  0  0  0  0  0  0  0  0
   -0.5587   -3.7405    0.0000 C   0  0  0  0  0  0  0  0  0
    0.2296   -3.4973    0.0000 C   0  0  0  0  0  0  0  0  0
    0.4132   -2.6930    0.0000 C   0  0  0  0  0  0  0  0  0
   -0.1916   -2.1318    0.0000 C   0  0  0  0  0  0  0  0  0
  1  2  1  0  0  0  0
  2  3  4  0  0  0  0
  2 30  4  0  0  0  0
  3  4  4  0  0  0  0
  4  5  1  0  0  0  0
  4 28  4  0  0  0  0
  5  6  2  0  0  0  0
  6  7  1  0  0  0  0
  6 14  1  0  0  0  0
  7  8  1  0  0  0  0
  7 12  1  0  0  0  0
  8  9  1  0  0  0  0
  9 10  1  0  0  0  0
 10 11  1  0  0  0  0
 10 13  1  0  0  0  0
 11 12  1  0  0  0  0
 14 15  4  0  0  0  0
 14 34  4  0  0  0  0
 15 16  1  0  0  0  0
 15 31  4  0  0  0  0
 16 17  1  0  0  0  0
 16 28  1  0  0  0  0
 17 18  1  0  0  0  0
 18 19  2  0  0  0  0
 18 20  1  0  0  0  0
 20 21  2  0  0  0  0
 21 22  1  0  0  0  0
 22 23  4  0  0  0  0
 22 27  4  0  0  0  0
 23 24  4  0  0  0  0
 24 25  4  0  0  0  0
 25 26  4  0  0  0  0
 26 27  4  0  0  0  0
 28 29  4  0  0  0  0
 29 30  4  0  0  0  0
 31 32  4  0  0  0  0
 32 33  4  0  0  0  0
 33 34  4  0  0  0  0
M  END
>  <Name_Molregno>
356811

>  <DOPAMINE D1>
6.99

>  <DOPAMINE D2>
5.8

$$$$
356812
  Marvin  02231216192D 0   1.00000     0.00000     0

 30 34  0  0  0  0  0  0  0  0999 V2000
   -2.6677   -2.9679    0.0000 Cl  0  0  0  0  0  0  0  0  0
   -1.8793   -3.2111    0.0000 C   0  0  0  0  0  0  0  0  0
   -1.2746   -2.6499    0.0000 C   0  0  0  0  0  0  0  0  0
   -0.4862   -2.8931    0.0000 C   0  0  0  0  0  0  0  0  0
    0.0282   -2.2481    0.0000 N   0  0  0  0  0  0  0  0  0
    0.8532   -2.2481    0.0000 C   0  0  0  0  0  0  0  0  0
    1.2111   -1.5048    0.0000 N   0  0  0  0  0  0  0  0  0
    0.7464   -0.8232    0.0000 C   0  0  0  0  0  0  0  0  0
    1.1043   -0.0799    0.0000 C   0  0  0  0  0  0  0  0  0
    1.9270   -0.0182    0.0000 N   0  0  0  0  0  0  0  0  0
    2.3918   -0.6999    0.0000 C   0  0  0  0  0  0  0  0  0
    2.0338   -1.4432    0.0000 C   0  0  0  0  0  0  0  0  0
    2.2850    0.7251    0.0000 C   0  0  0  0  0  0  0  0  0
    1.3675   -2.8931    0.0000 C   0  0  0  0  0  0  0  0  0
    1.1840   -3.6974    0.0000 C   0  0  0  0  0  0  0  0  0
    0.4407   -4.0554    0.0000 N   0  0  0  0  0  0  0  0  0
    0.4407   -4.8804    0.0000 N   0  0  0  0  0  0  0  0  0
    1.1551   -5.2929    0.0000 C   0  0  0  0  0  0  0  0  0
    1.8696   -4.8804    0.0000 O   0  0  0  0  0  0  0  0  0
    1.1551   -6.1179    0.0000 C   0  0  0  0  0  0  0  0  0
    1.7385   -6.7012    0.0000 C   0  0  0  0  0  0  0  0  0
    1.1551   -7.2846    0.0000 C   0  0  0  0  0  0  0  0  0
    0.5718   -6.7012    0.0000 C   0  0  0  0  0  0  0  0  0
   -0.3026   -3.6974    0.0000 C   0  0  0  0  0  0  0  0  0
   -0.9074   -4.2586    0.0000 C   0  0  0  0  0  0  0  0  0
   -1.6958   -4.0154    0.0000 C   0  0  0  0  0  0  0  0  0
    1.7887   -4.2586    0.0000 C   0  0  0  0  0  0  0  0  0
    2.5771   -4.0154    0.0000 C   0  0  0  0  0  0  0  0  0
    2.7606   -3.2111    0.0000 C   0  0  0  0  0  0  0  0  0
    2.1559   -2.6499    0.0000 C   0  0  0  0  0  0  0  0  0
  1  2  1  0  0  0  0
  2  3  4  0  0  0  0
  2 26  4  0  0  0  0
  3  4  4  0  0  0  0
  4  5  1  0  0  0  0
  4 24  4  0  0  0  0
  5  6  2  0  0  0  0
  6  7  1  0  0  0  0
  6 14  1  0  0  0  0
  7  8  1  0  0  0  0
  7 12  1  0  0  0  0
  8  9  1  0  0  0  0
  9 10  1  0  0  0  0
 10 11  1  0  0  0  0
 10 13  1  0  0  0  0
 11 12  1  0  0  0  0
 14 15  4  0  0  0  0
 14 30  4  0  0  0  0
 15 16  1  0  0  0  0
 15 27  4  0  0  0  0
 16 17  1  0  0  0  0
 16 24  1  0  0  0  0
 17 18  1  0  0  0  0
 18 19  2  0  0  0  0
 18 20  1  0  0  0  0
 20 21  1  0  0  0  0
 20 23  1  0  0  0  0
 21 22  1  0  0  0  0
 22 23  1  0  0  0  0
 24 25  4  0  0  0  0
 25 26  4  0  0  0  0
 27 28  4  0  0  0  0
 28 29  4  0  0  0  0
 29 30  4  0  0  0  0
M  END
>  <Name_Molregno>
356812

>  <DOPAMINE D1>
6.82

$$$$
356916
  Marvin  02231216192D 0   1.00000     0.00000     0

 24 27  0  0  0  0  0  0  0  0999 V2000
   -0.6933   -2.3271    0.0000 Cl  0  0  0  0  0  0  0  0  0
    0.0950   -2.5703    0.0000 C   0  0  0  0  0  0  0  0  0
    0.6998   -2.0092    0.0000 C   0  0  0  0  0  0  0  0  0
    1.4881   -2.2523    0.0000 C   0  0  0  0  0  0  0  0  0
    2.0025   -1.6073    0.0000 N   0  0  0  0  0  0  0  0  0
    2.8275   -1.6073    0.0000 C   0  0  0  0  0  0  0  0  0
    3.1855   -0.8640    0.0000 N   0  0  0  0  0  0  0  0  0
    2.7207   -0.1824    0.0000 C   0  0  0  0  0  0  0  0  0
    3.0787    0.5609    0.0000 C   0  0  0  0  0  0  0  0  0
    3.9014    0.6226    0.0000 N   0  0  0  0  0  0  0  0  0
    4.3661   -0.0591    0.0000 C   0  0  0  0  0  0  0  0  0
    4.0082   -0.8024    0.0000 C   0  0  0  0  0  0  0  0  0
    4.2593    1.3659    0.0000 C   0  0  0  0  0  0  0  0  0
    3.3419   -2.2523    0.0000 C   0  0  0  0  0  0  0  0  0
    3.1583   -3.0567    0.0000 C   0  0  0  0  0  0  0  0  0
    2.4150   -3.4146    0.0000 N   0  0  0  0  0  0  0  0  0
    2.4150   -4.2396    0.0000 N   0  0  0  0  0  0  0  0  0
    1.6717   -3.0567    0.0000 C   0  0  0  0  0  0  0  0  0
    1.0669   -3.6178    0.0000 C   0  0  0  0  0  0  0  0  0
    0.2786   -3.3746    0.0000 C   0  0  0  0  0  0  0  0  0
    3.7631   -3.6178    0.0000 C   0  0  0  0  0  0  0  0  0
    4.5514   -3.3746    0.0000 C   0  0  0  0  0  0  0  0  0
    4.7350   -2.5703    0.0000 C   0  0  0  0  0  0  0  0  0
    4.1302   -2.0092    0.0000 C   0  0  0  0  0  0  0  0  0
  1  2  1  0  0  0  0
  2  3  4  0  0  0  0
  2 20  4  0  0  0  0
  3  4  4  0  0  0  0
  4  5  1  0  0  0  0
  4 18  4  0  0  0  0
  5  6  2  0  0  0  0
  6  7  1  0  0  0  0
  6 14  1  0  0  0  0
  7  8  1  0  0  0  0
  7 12  1  0  0  0  0
  8  9  1  0  0  0  0
  9 10  1  0  0  0  0
 10 11  1  0  0  0  0
 10 13  1  0  0  0  0
 11 12  1  0  0  0  0
 14 15  4  0  0  0  0
 14 24  4  0  0  0  0
 15 16  1  0  0  0  0
 15 21  4  0  0  0  0
 16 17  1  0  0  0  0
 16 18  1  0  0  0  0
 18 19  4  0  0  0  0
 19 20  4  0  0  0  0
 21 22  4  0  0  0  0
 22 23  4  0  0  0  0
 23 24  4  0  0  0  0
M  END
>  <Name_Molregno>
356916

>  <DOPAMINE D1>
6.55

>  <DOPAMINE D2>
6.19

$$$$
356945
  Marvin  02231216192D 0   1.00000     0.00000     0

 27 30  0  0  0  0  0  0  0  0999 V2000
   -2.1509   -3.2378    0.0000 Cl  0  0  0  0  0  0  0  0  0
   -1.3626   -3.4809    0.0000 C   0  0  0  0  0  0  0  0  0
   -0.7578   -2.9198    0.0000 C   0  0  0  0  0  0  0  0  0
    0.0306   -3.1630    0.0000 C   0  0  0  0  0  0  0  0  0
    0.5449   -2.5180    0.0000 N   0  0  0  0  0  0  0  0  0
    1.3699   -2.5180    0.0000 C   0  0  0  0  0  0  0  0  0
    1.7279   -1.7747    0.0000 N   0  0  0  0  0  0  0  0  0
    1.2632   -1.0930    0.0000 C   0  0  0  0  0  0  0  0  0
    1.6211   -0.3497    0.0000 C   0  0  0  0  0  0  0  0  0
    2.4438   -0.2881    0.0000 N   0  0  0  0  0  0  0  0  0
    2.9085   -0.9697    0.0000 C   0  0  0  0  0  0  0  0  0
    2.5506   -1.7130    0.0000 C   0  0  0  0  0  0  0  0  0
    2.8018    0.4552    0.0000 C   0  0  0  0  0  0  0  0  0
    1.8843   -3.1630    0.0000 C   0  0  0  0  0  0  0  0  0
    1.7007   -3.9673    0.0000 C   0  0  0  0  0  0  0  0  0
    0.9574   -4.3252    0.0000 N   0  0  0  0  0  0  0  0  0
    0.9574   -5.1502    0.0000 N   0  0  0  0  0  0  0  0  0
    0.2430   -5.5627    0.0000 C   0  0  0  0  0  0  0  0  0
    0.2430   -6.3877    0.0000 O   0  0  0  0  0  0  0  0  0
   -0.4715   -5.1502    0.0000 C   0  0  0  0  0  0  0  0  0
    0.2141   -3.9673    0.0000 C   0  0  0  0  0  0  0  0  0
   -0.3906   -4.5284    0.0000 C   0  0  0  0  0  0  0  0  0
   -1.1790   -4.2853    0.0000 C   0  0  0  0  0  0  0  0  0
    2.3055   -4.5284    0.0000 C   0  0  0  0  0  0  0  0  0
    3.0939   -4.2853    0.0000 C   0  0  0  0  0  0  0  0  0
    3.2774   -3.4809    0.0000 C   0  0  0  0  0  0  0  0  0
    2.6727   -2.9198    0.0000 C   0  0  0  0  0  0  0  0  0
  1  2  1  0  0  0  0
  2  3  4  0  0  0  0
  2 23  4  0  0  0  0
  3  4  4  0  0  0  0
  4  5  1  0  0  0  0
  4 21  4  0  0  0  0
  5  6  2  0  0  0  0
  6  7  1  0  0  0  0
  6 14  1  0  0  0  0
  7  8  1  0  0  0  0
  7 12  1  0  0  0  0
  8  9  1  0  0  0  0
  9 10  1  0  0  0  0
 10 11  1  0  0  0  0
 10 13  1  0  0  0  0
 11 12  1  0  0  0  0
 14 15  4  0  0  0  0
 14 27  4  0  0  0  0
 15 16  1  0  0  0  0
 15 24  4  0  0  0  0
 16 17  1  0  0  0  0
 16 21  1  0  0  0  0
 17 18  1  0  0  0  0
 18 19  2  0  0  0  0
 18 20  1  0  0  0  0
 21 22  4  0  0  0  0
 22 23  4  0  0  0  0
 24 25  4  0  0  0  0
 25 26  4  0  0  0  0
 26 27  4  0  0  0  0
M  END
>  <Name_Molregno>
356945

>  <DOPAMINE D1>
6.31

$$$$
356946
  Marvin  02231216192D 0   1.00000     0.00000     0

 30 33  0  0  0  0  0  0  0  0999 V2000
   -2.8389   -3.0979    0.0000 Cl  0  0  0  0  0  0  0  0  0
   -2.0506   -3.3411    0.0000 C   0  0  0  0  0  0  0  0  0
   -1.4458   -2.7799    0.0000 C   0  0  0  0  0  0  0  0  0
   -0.6575   -3.0231    0.0000 C   0  0  0  0  0  0  0  0  0
   -0.1431   -2.3781    0.0000 N   0  0  0  0  0  0  0  0  0
    0.6819   -2.3781    0.0000 C   0  0  0  0  0  0  0  0  0
    1.0398   -1.6348    0.0000 N   0  0  0  0  0  0  0  0  0
    0.5751   -0.9532    0.0000 C   0  0  0  0  0  0  0  0  0
    0.9331   -0.2099    0.0000 C   0  0  0  0  0  0  0  0  0
    1.7558   -0.1482    0.0000 N   0  0  0  0  0  0  0  0  0
    2.2205   -0.8299    0.0000 C   0  0  0  0  0  0  0  0  0
    1.8625   -1.5731    0.0000 C   0  0  0  0  0  0  0  0  0
    2.1137    0.5951    0.0000 C   0  0  0  0  0  0  0  0  0
    1.1963   -3.0231    0.0000 C   0  0  0  0  0  0  0  0  0
    1.0127   -3.8274    0.0000 C   0  0  0  0  0  0  0  0  0
    0.2694   -4.1854    0.0000 N   0  0  0  0  0  0  0  0  0
    0.2694   -5.0104    0.0000 N   0  0  0  0  0  0  0  0  0
   -0.4451   -5.4229    0.0000 C   0  0  0  0  0  0  0  0  0
   -1.1595   -5.0104    0.0000 O   0  0  0  0  0  0  0  0  0
   -0.4451   -6.2479    0.0000 C   0  0  0  0  0  0  0  0  0
   -0.4451   -7.0729    0.0000 C   0  0  0  0  0  0  0  0  0
   -1.2701   -6.2479    0.0000 C   0  0  0  0  0  0  0  0  0
    0.3799   -6.2479    0.0000 C   0  0  0  0  0  0  0  0  0
   -0.4739   -3.8274    0.0000 C   0  0  0  0  0  0  0  0  0
   -1.0787   -4.3886    0.0000 C   0  0  0  0  0  0  0  0  0
   -1.8670   -4.1454    0.0000 C   0  0  0  0  0  0  0  0  0
    1.6175   -4.3886    0.0000 C   0  0  0  0  0  0  0  0  0
    2.4058   -4.1454    0.0000 C   0  0  0  0  0  0  0  0  0
    2.5894   -3.3411    0.0000 C   0  0  0  0  0  0  0  0  0
    1.9846   -2.7799    0.0000 C   0  0  0  0  0  0  0  0  0
  1  2  1  0  0  0  0
  2  3  4  0  0  0  0
  2 26  4  0  0  0  0
  3  4  4  0  0  0  0
  4  5  1  0  0  0  0
  4 24  4  0  0  0  0
  5  6  2  0  0  0  0
  6  7  1  0  0  0  0
  6 14  1  0  0  0  0
  7  8  1  0  0  0  0
  7 12  1  0  0  0  0
  8  9  1  0  0  0  0
  9 10  1  0  0  0  0
 10 11  1  0  0  0  0
 10 13  1  0  0  0  0
 11 12  1  0  0  0  0
 14 15  4  0  0  0  0
 14 30  4  0  0  0  0
 15 16  1  0  0  0  0
 15 27  4  0  0  0  0
 16 17  1  0  0  0  0
 16 24  1  0  0  0  0
 17 18  1  0  0  0  0
 18 19  2  0  0  0  0
 18 20  1  0  0  0  0
 20 21  1  0  0  0  0
 20 22  1  0  0  0  0
 20 23  1  0  0  0  0
 24 25  4  0  0  0  0
 25 26  4  0  0  0  0
 27 28  4  0  0  0  0
 28 29  4  0  0  0  0
 29 30  4  0  0  0  0
M  END
>  <Name_Molregno>
356946

>  <DOPAMINE D1>
7.01

$$$$
356987
  Marvin  02231216192D 0   1.00000     0.00000     0

 30 33  0  0  0  0  0  0  0  0999 V2000
   -3.7981   -3.0402    0.0000 Cl  0  0  0  0  0  0  0  0  0
   -3.0098   -3.2833    0.0000 C   0  0  0  0  0  0  0  0  0
   -2.4050   -2.7222    0.0000 C   0  0  0  0  0  0  0  0  0
   -1.6167   -2.9654    0.0000 C   0  0  0  0  0  0  0  0  0
   -1.1023   -2.3204    0.0000 N   0  0  0  0  0  0  0  0  0
   -0.2773   -2.3204    0.0000 C   0  0  0  0  0  0  0  0  0
    0.0807   -1.5771    0.0000 N   0  0  0  0  0  0  0  0  0
   -0.3841   -0.8954    0.0000 C   0  0  0  0  0  0  0  0  0
   -0.0261   -0.1521    0.0000 C   0  0  0  0  0  0  0  0  0
    0.7966   -0.0905    0.0000 N   0  0  0  0  0  0  0  0  0
    1.2613   -0.7721    0.0000 C   0  0  0  0  0  0  0  0  0
    0.9033   -1.5154    0.0000 C   0  0  0  0  0  0  0  0  0
    1.1545    0.6528    0.0000 C   0  0  0  0  0  0  0  0  0
    0.2371   -2.9654    0.0000 C   0  0  0  0  0  0  0  0  0
    0.0535   -3.7697    0.0000 C   0  0  0  0  0  0  0  0  0
   -0.6898   -4.1276    0.0000 N   0  0  0  0  0  0  0  0  0
   -0.6898   -4.9526    0.0000 N   0  0  0  0  0  0  0  0  0
   -1.4043   -5.3651    0.0000 C   0  0  0  0  0  0  0  0  0
   -2.1187   -4.9526    0.0000 O   0  0  0  0  0  0  0  0  0
   -1.4043   -6.1901    0.0000 C   0  0  0  0  0  0  0  0  0
   -1.4043   -7.0151    0.0000 F   0  0  0  0  0  0  0  0  0
   -2.2293   -6.1901    0.0000 F   0  0  0  0  0  0  0  0  0
   -0.5793   -6.1901    0.0000 F   0  0  0  0  0  0  0  0  0
   -1.4331   -3.7697    0.0000 C   0  0  0  0  0  0  0  0  0
   -2.0379   -4.3308    0.0000 C   0  0  0  0  0  0  0  0  0
   -2.8262   -4.0877    0.0000 C   0  0  0  0  0  0  0  0  0
    0.6583   -4.3308    0.0000 C   0  0  0  0  0  0  0  0  0
    1.4466   -4.0877    0.0000 C   0  0  0  0  0  0  0  0  0
    1.6302   -3.2833    0.0000 C   0  0  0  0  0  0  0  0  0
    1.0254   -2.7222    0.0000 C   0  0  0  0  0  0  0  0  0
  1  2  1  0  0  0  0
  2  3  4  0  0  0  0
  2 26  4  0  0  0  0
  3  4  4  0  0  0  0
  4  5  1  0  0  0  0
  4 24  4  0  0  0  0
  5  6  2  0  0  0  0
  6  7  1  0  0  0  0
  6 14  1  0  0  0  0
  7  8  1  0  0  0  0
  7 12  1  0  0  0  0
  8  9  1  0  0  0  0
  9 10  1  0  0  0  0
 10 11  1  0  0  0  0
 10 13  1  0  0  0  0
 11 12  1  0  0  0  0
 14 15  4  0  0  0  0
 14 30  4  0  0  0  0
 15 16  1  0  0  0  0
 15 27  4  0  0  0  0
 16 17  1  0  0  0  0
 16 24  1  0  0  0  0
 17 18  1  0  0  0  0
 18 19  2  0  0  0  0
 18 20  1  0  0  0  0
 20 21  1  0  0  0  0
 20 22  1  0  0  0  0
 20 23  1  0  0  0  0
 24 25  4  0  0  0  0
 25 26  4  0  0  0  0
 27 28  4  0  0  0  0
 28 29  4  0  0  0  0
 29 30  4  0  0  0  0
M  END
>  <Name_Molregno>
356987

>  <DOPAMINE D1>
7.07

>  <DOPAMINE D2>
5.72

$$$$
357020
  Marvin  02231216192D 0   1.00000     0.00000     0

 36 40  0  0  0  0  0  0  0  0999 V2000
   -4.5769   -2.2883    0.0000 Cl  0  0  0  0  0  0  0  0  0
   -3.7885   -2.5315    0.0000 C   0  0  0  0  0  0  0  0  0
   -3.1838   -1.9704    0.0000 C   0  0  0  0  0  0  0  0  0
   -2.3954   -2.2135    0.0000 C   0  0  0  0  0  0  0  0  0
   -1.8810   -1.5685    0.0000 N   0  0  0  0  0  0  0  0  0
   -1.0560   -1.5685    0.0000 C   0  0  0  0  0  0  0  0  0
   -0.6981   -0.8252    0.0000 N   0  0  0  0  0  0  0  0  0
   -1.1628   -0.1436    0.0000 C   0  0  0  0  0  0  0  0  0
   -0.8049    0.5997    0.0000 C   0  0  0  0  0  0  0  0  0
    0.0178    0.6614    0.0000 N   0  0  0  0  0  0  0  0  0
    0.4826   -0.0203    0.0000 C   0  0  0  0  0  0  0  0  0
    0.1246   -0.7636    0.0000 C   0  0  0  0  0  0  0  0  0
    0.3758    1.4047    0.0000 C   0  0  0  0  0  0  0  0  0
   -0.5417   -2.2135    0.0000 C   0  0  0  0  0  0  0  0  0
   -0.7252   -3.0179    0.0000 C   0  0  0  0  0  0  0  0  0
   -1.4685   -3.3758    0.0000 N   0  0  0  0  0  0  0  0  0
   -1.4685   -4.2008    0.0000 N   0  0  0  0  0  0  0  0  0
   -0.7541   -4.6133    0.0000 C   0  0  0  0  0  0  0  0  0
   -0.0396   -4.2008    0.0000 O   0  0  0  0  0  0  0  0  0
   -0.7541   -5.4383    0.0000 C   0  0  0  0  0  0  0  0  0
   -0.0396   -5.8508    0.0000 C   0  0  0  0  0  0  0  0  0
   -0.0396   -6.6758    0.0000 C   0  0  0  0  0  0  0  0  0
   -0.7541   -7.0883    0.0000 C   0  0  0  0  0  0  0  0  0
   -1.4685   -6.6758    0.0000 C   0  0  0  0  0  0  0  0  0
   -1.4685   -5.8508    0.0000 C   0  0  0  0  0  0  0  0  0
   -0.7541   -7.9133    0.0000 C   0  0  0  0  0  0  0  0  0
   -0.7541   -8.7383    0.0000 F   0  0  0  0  0  0  0  0  0
   -1.5791   -7.9133    0.0000 F   0  0  0  0  0  0  0  0  0
    0.0709   -7.9133    0.0000 F   0  0  0  0  0  0  0  0  0
   -2.2118   -3.0179    0.0000 C   0  0  0  0  0  0  0  0  0
   -2.8166   -3.5790    0.0000 C   0  0  0  0  0  0  0  0  0
   -3.6050   -3.3358    0.0000 C   0  0  0  0  0  0  0  0  0
   -0.1205   -3.5790    0.0000 C   0  0  0  0  0  0  0  0  0
    0.6679   -3.3358    0.0000 C   0  0  0  0  0  0  0  0  0
    0.8514   -2.5315    0.0000 C   0  0  0  0  0  0  0  0  0
    0.2467   -1.9704    0.0000 C   0  0  0  0  0  0  0  0  0
  1  2  1  0  0  0  0
  2  3  4  0  0  0  0
  2 32  4  0  0  0  0
  3  4  4  0  0  0  0
  4  5  1  0  0  0  0
  4 30  4  0  0  0  0
  5  6  2  0  0  0  0
  6  7  1  0  0  0  0
  6 14  1  0  0  0  0
  7  8  1  0  0  0  0
  7 12  1  0  0  0  0
  8  9  1  0  0  0  0
  9 10  1  0  0  0  0
 10 11  1  0  0  0  0
 10 13  1  0  0  0  0
 11 12  1  0  0  0  0
 14 15  4  0  0  0  0
 14 36  4  0  0  0  0
 15 16  1  0  0  0  0
 15 33  4  0  0  0  0
 16 17  1  0  0  0  0
 16 30  1  0  0  0  0
 17 18  1  0  0  0  0
 18 19  2  0  0  0  0
 18 20  1  0  0  0  0
 20 21  4  0  0  0  0
 20 25  4  0  0  0  0
 21 22  4  0  0  0  0
 22 23  4  0  0  0  0
 23 24  4  0  0  0  0
 23 26  1  0  0  0  0
 24 25  4  0  0  0  0
 26 27  1  0  0  0  0
 26 28  1  0  0  0  0
 26 29  1  0  0  0  0
 30 31  4  0  0  0  0
 31 32  4  0  0  0  0
 33 34  4  0  0  0  0
 34 35  4  0  0  0  0
 35 36  4  0  0  0  0
M  END
>  <Name_Molregno>
357020

>  <DOPAMINE D1>
7.17

$$$$
357053
  Marvin  02231216192D 0   1.00000     0.00000     0

 33 37  0  0  0  0  0  0  0  0999 V2000
   -4.6390   -2.6254    0.0000 Cl  0  0  0  0  0  0  0  0  0
   -3.8506   -2.8686    0.0000 C   0  0  0  0  0  0  0  0  0
   -3.2459   -2.3075    0.0000 C   0  0  0  0  0  0  0  0  0
   -2.4575   -2.5506    0.0000 C   0  0  0  0  0  0  0  0  0
   -1.9431   -1.9056    0.0000 N   0  0  0  0  0  0  0  0  0
   -1.1181   -1.9056    0.0000 C   0  0  0  0  0  0  0  0  0
   -0.7602   -1.1623    0.0000 N   0  0  0  0  0  0  0  0  0
   -1.2249   -0.4807    0.0000 C   0  0  0  0  0  0  0  0  0
   -0.8670    0.2626    0.0000 C   0  0  0  0  0  0  0  0  0
   -0.0443    0.3243    0.0000 N   0  0  0  0  0  0  0  0  0
    0.4205   -0.3574    0.0000 C   0  0  0  0  0  0  0  0  0
    0.0625   -1.1007    0.0000 C   0  0  0  0  0  0  0  0  0
    0.3137    1.0676    0.0000 C   0  0  0  0  0  0  0  0  0
   -0.6038   -2.5506    0.0000 C   0  0  0  0  0  0  0  0  0
   -0.7873   -3.3549    0.0000 C   0  0  0  0  0  0  0  0  0
   -1.5306   -3.7129    0.0000 N   0  0  0  0  0  0  0  0  0
   -1.5306   -4.5379    0.0000 N   0  0  0  0  0  0  0  0  0
   -0.8162   -4.9504    0.0000 C   0  0  0  0  0  0  0  0  0
   -0.1017   -4.5379    0.0000 O   0  0  0  0  0  0  0  0  0
   -0.8162   -5.7754    0.0000 C   0  0  0  0  0  0  0  0  0
   -0.1017   -6.1879    0.0000 C   0  0  0  0  0  0  0  0  0
   -0.1017   -7.0129    0.0000 C   0  0  0  0  0  0  0  0  0
   -0.8162   -7.4254    0.0000 C   0  0  0  0  0  0  0  0  0
   -1.5306   -7.0129    0.0000 C   0  0  0  0  0  0  0  0  0
   -1.5306   -6.1879    0.0000 C   0  0  0  0  0  0  0  0  0
    0.6128   -7.4254    0.0000 C   0  0  0  0  0  0  0  0  0
   -2.2739   -3.3549    0.0000 C   0  0  0  0  0  0  0  0  0
   -2.8787   -3.9161    0.0000 C   0  0  0  0  0  0  0  0  0
   -3.6670   -3.6729    0.0000 C   0  0  0  0  0  0  0  0  0
   -0.1826   -3.9161    0.0000 C   0  0  0  0  0  0  0  0  0
    0.6058   -3.6729    0.0000 C   0  0  0  0  0  0  0  0  0
    0.7894   -2.8686    0.0000 C   0  0  0  0  0  0  0  0  0
    0.1846   -2.3075    0.0000 C   0  0  0  0  0  0  0  0  0
  1  2  1  0  0  0  0
  2  3  4  0  0  0  0
  2 29  4  0  0  0  0
  3  4  4  0  0  0  0
  4  5  1  0  0  0  0
  4 27  4  0  0  0  0
  5  6  2  0  0  0  0
  6  7  1  0  0  0  0
  6 14  1  0  0  0  0
  7  8  1  0  0  0  0
  7 12  1  0  0  0  0
  8  9  1  0  0  0  0
  9 10  1  0  0  0  0
 10 11  1  0  0  0  0
 10 13  1  0  0  0  0
 11 12  1  0  0  0  0
 14 15  4  0  0  0  0
 14 33  4  0  0  0  0
 15 16  1  0  0  0  0
 15 30  4  0  0  0  0
 16 17  1  0  0  0  0
 16 27  1  0  0  0  0
 17 18  1  0  0  0  0
 18 19  2  0  0  0  0
 18 20  1  0  0  0  0
 20 21  4  0  0  0  0
 20 25  4  0  0  0  0
 21 22  4  0  0  0  0
 22 23  4  0  0  0  0
 22 26  1  0  0  0  0
 23 24  4  0  0  0  0
 24 25  4  0  0  0  0
 27 28  4  0  0  0  0
 28 29  4  0  0  0  0
 30 31  4  0  0  0  0
 31 32  4  0  0  0  0
 32 33  4  0  0  0  0
M  END
>  <Name_Molregno>
357053

>  <DOPAMINE D1>
8.52

>  <DOPAMINE D2>
6.29

$$$$
357054
  Marvin  02231216192D 0   1.00000     0.00000     0

 34 38  0  0  0  0  0  0  0  0999 V2000
   -3.3555   -2.7647    0.0000 Cl  0  0  0  0  0  0  0  0  0
   -2.5671   -3.0079    0.0000 C   0  0  0  0  0  0  0  0  0
   -1.9624   -2.4467    0.0000 C   0  0  0  0  0  0  0  0  0
   -1.1740   -2.6899    0.0000 C   0  0  0  0  0  0  0  0  0
   -0.6596   -2.0449    0.0000 N   0  0  0  0  0  0  0  0  0
    0.1654   -2.0449    0.0000 C   0  0  0  0  0  0  0  0  0
    0.5233   -1.3016    0.0000 N   0  0  0  0  0  0  0  0  0
    0.0586   -0.6199    0.0000 C   0  0  0  0  0  0  0  0  0
    0.4165    0.1234    0.0000 C   0  0  0  0  0  0  0  0  0
    1.2392    0.1850    0.0000 N   0  0  0  0  0  0  0  0  0
    1.7040   -0.4966    0.0000 C   0  0  0  0  0  0  0  0  0
    1.3460   -1.2399    0.0000 C   0  0  0  0  0  0  0  0  0
    1.5972    0.9283    0.0000 C   0  0  0  0  0  0  0  0  0
    0.6797   -2.6899    0.0000 C   0  0  0  0  0  0  0  0  0
    0.4962   -3.4942    0.0000 C   0  0  0  0  0  0  0  0  0
   -0.2471   -3.8522    0.0000 N   0  0  0  0  0  0  0  0  0
   -0.2471   -4.6772    0.0000 N   0  0  0  0  0  0  0  0  0
    0.4673   -5.0897    0.0000 C   0  0  0  0  0  0  0  0  0
    1.1818   -4.6772    0.0000 O   0  0  0  0  0  0  0  0  0
    0.4673   -5.9147    0.0000 C   0  0  0  0  0  0  0  0  0
    1.1818   -6.3272    0.0000 C   0  0  0  0  0  0  0  0  0
    1.1818   -7.1522    0.0000 C   0  0  0  0  0  0  0  0  0
    1.8963   -7.5647    0.0000 O   0  0  0  0  0  0  0  0  0
    2.6107   -7.1522    0.0000 C   0  0  0  0  0  0  0  0  0
    0.4673   -7.5647    0.0000 C   0  0  0  0  0  0  0  0  0
   -0.2471   -7.1522    0.0000 C   0  0  0  0  0  0  0  0  0
   -0.2471   -6.3272    0.0000 C   0  0  0  0  0  0  0  0  0
   -0.9904   -3.4942    0.0000 C   0  0  0  0  0  0  0  0  0
   -1.5952   -4.0553    0.0000 C   0  0  0  0  0  0  0  0  0
   -2.3836   -3.8122    0.0000 C   0  0  0  0  0  0  0  0  0
    1.1009   -4.0553    0.0000 C   0  0  0  0  0  0  0  0  0
    1.8893   -3.8122    0.0000 C   0  0  0  0  0  0  0  0  0
    2.0728   -3.0079    0.0000 C   0  0  0  0  0  0  0  0  0
    1.4681   -2.4467    0.0000 C   0  0  0  0  0  0  0  0  0
  1  2  1  0  0  0  0
  2  3  4  0  0  0  0
  2 30  4  0  0  0  0
  3  4  4  0  0  0  0
  4  5  1  0  0  0  0
  4 28  4  0  0  0  0
  5  6  2  0  0  0  0
  6  7  1  0  0  0  0
  6 14  1  0  0  0  0
  7  8  1  0  0  0  0
  7 12  1  0  0  0  0
  8  9  1  0  0  0  0
  9 10  1  0  0  0  0
 10 11  1  0  0  0  0
 10 13  1  0  0  0  0
 11 12  1  0  0  0  0
 14 15  4  0  0  0  0
 14 34  4  0  0  0  0
 15 16  1  0  0  0  0
 15 31  4  0  0  0  0
 16 17  1  0  0  0  0
 16 28  1  0  0  0  0
 17 18  1  0  0  0  0
 18 19  2  0  0  0  0
 18 20  1  0  0  0  0
 20 21  4  0  0  0  0
 20 27  4  0  0  0  0
 21 22  4  0  0  0  0
 22 23  1  0  0  0  0
 22 25  4  0  0  0  0
 23 24  1  0  0  0  0
 25 26  4  0  0  0  0
 26 27  4  0  0  0  0
 28 29  4  0  0  0  0
 29 30  4  0  0  0  0
 31 32  4  0  0  0  0
 32 33  4  0  0  0  0
 33 34  4  0  0  0  0
M  END
>  <Name_Molregno>
357054

>  <DOPAMINE D1>
7.89

>  <DOPAMINE D2>
5.95

$$$$
357078
  Marvin  02231216192D 0   1.00000     0.00000     0

 33 37  0  0  0  0  0  0  0  0999 V2000
   -4.6390   -2.6254    0.0000 Cl  0  0  0  0  0  0  0  0  0
   -3.8506   -2.8686    0.0000 C   0  0  0  0  0  0  0  0  0
   -3.2459   -2.3075    0.0000 C   0  0  0  0  0  0  0  0  0
   -2.4575   -2.5506    0.0000 C   0  0  0  0  0  0  0  0  0
   -1.9431   -1.9056    0.0000 N   0  0  0  0  0  0  0  0  0
   -1.1181   -1.9056    0.0000 C   0  0  0  0  0  0  0  0  0
   -0.7602   -1.1623    0.0000 N   0  0  0  0  0  0  0  0  0
   -1.2249   -0.4807    0.0000 C   0  0  0  0  0  0  0  0  0
   -0.8670    0.2626    0.0000 C   0  0  0  0  0  0  0  0  0
   -0.0443    0.3243    0.0000 N   0  0  0  0  0  0  0  0  0
    0.4205   -0.3574    0.0000 C   0  0  0  0  0  0  0  0  0
    0.0625   -1.1007    0.0000 C   0  0  0  0  0  0  0  0  0
    0.3137    1.0676    0.0000 C   0  0  0  0  0  0  0  0  0
   -0.6038   -2.5506    0.0000 C   0  0  0  0  0  0  0  0  0
   -0.7873   -3.3549    0.0000 C   0  0  0  0  0  0  0  0  0
   -1.5306   -3.7129    0.0000 N   0  0  0  0  0  0  0  0  0
   -1.5306   -4.5379    0.0000 N   0  0  0  0  0  0  0  0  0
   -0.8162   -4.9504    0.0000 C   0  0  0  0  0  0  0  0  0
   -0.1017   -4.5379    0.0000 O   0  0  0  0  0  0  0  0  0
   -0.8162   -5.7754    0.0000 C   0  0  0  0  0  0  0  0  0
   -0.1017   -6.1879    0.0000 C   0  0  0  0  0  0  0  0  0
   -0.1017   -7.0129    0.0000 C   0  0  0  0  0  0  0  0  0
    0.6128   -7.4254    0.0000 F   0  0  0  0  0  0  0  0  0
   -0.8162   -7.4254    0.0000 C   0  0  0  0  0  0  0  0  0
   -1.5306   -7.0129    0.0000 C   0  0  0  0  0  0  0  0  0
   -1.5306   -6.1879    0.0000 C   0  0  0  0  0  0  0  0  0
   -2.2739   -3.3549    0.0000 C   0  0  0  0  0  0  0  0  0
   -2.8787   -3.9161    0.0000 C   0  0  0  0  0  0  0  0  0
   -3.6670   -3.6729    0.0000 C   0  0  0  0  0  0  0  0  0
   -0.1826   -3.9161    0.0000 C   0  0  0  0  0  0  0  0  0
    0.6058   -3.6729    0.0000 C   0  0  0  0  0  0  0  0  0
    0.7894   -2.8686    0.0000 C   0  0  0  0  0  0  0  0  0
    0.1846   -2.3075    0.0000 C   0  0  0  0  0  0  0  0  0
  1  2  1  0  0  0  0
  2  3  4  0  0  0  0
  2 29  4  0  0  0  0
  3  4  4  0  0  0  0
  4  5  1  0  0  0  0
  4 27  4  0  0  0  0
  5  6  2  0  0  0  0
  6  7  1  0  0  0  0
  6 14  1  0  0  0  0
  7  8  1  0  0  0  0
  7 12  1  0  0  0  0
  8  9  1  0  0  0  0
  9 10  1  0  0  0  0
 10 11  1  0  0  0  0
 10 13  1  0  0  0  0
 11 12  1  0  0  0  0
 14 15  4  0  0  0  0
 14 33  4  0  0  0  0
 15 16  1  0  0  0  0
 15 30  4  0  0  0  0
 16 17  1  0  0  0  0
 16 27  1  0  0  0  0
 17 18  1  0  0  0  0
 18 19  2  0  0  0  0
 18 20  1  0  0  0  0
 20 21  4  0  0  0  0
 20 26  4  0  0  0  0
 21 22  4  0  0  0  0
 22 23  1  0  0  0  0
 22 24  4  0  0  0  0
 24 25  4  0  0  0  0
 25 26  4  0  0  0  0
 27 28  4  0  0  0  0
 28 29  4  0  0  0  0
 30 31  4  0  0  0  0
 31 32  4  0  0  0  0
 32 33  4  0  0  0  0
M  END
>  <Name_Molregno>
357078

>  <DOPAMINE D1>
7.33

>  <DOPAMINE D2>
6.04

$$$$
357079
  Marvin  02231216192D 0   1.00000     0.00000     0

 33 37  0  0  0  0  0  0  0  0999 V2000
    5.1695    3.7921    0.0000 Cl  0  0  0  0  0  0  0  0  0
    4.4550    3.3796    0.0000 C   0  0  0  0  0  0  0  0  0
    4.4550    2.5546    0.0000 C   0  0  0  0  0  0  0  0  0
    3.7405    2.1421    0.0000 C   0  0  0  0  0  0  0  0  0
    3.0261    2.5546    0.0000 C   0  0  0  0  0  0  0  0  0
    3.0261    3.3796    0.0000 C   0  0  0  0  0  0  0  0  0
    3.7405    3.7921    0.0000 C   0  0  0  0  0  0  0  0  0
    3.7405    1.3171    0.0000 C   0  0  0  0  0  0  0  0  0
    3.0261    0.9046    0.0000 O   0  0  0  0  0  0  0  0  0
    4.4550    0.9046    0.0000 N   0  0  0  0  0  0  0  0  0
    4.4550    0.0796    0.0000 N   0  0  0  0  0  0  0  0  0
    5.1983   -0.2783    0.0000 C   0  0  0  0  0  0  0  0  0
    5.3819   -1.0827    0.0000 C   0  0  0  0  0  0  0  0  0
    6.1702   -1.3258    0.0000 C   0  0  0  0  0  0  0  0  0
    6.7750   -0.7647    0.0000 C   0  0  0  0  0  0  0  0  0
    6.5914    0.0396    0.0000 C   0  0  0  0  0  0  0  0  0
    5.8031    0.2828    0.0000 C   0  0  0  0  0  0  0  0  0
    4.8675   -1.7277    0.0000 C   0  0  0  0  0  0  0  0  0
    4.0425   -1.7277    0.0000 N   0  0  0  0  0  0  0  0  0
    3.5281   -1.0827    0.0000 C   0  0  0  0  0  0  0  0  0
    2.7398   -1.3258    0.0000 C   0  0  0  0  0  0  0  0  0
    2.1350   -0.7647    0.0000 C   0  0  0  0  0  0  0  0  0
    1.3467   -1.0079    0.0000 Cl  0  0  0  0  0  0  0  0  0
    2.3186    0.0396    0.0000 C   0  0  0  0  0  0  0  0  0
    3.1069    0.2828    0.0000 C   0  0  0  0  0  0  0  0  0
    3.7117   -0.2783    0.0000 C   0  0  0  0  0  0  0  0  0
    5.2255   -2.4710    0.0000 N   0  0  0  0  0  0  0  0  0
    6.0482   -2.5326    0.0000 C   0  0  0  0  0  0  0  0  0
    6.4061   -3.2759    0.0000 C   0  0  0  0  0  0  0  0  0
    5.9414   -3.9576    0.0000 N   0  0  0  0  0  0  0  0  0
    5.1187   -3.8959    0.0000 C   0  0  0  0  0  0  0  0  0
    4.7607   -3.1526    0.0000 C   0  0  0  0  0  0  0  0  0
    6.2993   -4.7009    0.0000 C   0  0  0  0  0  0  0  0  0
  1  2  1  0  0  0  0
  2  3  4  0  0  0  0
  2  7  4  0  0  0  0
  3  4  4  0  0  0  0
  4  5  4  0  0  0  0
  4  8  1  0  0  0  0
  5  6  4  0  0  0  0
  6  7  4  0  0  0  0
  8  9  2  0  0  0  0
  8 10  1  0  0  0  0
 10 11  1  0  0  0  0
 11 12  1  0  0  0  0
 11 26  1  0  0  0  0
 12 13  4  0  0  0  0
 12 17  4  0  0  0  0
 13 14  4  0  0  0  0
 13 18  1  0  0  0  0
 14 15  4  0  0  0  0
 15 16  4  0  0  0  0
 16 17  4  0  0  0  0
 18 19  2  0  0  0  0
 18 27  1  0  0  0  0
 19 20  1  0  0  0  0
 20 21  4  0  0  0  0
 20 26  4  0  0  0  0
 21 22  4  0  0  0  0
 22 23  1  0  0  0  0
 22 24  4  0  0  0  0
 24 25  4  0  0  0  0
 25 26  4  0  0  0  0
 27 28  1  0  0  0  0
 27 32  1  0  0  0  0
 28 29  1  0  0  0  0
 29 30  1  0  0  0  0
 30 31  1  0  0  0  0
 30 33  1  0  0  0  0
 31 32  1  0  0  0  0
M  END
>  <Name_Molregno>
357079

>  <DOPAMINE D1>
8.4

>  <DOPAMINE D2>
6.74

$$$$
357114
  Marvin  02231216192D 0   1.00000     0.00000     0

 32 36  0  0  0  0  0  0  0  0999 V2000
   -3.9655   -2.8233    0.0000 Cl  0  0  0  0  0  0  0  0  0
   -3.1771   -3.0665    0.0000 C   0  0  0  0  0  0  0  0  0
   -2.5724   -2.5053    0.0000 C   0  0  0  0  0  0  0  0  0
   -1.7840   -2.7485    0.0000 C   0  0  0  0  0  0  0  0  0
   -1.2696   -2.1035    0.0000 N   0  0  0  0  0  0  0  0  0
   -0.4446   -2.1035    0.0000 C   0  0  0  0  0  0  0  0  0
   -0.0867   -1.3602    0.0000 N   0  0  0  0  0  0  0  0  0
   -0.5514   -0.6785    0.0000 C   0  0  0  0  0  0  0  0  0
   -0.1935    0.0648    0.0000 C   0  0  0  0  0  0  0  0  0
    0.6292    0.1264    0.0000 N   0  0  0  0  0  0  0  0  0
    1.0940   -0.5552    0.0000 C   0  0  0  0  0  0  0  0  0
    0.7360   -1.2985    0.0000 C   0  0  0  0  0  0  0  0  0
    0.9872    0.8697    0.0000 C   0  0  0  0  0  0  0  0  0
    0.0697   -2.7485    0.0000 C   0  0  0  0  0  0  0  0  0
   -0.1138   -3.5528    0.0000 C   0  0  0  0  0  0  0  0  0
   -0.8571   -3.9108    0.0000 N   0  0  0  0  0  0  0  0  0
   -0.8571   -4.7358    0.0000 N   0  0  0  0  0  0  0  0  0
   -0.1427   -5.1483    0.0000 C   0  0  0  0  0  0  0  0  0
    0.5718   -4.7358    0.0000 O   0  0  0  0  0  0  0  0  0
   -0.1427   -5.9733    0.0000 C   0  0  0  0  0  0  0  0  0
    0.5718   -6.3858    0.0000 C   0  0  0  0  0  0  0  0  0
    0.5718   -7.2108    0.0000 C   0  0  0  0  0  0  0  0  0
   -0.1427   -7.6233    0.0000 C   0  0  0  0  0  0  0  0  0
   -0.8571   -7.2108    0.0000 C   0  0  0  0  0  0  0  0  0
   -0.8571   -6.3858    0.0000 C   0  0  0  0  0  0  0  0  0
   -1.6004   -3.5528    0.0000 C   0  0  0  0  0  0  0  0  0
   -2.2052   -4.1139    0.0000 C   0  0  0  0  0  0  0  0  0
   -2.9936   -3.8708    0.0000 C   0  0  0  0  0  0  0  0  0
    0.4909   -4.1139    0.0000 C   0  0  0  0  0  0  0  0  0
    1.2793   -3.8708    0.0000 C   0  0  0  0  0  0  0  0  0
    1.4629   -3.0665    0.0000 C   0  0  0  0  0  0  0  0  0
    0.8581   -2.5053    0.0000 C   0  0  0  0  0  0  0  0  0
  1  2  1  0  0  0  0
  2  3  4  0  0  0  0
  2 28  4  0  0  0  0
  3  4  4  0  0  0  0
  4  5  1  0  0  0  0
  4 26  4  0  0  0  0
  5  6  2  0  0  0  0
  6  7  1  0  0  0  0
  6 14  1  0  0  0  0
  7  8  1  0  0  0  0
  7 12  1  0  0  0  0
  8  9  1  0  0  0  0
  9 10  1  0  0  0  0
 10 11  1  0  0  0  0
 10 13  1  0  0  0  0
 11 12  1  0  0  0  0
 14 15  4  0  0  0  0
 14 32  4  0  0  0  0
 15 16  1  0  0  0  0
 15 29  4  0  0  0  0
 16 17  1  0  0  0  0
 16 26  1  0  0  0  0
 17 18  1  0  0  0  0
 18 19  2  0  0  0  0
 18 20  1  0  0  0  0
 20 21  4  0  0  0  0
 20 25  4  0  0  0  0
 21 22  4  0  0  0  0
 22 23  4  0  0  0  0
 23 24  4  0  0  0  0
 24 25  4  0  0  0  0
 26 27  4  0  0  0  0
 27 28  4  0  0  0  0
 29 30  4  0  0  0  0
 30 31  4  0  0  0  0
 31 32  4  0  0  0  0
M  END
>  <Name_Molregno>
357114

>  <DOPAMINE D1>
6.99

>  <DOPAMINE D2>
5.88

$$$$
357115
  Marvin  02231216192D 0   1.00000     0.00000     0

 33 37  0  0  0  0  0  0  0  0999 V2000
    5.1695    3.7921    0.0000 I   0  0  0  0  0  0  0  0  0
    4.4550    3.3796    0.0000 C   0  0  0  0  0  0  0  0  0
    4.4550    2.5546    0.0000 C   0  0  0  0  0  0  0  0  0
    3.7405    2.1421    0.0000 C   0  0  0  0  0  0  0  0  0
    3.0261    2.5546    0.0000 C   0  0  0  0  0  0  0  0  0
    3.0261    3.3796    0.0000 C   0  0  0  0  0  0  0  0  0
    3.7405    3.7921    0.0000 C   0  0  0  0  0  0  0  0  0
    3.7405    1.3171    0.0000 C   0  0  0  0  0  0  0  0  0
    3.0261    0.9046    0.0000 O   0  0  0  0  0  0  0  0  0
    4.4550    0.9046    0.0000 N   0  0  0  0  0  0  0  0  0
    4.4550    0.0796    0.0000 N   0  0  0  0  0  0  0  0  0
    5.1983   -0.2783    0.0000 C   0  0  0  0  0  0  0  0  0
    5.3819   -1.0827    0.0000 C   0  0  0  0  0  0  0  0  0
    6.1702   -1.3258    0.0000 C   0  0  0  0  0  0  0  0  0
    6.7750   -0.7647    0.0000 C   0  0  0  0  0  0  0  0  0
    6.5914    0.0396    0.0000 C   0  0  0  0  0  0  0  0  0
    5.8031    0.2828    0.0000 C   0  0  0  0  0  0  0  0  0
    4.8675   -1.7277    0.0000 C   0  0  0  0  0  0  0  0  0
    4.0425   -1.7277    0.0000 N   0  0  0  0  0  0  0  0  0
    3.5281   -1.0827    0.0000 C   0  0  0  0  0  0  0  0  0
    2.7398   -1.3258    0.0000 C   0  0  0  0  0  0  0  0  0
    2.1350   -0.7647    0.0000 C   0  0  0  0  0  0  0  0  0
    1.3467   -1.0079    0.0000 Cl  0  0  0  0  0  0  0  0  0
    2.3186    0.0396    0.0000 C   0  0  0  0  0  0  0  0  0
    3.1069    0.2828    0.0000 C   0  0  0  0  0  0  0  0  0
    3.7117   -0.2783    0.0000 C   0  0  0  0  0  0  0  0  0
    5.2255   -2.4710    0.0000 N   0  0  0  0  0  0  0  0  0
    6.0482   -2.5326    0.0000 C   0  0  0  0  0  0  0  0  0
    6.4061   -3.2759    0.0000 C   0  0  0  0  0  0  0  0  0
    5.9414   -3.9576    0.0000 N   0  0  0  0  0  0  0  0  0
    5.1187   -3.8959    0.0000 C   0  0  0  0  0  0  0  0  0
    4.7607   -3.1526    0.0000 C   0  0  0  0  0  0  0  0  0
    6.2993   -4.7009    0.0000 C   0  0  0  0  0  0  0  0  0
  1  2  1  0  0  0  0
  2  3  4  0  0  0  0
  2  7  4  0  0  0  0
  3  4  4  0  0  0  0
  4  5  4  0  0  0  0
  4  8  1  0  0  0  0
  5  6  4  0  0  0  0
  6  7  4  0  0  0  0
  8  9  2  0  0  0  0
  8 10  1  0  0  0  0
 10 11  1  0  0  0  0
 11 12  1  0  0  0  0
 11 26  1  0  0  0  0
 12 13  4  0  0  0  0
 12 17  4  0  0  0  0
 13 14  4  0  0  0  0
 13 18  1  0  0  0  0
 14 15  4  0  0  0  0
 15 16  4  0  0  0  0
 16 17  4  0  0  0  0
 18 19  2  0  0  0  0
 18 27  1  0  0  0  0
 19 20  1  0  0  0  0
 20 21  4  0  0  0  0
 20 26  4  0  0  0  0
 21 22  4  0  0  0  0
 22 23  1  0  0  0  0
 22 24  4  0  0  0  0
 24 25  4  0  0  0  0
 25 26  4  0  0  0  0
 27 28  1  0  0  0  0
 27 32  1  0  0  0  0
 28 29  1  0  0  0  0
 29 30  1  0  0  0  0
 30 31  1  0  0  0  0
 30 33  1  0  0  0  0
 31 32  1  0  0  0  0
M  END
>  <Name_Molregno>
357115

>  <DOPAMINE D1>
8.44

>  <DOPAMINE D2>
6.46

$$$$
357143
  Marvin  02231216192D 0   1.00000     0.00000     0

 33 37  0  0  0  0  0  0  0  0999 V2000
    4.1057    5.5032    0.0000 Br  0  0  0  0  0  0  0  0  0
    4.1057    4.6782    0.0000 C   0  0  0  0  0  0  0  0  0
    4.8201    4.2657    0.0000 C   0  0  0  0  0  0  0  0  0
    4.8201    3.4407    0.0000 C   0  0  0  0  0  0  0  0  0
    4.1057    3.0282    0.0000 C   0  0  0  0  0  0  0  0  0
    3.3912    3.4407    0.0000 C   0  0  0  0  0  0  0  0  0
    3.3912    4.2657    0.0000 C   0  0  0  0  0  0  0  0  0
    4.1057    2.2032    0.0000 C   0  0  0  0  0  0  0  0  0
    3.3912    1.7907    0.0000 O   0  0  0  0  0  0  0  0  0
    4.8201    1.7907    0.0000 N   0  0  0  0  0  0  0  0  0
    4.8201    0.9657    0.0000 N   0  0  0  0  0  0  0  0  0
    5.5634    0.6077    0.0000 C   0  0  0  0  0  0  0  0  0
    5.7470   -0.1966    0.0000 C   0  0  0  0  0  0  0  0  0
    6.5354   -0.4398    0.0000 C   0  0  0  0  0  0  0  0  0
    7.1401    0.1214    0.0000 C   0  0  0  0  0  0  0  0  0
    6.9565    0.9257    0.0000 C   0  0  0  0  0  0  0  0  0
    6.1682    1.1689    0.0000 C   0  0  0  0  0  0  0  0  0
    5.2326   -0.8416    0.0000 C   0  0  0  0  0  0  0  0  0
    4.4076   -0.8416    0.0000 N   0  0  0  0  0  0  0  0  0
    3.8933   -0.1966    0.0000 C   0  0  0  0  0  0  0  0  0
    3.1049   -0.4398    0.0000 C   0  0  0  0  0  0  0  0  0
    2.5001    0.1214    0.0000 C   0  0  0  0  0  0  0  0  0
    1.7118   -0.1218    0.0000 Cl  0  0  0  0  0  0  0  0  0
    2.6837    0.9257    0.0000 C   0  0  0  0  0  0  0  0  0
    3.4721    1.1689    0.0000 C   0  0  0  0  0  0  0  0  0
    4.0768    0.6077    0.0000 C   0  0  0  0  0  0  0  0  0
    5.5906   -1.5849    0.0000 N   0  0  0  0  0  0  0  0  0
    6.4133   -1.6466    0.0000 C   0  0  0  0  0  0  0  0  0
    6.7712   -2.3899    0.0000 C   0  0  0  0  0  0  0  0  0
    6.3065   -3.0715    0.0000 N   0  0  0  0  0  0  0  0  0
    5.4838   -3.0099    0.0000 C   0  0  0  0  0  0  0  0  0
    5.1258   -2.2666    0.0000 C   0  0  0  0  0  0  0  0  0
    6.6644   -3.8148    0.0000 C   0  0  0  0  0  0  0  0  0
  1  2  1  0  0  0  0
  2  3  4  0  0  0  0
  2  7  4  0  0  0  0
  3  4  4  0  0  0  0
  4  5  4  0  0  0  0
  5  6  4  0  0  0  0
  5  8  1  0  0  0  0
  6  7  4  0  0  0  0
  8  9  2  0  0  0  0
  8 10  1  0  0  0  0
 10 11  1  0  0  0  0
 11 12  1  0  0  0  0
 11 26  1  0  0  0  0
 12 13  4  0  0  0  0
 12 17  4  0  0  0  0
 13 14  4  0  0  0  0
 13 18  1  0  0  0  0
 14 15  4  0  0  0  0
 15 16  4  0  0  0  0
 16 17  4  0  0  0  0
 18 19  2  0  0  0  0
 18 27  1  0  0  0  0
 19 20  1  0  0  0  0
 20 21  4  0  0  0  0
 20 26  4  0  0  0  0
 21 22  4  0  0  0  0
 22 23  1  0  0  0  0
 22 24  4  0  0  0  0
 24 25  4  0  0  0  0
 25 26  4  0  0  0  0
 27 28  1  0  0  0  0
 27 32  1  0  0  0  0
 28 29  1  0  0  0  0
 29 30  1  0  0  0  0
 30 31  1  0  0  0  0
 30 33  1  0  0  0  0
 31 32  1  0  0  0  0
M  END
>  <Name_Molregno>
357143

>  <DOPAMINE D1>
7.85

>  <DOPAMINE D2>
5.62

$$$$
357170
  Marvin  02231216192D 0   1.00000     0.00000     0

 33 37  0  0  0  0  0  0  0  0999 V2000
    4.1057    5.5032    0.0000 Cl  0  0  0  0  0  0  0  0  0
    4.1057    4.6782    0.0000 C   0  0  0  0  0  0  0  0  0
    4.8201    4.2657    0.0000 C   0  0  0  0  0  0  0  0  0
    4.8201    3.4407    0.0000 C   0  0  0  0  0  0  0  0  0
    4.1057    3.0282    0.0000 C   0  0  0  0  0  0  0  0  0
    3.3912    3.4407    0.0000 C   0  0  0  0  0  0  0  0  0
    3.3912    4.2657    0.0000 C   0  0  0  0  0  0  0  0  0
    4.1057    2.2032    0.0000 C   0  0  0  0  0  0  0  0  0
    3.3912    1.7907    0.0000 O   0  0  0  0  0  0  0  0  0
    4.8201    1.7907    0.0000 N   0  0  0  0  0  0  0  0  0
    4.8201    0.9657    0.0000 N   0  0  0  0  0  0  0  0  0
    5.5634    0.6077    0.0000 C   0  0  0  0  0  0  0  0  0
    5.7470   -0.1966    0.0000 C   0  0  0  0  0  0  0  0  0
    6.5354   -0.4398    0.0000 C   0  0  0  0  0  0  0  0  0
    7.1401    0.1214    0.0000 C   0  0  0  0  0  0  0  0  0
    6.9565    0.9257    0.0000 C   0  0  0  0  0  0  0  0  0
    6.1682    1.1689    0.0000 C   0  0  0  0  0  0  0  0  0
    5.2326   -0.8416    0.0000 C   0  0  0  0  0  0  0  0  0
    4.4076   -0.8416    0.0000 N   0  0  0  0  0  0  0  0  0
    3.8933   -0.1966    0.0000 C   0  0  0  0  0  0  0  0  0
    3.1049   -0.4398    0.0000 C   0  0  0  0  0  0  0  0  0
    2.5001    0.1214    0.0000 C   0  0  0  0  0  0  0  0  0
    1.7118   -0.1218    0.0000 Cl  0  0  0  0  0  0  0  0  0
    2.6837    0.9257    0.0000 C   0  0  0  0  0  0  0  0  0
    3.4721    1.1689    0.0000 C   0  0  0  0  0  0  0  0  0
    4.0768    0.6077    0.0000 C   0  0  0  0  0  0  0  0  0
    5.5906   -1.5849    0.0000 N   0  0  0  0  0  0  0  0  0
    6.4133   -1.6466    0.0000 C   0  0  0  0  0  0  0  0  0
    6.7712   -2.3899    0.0000 C   0  0  0  0  0  0  0  0  0
    6.3065   -3.0715    0.0000 N   0  0  0  0  0  0  0  0  0
    5.4838   -3.0099    0.0000 C   0  0  0  0  0  0  0  0  0
    5.1258   -2.2666    0.0000 C   0  0  0  0  0  0  0  0  0
    6.6644   -3.8148    0.0000 C   0  0  0  0  0  0  0  0  0
  1  2  1  0  0  0  0
  2  3  4  0  0  0  0
  2  7  4  0  0  0  0
  3  4  4  0  0  0  0
  4  5  4  0  0  0  0
  5  6  4  0  0  0  0
  5  8  1  0  0  0  0
  6  7  4  0  0  0  0
  8  9  2  0  0  0  0
  8 10  1  0  0  0  0
 10 11  1  0  0  0  0
 11 12  1  0  0  0  0
 11 26  1  0  0  0  0
 12 13  4  0  0  0  0
 12 17  4  0  0  0  0
 13 14  4  0  0  0  0
 13 18  1  0  0  0  0
 14 15  4  0  0  0  0
 15 16  4  0  0  0  0
 16 17  4  0  0  0  0
 18 19  2  0  0  0  0
 18 27  1  0  0  0  0
 19 20  1  0  0  0  0
 20 21  4  0  0  0  0
 20 26  4  0  0  0  0
 21 22  4  0  0  0  0
 22 23  1  0  0  0  0
 22 24  4  0  0  0  0
 24 25  4  0  0  0  0
 25 26  4  0  0  0  0
 27 28  1  0  0  0  0
 27 32  1  0  0  0  0
 28 29  1  0  0  0  0
 29 30  1  0  0  0  0
 30 31  1  0  0  0  0
 30 33  1  0  0  0  0
 31 32  1  0  0  0  0
M  END
>  <Name_Molregno>
357170

>  <DOPAMINE D1>
7.46

>  <DOPAMINE D2>
5.03

$$$$
357171
  Marvin  02231216192D 0   1.00000     0.00000     0

 33 37  0  0  0  0  0  0  0  0999 V2000
   -4.1058   -2.6874    0.0000 Cl  0  0  0  0  0  0  0  0  0
   -3.3174   -2.9306    0.0000 C   0  0  0  0  0  0  0  0  0
   -2.7126   -2.3695    0.0000 C   0  0  0  0  0  0  0  0  0
   -1.9243   -2.6126    0.0000 C   0  0  0  0  0  0  0  0  0
   -1.4099   -1.9676    0.0000 N   0  0  0  0  0  0  0  0  0
   -0.5849   -1.9676    0.0000 C   0  0  0  0  0  0  0  0  0
   -0.2270   -1.2243    0.0000 N   0  0  0  0  0  0  0  0  0
   -0.6917   -0.5427    0.0000 C   0  0  0  0  0  0  0  0  0
   -0.3337    0.2006    0.0000 C   0  0  0  0  0  0  0  0  0
    0.4890    0.2623    0.0000 N   0  0  0  0  0  0  0  0  0
    0.9537   -0.4194    0.0000 C   0  0  0  0  0  0  0  0  0
    0.5957   -1.1627    0.0000 C   0  0  0  0  0  0  0  0  0
    0.8469    1.0056    0.0000 C   0  0  0  0  0  0  0  0  0
   -0.0705   -2.6126    0.0000 C   0  0  0  0  0  0  0  0  0
   -0.2541   -3.4170    0.0000 C   0  0  0  0  0  0  0  0  0
   -0.9974   -3.7749    0.0000 N   0  0  0  0  0  0  0  0  0
   -0.9974   -4.5999    0.0000 N   0  0  0  0  0  0  0  0  0
   -0.2829   -5.0124    0.0000 C   0  0  0  0  0  0  0  0  0
    0.4315   -4.5999    0.0000 O   0  0  0  0  0  0  0  0  0
   -0.2829   -5.8374    0.0000 C   0  0  0  0  0  0  0  0  0
    0.4315   -6.2499    0.0000 C   0  0  0  0  0  0  0  0  0
    0.4315   -7.0749    0.0000 C   0  0  0  0  0  0  0  0  0
   -0.2829   -7.4874    0.0000 C   0  0  0  0  0  0  0  0  0
   -0.9974   -7.0749    0.0000 C   0  0  0  0  0  0  0  0  0
   -0.9974   -6.2499    0.0000 C   0  0  0  0  0  0  0  0  0
   -0.2829   -8.3124    0.0000 C   0  0  0  0  0  0  0  0  0
   -1.7407   -3.4170    0.0000 C   0  0  0  0  0  0  0  0  0
   -2.3455   -3.9781    0.0000 C   0  0  0  0  0  0  0  0  0
   -3.1338   -3.7349    0.0000 C   0  0  0  0  0  0  0  0  0
    0.3507   -3.9781    0.0000 C   0  0  0  0  0  0  0  0  0
    1.1390   -3.7349    0.0000 C   0  0  0  0  0  0  0  0  0
    1.3226   -2.9306    0.0000 C   0  0  0  0  0  0  0  0  0
    0.7178   -2.3695    0.0000 C   0  0  0  0  0  0  0  0  0
  1  2  1  0  0  0  0
  2  3  4  0  0  0  0
  2 29  4  0  0  0  0
  3  4  4  0  0  0  0
  4  5  1  0  0  0  0
  4 27  4  0  0  0  0
  5  6  2  0  0  0  0
  6  7  1  0  0  0  0
  6 14  1  0  0  0  0
  7  8  1  0  0  0  0
  7 12  1  0  0  0  0
  8  9  1  0  0  0  0
  9 10  1  0  0  0  0
 10 11  1  0  0  0  0
 10 13  1  0  0  0  0
 11 12  1  0  0  0  0
 14 15  4  0  0  0  0
 14 33  4  0  0  0  0
 15 16  1  0  0  0  0
 15 30  4  0  0  0  0
 16 17  1  0  0  0  0
 16 27  1  0  0  0  0
 17 18  1  0  0  0  0
 18 19  2  0  0  0  0
 18 20  1  0  0  0  0
 20 21  4  0  0  0  0
 20 25  4  0  0  0  0
 21 22  4  0  0  0  0
 22 23  4  0  0  0  0
 23 24  4  0  0  0  0
 23 26  1  0  0  0  0
 24 25  4  0  0  0  0
 27 28  4  0  0  0  0
 28 29  4  0  0  0  0
 30 31  4  0  0  0  0
 31 32  4  0  0  0  0
 32 33  4  0  0  0  0
M  END
>  <Name_Molregno>
357171

>  <DOPAMINE D1>
8.11

>  <DOPAMINE D2>
5.82

$$$$
357181
  Marvin  02231216192D 0   1.00000     0.00000     0

 36 41  0  0  0  0  0  0  0  0999 V2000
   -1.6505   -2.3435    0.0000 Cl  0  0  0  0  0  0  0  0  0
   -0.8621   -2.5867    0.0000 C   0  0  0  0  0  0  0  0  0
   -0.2574   -2.0255    0.0000 C   0  0  0  0  0  0  0  0  0
    0.5310   -2.2687    0.0000 C   0  0  0  0  0  0  0  0  0
    1.0454   -1.6237    0.0000 N   0  0  0  0  0  0  0  0  0
    1.8704   -1.6237    0.0000 C   0  0  0  0  0  0  0  0  0
    2.2283   -0.8804    0.0000 N   0  0  0  0  0  0  0  0  0
    1.7636   -0.1988    0.0000 C   0  0  0  0  0  0  0  0  0
    2.1215    0.5445    0.0000 C   0  0  0  0  0  0  0  0  0
    2.9442    0.6062    0.0000 N   0  0  0  0  0  0  0  0  0
    3.4090   -0.0755    0.0000 C   0  0  0  0  0  0  0  0  0
    3.0510   -0.8188    0.0000 C   0  0  0  0  0  0  0  0  0
    3.3022    1.3495    0.0000 C   0  0  0  0  0  0  0  0  0
    2.3847   -2.2687    0.0000 C   0  0  0  0  0  0  0  0  0
    2.2012   -3.0730    0.0000 C   0  0  0  0  0  0  0  0  0
    1.4579   -3.4310    0.0000 N   0  0  0  0  0  0  0  0  0
    1.4579   -4.2560    0.0000 N   0  0  0  0  0  0  0  0  0
    0.7434   -4.6685    0.0000 C   0  0  0  0  0  0  0  0  0
    0.0289   -4.2560    0.0000 O   0  0  0  0  0  0  0  0  0
    0.7434   -5.4935    0.0000 C   0  0  0  0  0  0  0  0  0
    0.0289   -5.9060    0.0000 N   0  0  0  0  0  0  0  0  0
    0.0289   -6.7310    0.0000 C   0  0  0  0  0  0  0  0  0
    0.7434   -7.1435    0.0000 C   0  0  0  0  0  0  0  0  0
    1.4579   -6.7310    0.0000 C   0  0  0  0  0  0  0  0  0
    1.4579   -5.9060    0.0000 C   0  0  0  0  0  0  0  0  0
    0.7434   -7.9685    0.0000 C   0  0  0  0  0  0  0  0  0
    0.0289   -8.3810    0.0000 C   0  0  0  0  0  0  0  0  0
   -0.6856   -7.9685    0.0000 C   0  0  0  0  0  0  0  0  0
   -0.6856   -7.1435    0.0000 C   0  0  0  0  0  0  0  0  0
    0.7146   -3.0730    0.0000 C   0  0  0  0  0  0  0  0  0
    0.1098   -3.6342    0.0000 C   0  0  0  0  0  0  0  0  0
   -0.6786   -3.3910    0.0000 C   0  0  0  0  0  0  0  0  0
    2.8059   -3.6342    0.0000 C   0  0  0  0  0  0  0  0  0
    3.5943   -3.3910    0.0000 C   0  0  0  0  0  0  0  0  0
    3.7778   -2.5867    0.0000 C   0  0  0  0  0  0  0  0  0
    3.1731   -2.0255    0.0000 C   0  0  0  0  0  0  0  0  0
  1  2  1  0  0  0  0
  2  3  4  0  0  0  0
  2 32  4  0  0  0  0
  3  4  4  0  0  0  0
  4  5  1  0  0  0  0
  4 30  4  0  0  0  0
  5  6  2  0  0  0  0
  6  7  1  0  0  0  0
  6 14  1  0  0  0  0
  7  8  1  0  0  0  0
  7 12  1  0  0  0  0
  8  9  1  0  0  0  0
  9 10  1  0  0  0  0
 10 11  1  0  0  0  0
 10 13  1  0  0  0  0
 11 12  1  0  0  0  0
 14 15  4  0  0  0  0
 14 36  4  0  0  0  0
 15 16  1  0  0  0  0
 15 33  4  0  0  0  0
 16 17  1  0  0  0  0
 16 30  1  0  0  0  0
 17 18  1  0  0  0  0
 18 19  2  0  0  0  0
 18 20  1  0  0  0  0
 20 21  4  0  0  0  0
 20 25  4  0  0  0  0
 21 22  4  0  0  0  0
 22 23  4  0  0  0  0
 22 29  4  0  0  0  0
 23 24  4  0  0  0  0
 23 26  4  0  0  0  0
 24 25  4  0  0  0  0
 26 27  4  0  0  0  0
 27 28  4  0  0  0  0
 28 29  4  0  0  0  0
 30 31  4  0  0  0  0
 31 32  4  0  0  0  0
 33 34  4  0  0  0  0
 34 35  4  0  0  0  0
 35 36  4  0  0  0  0
M  END
>  <Name_Molregno>
357181

>  <DOPAMINE D1>
8

>  <DOPAMINE D2>
6.03

$$$$
357182
  Marvin  02231216192D 0   1.00000     0.00000     0

 36 41  0  0  0  0  0  0  0  0999 V2000
   -1.6505   -2.3435    0.0000 Cl  0  0  0  0  0  0  0  0  0
   -0.8621   -2.5867    0.0000 C   0  0  0  0  0  0  0  0  0
   -0.2574   -2.0255    0.0000 C   0  0  0  0  0  0  0  0  0
    0.5310   -2.2687    0.0000 C   0  0  0  0  0  0  0  0  0
    1.0454   -1.6237    0.0000 N   0  0  0  0  0  0  0  0  0
    1.8704   -1.6237    0.0000 C   0  0  0  0  0  0  0  0  0
    2.2283   -0.8804    0.0000 N   0  0  0  0  0  0  0  0  0
    1.7636   -0.1988    0.0000 C   0  0  0  0  0  0  0  0  0
    2.1215    0.5445    0.0000 C   0  0  0  0  0  0  0  0  0
    2.9442    0.6062    0.0000 N   0  0  0  0  0  0  0  0  0
    3.4090   -0.0755    0.0000 C   0  0  0  0  0  0  0  0  0
    3.0510   -0.8188    0.0000 C   0  0  0  0  0  0  0  0  0
    3.3022    1.3495    0.0000 C   0  0  0  0  0  0  0  0  0
    2.3847   -2.2687    0.0000 C   0  0  0  0  0  0  0  0  0
    2.2012   -3.0730    0.0000 C   0  0  0  0  0  0  0  0  0
    1.4579   -3.4310    0.0000 N   0  0  0  0  0  0  0  0  0
    1.4579   -4.2560    0.0000 N   0  0  0  0  0  0  0  0  0
    0.7434   -4.6685    0.0000 C   0  0  0  0  0  0  0  0  0
    0.0289   -4.2560    0.0000 O   0  0  0  0  0  0  0  0  0
    0.7434   -5.4935    0.0000 C   0  0  0  0  0  0  0  0  0
    0.0289   -5.9060    0.0000 C   0  0  0  0  0  0  0  0  0
    0.0289   -6.7310    0.0000 C   0  0  0  0  0  0  0  0  0
    0.7434   -7.1435    0.0000 C   0  0  0  0  0  0  0  0  0
    1.4579   -6.7310    0.0000 N   0  0  0  0  0  0  0  0  0
    1.4579   -5.9060    0.0000 C   0  0  0  0  0  0  0  0  0
    0.7434   -7.9685    0.0000 C   0  0  0  0  0  0  0  0  0
    0.0289   -8.3810    0.0000 C   0  0  0  0  0  0  0  0  0
   -0.6856   -7.9685    0.0000 C   0  0  0  0  0  0  0  0  0
   -0.6856   -7.1435    0.0000 C   0  0  0  0  0  0  0  0  0
    0.7146   -3.0730    0.0000 C   0  0  0  0  0  0  0  0  0
    0.1098   -3.6342    0.0000 C   0  0  0  0  0  0  0  0  0
   -0.6786   -3.3910    0.0000 C   0  0  0  0  0  0  0  0  0
    2.8059   -3.6342    0.0000 C   0  0  0  0  0  0  0  0  0
    3.5943   -3.3910    0.0000 C   0  0  0  0  0  0  0  0  0
    3.7778   -2.5867    0.0000 C   0  0  0  0  0  0  0  0  0
    3.1731   -2.0255    0.0000 C   0  0  0  0  0  0  0  0  0
  1  2  1  0  0  0  0
  2  3  4  0  0  0  0
  2 32  4  0  0  0  0
  3  4  4  0  0  0  0
  4  5  1  0  0  0  0
  4 30  4  0  0  0  0
  5  6  2  0  0  0  0
  6  7  1  0  0  0  0
  6 14  1  0  0  0  0
  7  8  1  0  0  0  0
  7 12  1  0  0  0  0
  8  9  1  0  0  0  0
  9 10  1  0  0  0  0
 10 11  1  0  0  0  0
 10 13  1  0  0  0  0
 11 12  1  0  0  0  0
 14 15  4  0  0  0  0
 14 36  4  0  0  0  0
 15 16  1  0  0  0  0
 15 33  4  0  0  0  0
 16 17  1  0  0  0  0
 16 30  1  0  0  0  0
 17 18  1  0  0  0  0
 18 19  2  0  0  0  0
 18 20  1  0  0  0  0
 20 21  4  0  0  0  0
 20 25  4  0  0  0  0
 21 22  4  0  0  0  0
 22 23  4  0  0  0  0
 22 29  4  0  0  0  0
 23 24  4  0  0  0  0
 23 26  4  0  0  0  0
 24 25  4  0  0  0  0
 26 27  4  0  0  0  0
 27 28  4  0  0  0  0
 28 29  4  0  0  0  0
 30 31  4  0  0  0  0
 31 32  4  0  0  0  0
 33 34  4  0  0  0  0
 34 35  4  0  0  0  0
 35 36  4  0  0  0  0
M  END
>  <Name_Molregno>
357182

>  <DOPAMINE D1>
7.55

$$$$
357183
  Marvin  02231216192D 0   1.00000     0.00000     0

 39 44  0  0  0  0  0  0  0  0999 V2000
   -3.5539   -2.7643    0.0000 Cl  0  0  0  0  0  0  0  0  0
   -2.7655   -3.0075    0.0000 C   0  0  0  0  0  0  0  0  0
   -2.1608   -2.4463    0.0000 C   0  0  0  0  0  0  0  0  0
   -1.3724   -2.6895    0.0000 C   0  0  0  0  0  0  0  0  0
   -0.8580   -2.0445    0.0000 N   0  0  0  0  0  0  0  0  0
   -0.0330   -2.0445    0.0000 C   0  0  0  0  0  0  0  0  0
    0.3249   -1.3012    0.0000 N   0  0  0  0  0  0  0  0  0
   -0.1398   -0.6196    0.0000 C   0  0  0  0  0  0  0  0  0
    0.2181    0.1237    0.0000 C   0  0  0  0  0  0  0  0  0
    1.0408    0.1854    0.0000 N   0  0  0  0  0  0  0  0  0
    1.5056   -0.4962    0.0000 C   0  0  0  0  0  0  0  0  0
    1.1476   -1.2395    0.0000 C   0  0  0  0  0  0  0  0  0
    1.3988    0.9287    0.0000 C   0  0  0  0  0  0  0  0  0
    0.4814   -2.6895    0.0000 C   0  0  0  0  0  0  0  0  0
    0.2978   -3.4938    0.0000 C   0  0  0  0  0  0  0  0  0
   -0.4455   -3.8518    0.0000 N   0  0  0  0  0  0  0  0  0
   -0.4455   -4.6768    0.0000 N   0  0  0  0  0  0  0  0  0
   -1.1600   -5.0893    0.0000 C   0  0  0  0  0  0  0  0  0
   -1.8745   -4.6768    0.0000 O   0  0  0  0  0  0  0  0  0
   -1.1600   -5.9143    0.0000 C   0  0  0  0  0  0  0  0  0
   -0.4455   -6.3268    0.0000 C   0  0  0  0  0  0  0  0  0
   -0.4455   -7.1518    0.0000 C   0  0  0  0  0  0  0  0  0
   -1.1600   -7.5643    0.0000 C   0  0  0  0  0  0  0  0  0
   -1.8745   -7.1518    0.0000 C   0  0  0  0  0  0  0  0  0
   -1.8745   -6.3268    0.0000 C   0  0  0  0  0  0  0  0  0
   -2.5889   -5.9143    0.0000 O   0  0  0  0  0  0  0  0  0
   -3.3034   -6.3268    0.0000 C   0  0  0  0  0  0  0  0  0
   -3.3034   -7.1518    0.0000 C   0  0  0  0  0  0  0  0  0
   -4.0179   -7.5643    0.0000 C   0  0  0  0  0  0  0  0  0
   -4.7323   -7.1518    0.0000 C   0  0  0  0  0  0  0  0  0
   -4.7323   -6.3268    0.0000 C   0  0  0  0  0  0  0  0  0
   -4.0179   -5.9143    0.0000 C   0  0  0  0  0  0  0  0  0
   -1.1888   -3.4938    0.0000 C   0  0  0  0  0  0  0  0  0
   -1.7936   -4.0550    0.0000 C   0  0  0  0  0  0  0  0  0
   -2.5819   -3.8118    0.0000 C   0  0  0  0  0  0  0  0  0
    0.9025   -4.0550    0.0000 C   0  0  0  0  0  0  0  0  0
    1.6909   -3.8118    0.0000 C   0  0  0  0  0  0  0  0  0
    1.8745   -3.0075    0.0000 C   0  0  0  0  0  0  0  0  0
    1.2697   -2.4463    0.0000 C   0  0  0  0  0  0  0  0  0
  1  2  1  0  0  0  0
  2  3  4  0  0  0  0
  2 35  4  0  0  0  0
  3  4  4  0  0  0  0
  4  5  1  0  0  0  0
  4 33  4  0  0  0  0
  5  6  2  0  0  0  0
  6  7  1  0  0  0  0
  6 14  1  0  0  0  0
  7  8  1  0  0  0  0
  7 12  1  0  0  0  0
  8  9  1  0  0  0  0
  9 10  1  0  0  0  0
 10 11  1  0  0  0  0
 10 13  1  0  0  0  0
 11 12  1  0  0  0  0
 14 15  4  0  0  0  0
 14 39  4  0  0  0  0
 15 16  1  0  0  0  0
 15 36  4  0  0  0  0
 16 17  1  0  0  0  0
 16 33  1  0  0  0  0
 17 18  1  0  0  0  0
 18 19  2  0  0  0  0
 18 20  1  0  0  0  0
 20 21  4  0  0  0  0
 20 25  4  0  0  0  0
 21 22  4  0  0  0  0
 22 23  4  0  0  0  0
 23 24  4  0  0  0  0
 24 25  4  0  0  0  0
 25 26  1  0  0  0  0
 26 27  1  0  0  0  0
 27 28  4  0  0  0  0
 27 32  4  0  0  0  0
 28 29  4  0  0  0  0
 29 30  4  0  0  0  0
 30 31  4  0  0  0  0
 31 32  4  0  0  0  0
 33 34  4  0  0  0  0
 34 35  4  0  0  0  0
 36 37  4  0  0  0  0
 37 38  4  0  0  0  0
 38 39  4  0  0  0  0
M  END
>  <Name_Molregno>
357183

>  <DOPAMINE D1>
7.29

>  <DOPAMINE D2>
6.37

$$$$
357192
  Marvin  02231216192D 0   1.00000     0.00000     0

 34 38  0  0  0  0  0  0  0  0999 V2000
   -4.8423   -2.5481    0.0000 Cl  0  0  0  0  0  0  0  0  0
   -4.0540   -2.7913    0.0000 C   0  0  0  0  0  0  0  0  0
   -3.4492   -2.2301    0.0000 C   0  0  0  0  0  0  0  0  0
   -2.6609   -2.4733    0.0000 C   0  0  0  0  0  0  0  0  0
   -2.1465   -1.8283    0.0000 N   0  0  0  0  0  0  0  0  0
   -1.3215   -1.8283    0.0000 C   0  0  0  0  0  0  0  0  0
   -0.9636   -1.0850    0.0000 N   0  0  0  0  0  0  0  0  0
   -1.4283   -0.4033    0.0000 C   0  0  0  0  0  0  0  0  0
   -1.0703    0.3400    0.0000 C   0  0  0  0  0  0  0  0  0
   -0.2476    0.4016    0.0000 N   0  0  0  0  0  0  0  0  0
    0.2171   -0.2800    0.0000 C   0  0  0  0  0  0  0  0  0
   -0.1409   -1.0233    0.0000 C   0  0  0  0  0  0  0  0  0
    0.1103    1.1449    0.0000 C   0  0  0  0  0  0  0  0  0
   -0.8071   -2.4733    0.0000 C   0  0  0  0  0  0  0  0  0
   -0.9907   -3.2776    0.0000 C   0  0  0  0  0  0  0  0  0
   -1.7340   -3.6356    0.0000 N   0  0  0  0  0  0  0  0  0
   -1.7340   -4.4606    0.0000 N   0  0  0  0  0  0  0  0  0
   -1.0195   -4.8731    0.0000 C   0  0  0  0  0  0  0  0  0
   -0.3051   -4.4606    0.0000 O   0  0  0  0  0  0  0  0  0
   -1.0195   -5.6981    0.0000 C   0  0  0  0  0  0  0  0  0
   -0.3051   -6.1106    0.0000 C   0  0  0  0  0  0  0  0  0
   -0.3051   -6.9356    0.0000 C   0  0  0  0  0  0  0  0  0
   -1.0195   -7.3481    0.0000 C   0  0  0  0  0  0  0  0  0
   -1.7340   -6.9356    0.0000 C   0  0  0  0  0  0  0  0  0
   -1.7340   -6.1106    0.0000 C   0  0  0  0  0  0  0  0  0
    0.4094   -7.3481    0.0000 C   0  0  0  0  0  0  0  0  0
    1.1239   -7.7606    0.0000 N   0  0  0  0  0  0  0  0  0
   -2.4773   -3.2776    0.0000 C   0  0  0  0  0  0  0  0  0
   -3.0821   -3.8387    0.0000 C   0  0  0  0  0  0  0  0  0
   -3.8704   -3.5956    0.0000 C   0  0  0  0  0  0  0  0  0
   -0.3859   -3.8387    0.0000 C   0  0  0  0  0  0  0  0  0
    0.4024   -3.5956    0.0000 C   0  0  0  0  0  0  0  0  0
    0.5860   -2.7913    0.0000 C   0  0  0  0  0  0  0  0  0
   -0.0188   -2.2301    0.0000 C   0  0  0  0  0  0  0  0  0
  1  2  1  0  0  0  0
  2  3  4  0  0  0  0
  2 30  4  0  0  0  0
  3  4  4  0  0  0  0
  4  5  1  0  0  0  0
  4 28  4  0  0  0  0
  5  6  2  0  0  0  0
  6  7  1  0  0  0  0
  6 14  1  0  0  0  0
  7  8  1  0  0  0  0
  7 12  1  0  0  0  0
  8  9  1  0  0  0  0
  9 10  1  0  0  0  0
 10 11  1  0  0  0  0
 10 13  1  0  0  0  0
 11 12  1  0  0  0  0
 14 15  4  0  0  0  0
 14 34  4  0  0  0  0
 15 16  1  0  0  0  0
 15 31  4  0  0  0  0
 16 17  1  0  0  0  0
 16 28  1  0  0  0  0
 17 18  1  0  0  0  0
 18 19  2  0  0  0  0
 18 20  1  0  0  0  0
 20 21  4  0  0  0  0
 20 25  4  0  0  0  0
 21 22  4  0  0  0  0
 22 23  4  0  0  0  0
 22 26  1  0  0  0  0
 23 24  4  0  0  0  0
 24 25  4  0  0  0  0
 26 27  3  0  0  0  0
 28 29  4  0  0  0  0
 29 30  4  0  0  0  0
 31 32  4  0  0  0  0
 32 33  4  0  0  0  0
 33 34  4  0  0  0  0
M  END
>  <Name_Molregno>
357192

>  <DOPAMINE D1>
7.21

>  <DOPAMINE D2>
5.44

$$$$
357193
  Marvin  02231216192D 0   1.00000     0.00000     0

 36 40  0  0  0  0  0  0  0  0999 V2000
   -3.5289   -2.6828    0.0000 Cl  0  0  0  0  0  0  0  0  0
   -2.7406   -2.9259    0.0000 C   0  0  0  0  0  0  0  0  0
   -2.1358   -2.3648    0.0000 C   0  0  0  0  0  0  0  0  0
   -1.3475   -2.6080    0.0000 C   0  0  0  0  0  0  0  0  0
   -0.8331   -1.9629    0.0000 N   0  0  0  0  0  0  0  0  0
   -0.0081   -1.9629    0.0000 C   0  0  0  0  0  0  0  0  0
    0.3498   -1.2196    0.0000 N   0  0  0  0  0  0  0  0  0
   -0.1149   -0.5380    0.0000 C   0  0  0  0  0  0  0  0  0
    0.2431    0.2053    0.0000 C   0  0  0  0  0  0  0  0  0
    1.0658    0.2669    0.0000 N   0  0  0  0  0  0  0  0  0
    1.5305   -0.4147    0.0000 C   0  0  0  0  0  0  0  0  0
    1.1725   -1.1580    0.0000 C   0  0  0  0  0  0  0  0  0
    1.4237    1.0102    0.0000 C   0  0  0  0  0  0  0  0  0
    0.5063   -2.6080    0.0000 C   0  0  0  0  0  0  0  0  0
    0.3227   -3.4123    0.0000 C   0  0  0  0  0  0  0  0  0
   -0.4206   -3.7702    0.0000 N   0  0  0  0  0  0  0  0  0
   -0.4206   -4.5952    0.0000 N   0  0  0  0  0  0  0  0  0
    0.2939   -5.0077    0.0000 C   0  0  0  0  0  0  0  0  0
    1.0083   -4.5952    0.0000 O   0  0  0  0  0  0  0  0  0
    0.2939   -5.8327    0.0000 C   0  0  0  0  0  0  0  0  0
    1.0083   -6.2452    0.0000 C   0  0  0  0  0  0  0  0  0
    1.0083   -7.0702    0.0000 C   0  0  0  0  0  0  0  0  0
    0.2939   -7.4827    0.0000 C   0  0  0  0  0  0  0  0  0
   -0.4206   -7.0702    0.0000 C   0  0  0  0  0  0  0  0  0
   -0.4206   -6.2452    0.0000 C   0  0  0  0  0  0  0  0  0
    1.7228   -7.4827    0.0000 C   0  0  0  0  0  0  0  0  0
    2.4373   -7.8952    0.0000 F   0  0  0  0  0  0  0  0  0
    1.3103   -8.1972    0.0000 F   0  0  0  0  0  0  0  0  0
    2.1353   -6.7683    0.0000 F   0  0  0  0  0  0  0  0  0
   -1.1639   -3.4123    0.0000 C   0  0  0  0  0  0  0  0  0
   -1.7687   -3.9734    0.0000 C   0  0  0  0  0  0  0  0  0
   -2.5570   -3.7302    0.0000 C   0  0  0  0  0  0  0  0  0
    0.9275   -3.9734    0.0000 C   0  0  0  0  0  0  0  0  0
    1.7158   -3.7302    0.0000 C   0  0  0  0  0  0  0  0  0
    1.8994   -2.9259    0.0000 C   0  0  0  0  0  0  0  0  0
    1.2946   -2.3648    0.0000 C   0  0  0  0  0  0  0  0  0
  1  2  1  0  0  0  0
  2  3  4  0  0  0  0
  2 32  4  0  0  0  0
  3  4  4  0  0  0  0
  4  5  1  0  0  0  0
  4 30  4  0  0  0  0
  5  6  2  0  0  0  0
  6  7  1  0  0  0  0
  6 14  1  0  0  0  0
  7  8  1  0  0  0  0
  7 12  1  0  0  0  0
  8  9  1  0  0  0  0
  9 10  1  0  0  0  0
 10 11  1  0  0  0  0
 10 13  1  0  0  0  0
 11 12  1  0  0  0  0
 14 15  4  0  0  0  0
 14 36  4  0  0  0  0
 15 16  1  0  0  0  0
 15 33  4  0  0  0  0
 16 17  1  0  0  0  0
 16 30  1  0  0  0  0
 17 18  1  0  0  0  0
 18 19  2  0  0  0  0
 18 20  1  0  0  0  0
 20 21  4  0  0  0  0
 20 25  4  0  0  0  0
 21 22  4  0  0  0  0
 22 23  4  0  0  0  0
 22 26  1  0  0  0  0
 23 24  4  0  0  0  0
 24 25  4  0  0  0  0
 26 27  1  0  0  0  0
 26 28  1  0  0  0  0
 26 29  1  0  0  0  0
 30 31  4  0  0  0  0
 31 32  4  0  0  0  0
 33 34  4  0  0  0  0
 34 35  4  0  0  0  0
 35 36  4  0  0  0  0
M  END
>  <Name_Molregno>
357193

>  <DOPAMINE D1>
6.83

>  <DOPAMINE D2>
5.87

$$$$
357194
  Marvin  02231216192D 0   1.00000     0.00000     0

 36 40  0  0  0  0  0  0  0  0999 V2000
   -4.3023   -2.5888    0.0000 Cl  0  0  0  0  0  0  0  0  0
   -3.5139   -2.8320    0.0000 C   0  0  0  0  0  0  0  0  0
   -2.9092   -2.2708    0.0000 C   0  0  0  0  0  0  0  0  0
   -2.1208   -2.5140    0.0000 C   0  0  0  0  0  0  0  0  0
   -1.6064   -1.8690    0.0000 N   0  0  0  0  0  0  0  0  0
   -0.7814   -1.8690    0.0000 C   0  0  0  0  0  0  0  0  0
   -0.4235   -1.1257    0.0000 N   0  0  0  0  0  0  0  0  0
   -0.8882   -0.4440    0.0000 C   0  0  0  0  0  0  0  0  0
   -0.5303    0.2993    0.0000 C   0  0  0  0  0  0  0  0  0
    0.2924    0.3609    0.0000 N   0  0  0  0  0  0  0  0  0
    0.7572   -0.3207    0.0000 C   0  0  0  0  0  0  0  0  0
    0.3992   -1.0640    0.0000 C   0  0  0  0  0  0  0  0  0
    0.6504    1.1042    0.0000 C   0  0  0  0  0  0  0  0  0
   -0.2670   -2.5140    0.0000 C   0  0  0  0  0  0  0  0  0
   -0.4506   -3.3183    0.0000 C   0  0  0  0  0  0  0  0  0
   -1.1939   -3.6763    0.0000 N   0  0  0  0  0  0  0  0  0
   -1.1939   -4.5013    0.0000 N   0  0  0  0  0  0  0  0  0
   -0.4795   -4.9138    0.0000 C   0  0  0  0  0  0  0  0  0
    0.2350   -4.5013    0.0000 O   0  0  0  0  0  0  0  0  0
   -0.4795   -5.7388    0.0000 C   0  0  0  0  0  0  0  0  0
    0.2350   -6.1513    0.0000 C   0  0  0  0  0  0  0  0  0
    0.9495   -5.7388    0.0000 O   0  0  0  0  0  0  0  0  0
    0.9495   -4.9138    0.0000 C   0  0  0  0  0  0  0  0  0
    0.2350   -6.9763    0.0000 C   0  0  0  0  0  0  0  0  0
   -0.4795   -7.3888    0.0000 C   0  0  0  0  0  0  0  0  0
   -1.1939   -6.9763    0.0000 C   0  0  0  0  0  0  0  0  0
   -1.1939   -6.1513    0.0000 C   0  0  0  0  0  0  0  0  0
   -1.9084   -5.7388    0.0000 O   0  0  0  0  0  0  0  0  0
   -2.6229   -6.1513    0.0000 C   0  0  0  0  0  0  0  0  0
   -1.9372   -3.3183    0.0000 C   0  0  0  0  0  0  0  0  0
   -2.5420   -3.8795    0.0000 C   0  0  0  0  0  0  0  0  0
   -3.3303   -3.6363    0.0000 C   0  0  0  0  0  0  0  0  0
    0.1541   -3.8795    0.0000 C   0  0  0  0  0  0  0  0  0
    0.9425   -3.6363    0.0000 C   0  0  0  0  0  0  0  0  0
    1.1261   -2.8320    0.0000 C   0  0  0  0  0  0  0  0  0
    0.5213   -2.2708    0.0000 C   0  0  0  0  0  0  0  0  0
  1  2  1  0  0  0  0
  2  3  4  0  0  0  0
  2 32  4  0  0  0  0
  3  4  4  0  0  0  0
  4  5  1  0  0  0  0
  4 30  4  0  0  0  0
  5  6  2  0  0  0  0
  6  7  1  0  0  0  0
  6 14  1  0  0  0  0
  7  8  1  0  0  0  0
  7 12  1  0  0  0  0
  8  9  1  0  0  0  0
  9 10  1  0  0  0  0
 10 11  1  0  0  0  0
 10 13  1  0  0  0  0
 11 12  1  0  0  0  0
 14 15  4  0  0  0  0
 14 36  4  0  0  0  0
 15 16  1  0  0  0  0
 15 33  4  0  0  0  0
 16 17  1  0  0  0  0
 16 30  1  0  0  0  0
 17 18  1  0  0  0  0
 18 19  2  0  0  0  0
 18 20  1  0  0  0  0
 20 21  4  0  0  0  0
 20 27  4  0  0  0  0
 21 22  1  0  0  0  0
 21 24  4  0  0  0  0
 22 23  1  0  0  0  0
 24 25  4  0  0  0  0
 25 26  4  0  0  0  0
 26 27  4  0  0  0  0
 27 28  1  0  0  0  0
 28 29  1  0  0  0  0
 30 31  4  0  0  0  0
 31 32  4  0  0  0  0
 33 34  4  0  0  0  0
 34 35  4  0  0  0  0
 35 36  4  0  0  0  0
M  END
>  <Name_Molregno>
357194

>  <5-HT2A>
7.86

>  <Alpha-2A>
6.77

>  <DOPAMINE D1>
8.8

>  <DOPAMINE D2>
6.47

>  <DOPAMINE D4>
5.74

>  <DOPAMINE D5>
7.42

$$$$
357209
  Marvin  02231216192D 0   1.00000     0.00000     0

 31 35  0  0  0  0  0  0  0  0999 V2000
   -3.5398   -2.9572    0.0000 Cl  0  0  0  0  0  0  0  0  0
   -2.7514   -3.2003    0.0000 C   0  0  0  0  0  0  0  0  0
   -2.1467   -2.6392    0.0000 C   0  0  0  0  0  0  0  0  0
   -1.3583   -2.8824    0.0000 C   0  0  0  0  0  0  0  0  0
   -0.8439   -2.2374    0.0000 N   0  0  0  0  0  0  0  0  0
   -0.0189   -2.2374    0.0000 C   0  0  0  0  0  0  0  0  0
    0.3390   -1.4941    0.0000 N   0  0  0  0  0  0  0  0  0
   -0.1257   -0.8124    0.0000 C   0  0  0  0  0  0  0  0  0
    0.2322   -0.0691    0.0000 C   0  0  0  0  0  0  0  0  0
    1.0549   -0.0075    0.0000 N   0  0  0  0  0  0  0  0  0
    1.5197   -0.6891    0.0000 C   0  0  0  0  0  0  0  0  0
    1.1617   -1.4324    0.0000 C   0  0  0  0  0  0  0  0  0
    1.4129    0.7358    0.0000 C   0  0  0  0  0  0  0  0  0
    0.4955   -2.8824    0.0000 C   0  0  0  0  0  0  0  0  0
    0.3119   -3.6867    0.0000 C   0  0  0  0  0  0  0  0  0
   -0.4314   -4.0446    0.0000 N   0  0  0  0  0  0  0  0  0
   -0.4314   -4.8696    0.0000 N   0  0  0  0  0  0  0  0  0
    0.2830   -5.2821    0.0000 C   0  0  0  0  0  0  0  0  0
    0.9975   -4.8696    0.0000 O   0  0  0  0  0  0  0  0  0
    0.2830   -6.1071    0.0000 C   0  0  0  0  0  0  0  0  0
    0.9505   -6.5921    0.0000 N   0  0  0  0  0  0  0  0  0
    0.6955   -7.3767    0.0000 O   0  0  0  0  0  0  0  0  0
   -0.1295   -7.3767    0.0000 C   0  0  0  0  0  0  0  0  0
   -0.3844   -6.5921    0.0000 C   0  0  0  0  0  0  0  0  0
   -1.1747   -3.6867    0.0000 C   0  0  0  0  0  0  0  0  0
   -1.7795   -4.2478    0.0000 C   0  0  0  0  0  0  0  0  0
   -2.5678   -4.0047    0.0000 C   0  0  0  0  0  0  0  0  0
    0.9166   -4.2478    0.0000 C   0  0  0  0  0  0  0  0  0
    1.7050   -4.0047    0.0000 C   0  0  0  0  0  0  0  0  0
    1.8886   -3.2003    0.0000 C   0  0  0  0  0  0  0  0  0
    1.2838   -2.6392    0.0000 C   0  0  0  0  0  0  0  0  0
  1  2  1  0  0  0  0
  2  3  4  0  0  0  0
  2 27  4  0  0  0  0
  3  4  4  0  0  0  0
  4  5  1  0  0  0  0
  4 25  4  0  0  0  0
  5  6  2  0  0  0  0
  6  7  1  0  0  0  0
  6 14  1  0  0  0  0
  7  8  1  0  0  0  0
  7 12  1  0  0  0  0
  8  9  1  0  0  0  0
  9 10  1  0  0  0  0
 10 11  1  0  0  0  0
 10 13  1  0  0  0  0
 11 12  1  0  0  0  0
 14 15  4  0  0  0  0
 14 31  4  0  0  0  0
 15 16  1  0  0  0  0
 15 28  4  0  0  0  0
 16 17  1  0  0  0  0
 16 25  1  0  0  0  0
 17 18  1  0  0  0  0
 18 19  2  0  0  0  0
 18 20  1  0  0  0  0
 20 21  4  0  0  0  0
 20 24  4  0  0  0  0
 21 22  4  0  0  0  0
 22 23  4  0  0  0  0
 23 24  4  0  0  0  0
 25 26  4  0  0  0  0
 26 27  4  0  0  0  0
 28 29  4  0  0  0  0
 29 30  4  0  0  0  0
 30 31  4  0  0  0  0
M  END
>  <Name_Molregno>
357209

>  <DOPAMINE D1>
7.66

>  <DOPAMINE D2>
6.34

$$$$
357210
  Marvin  02231216192D 0   1.00000     0.00000     0

 33 37  0  0  0  0  0  0  0  0999 V2000
    0.3873    0.8347    0.0000 Cl  0  0  0  0  0  0  0  0  0
    1.1017    1.2472    0.0000 C   0  0  0  0  0  0  0  0  0
    1.1017    2.0722    0.0000 N   0  0  0  0  0  0  0  0  0
    1.8162    2.4847    0.0000 C   0  0  0  0  0  0  0  0  0
    2.5307    2.0722    0.0000 C   0  0  0  0  0  0  0  0  0
    2.5307    1.2472    0.0000 C   0  0  0  0  0  0  0  0  0
    1.8162    0.8347    0.0000 C   0  0  0  0  0  0  0  0  0
    1.8162    0.0097    0.0000 C   0  0  0  0  0  0  0  0  0
    1.1017   -0.4028    0.0000 O   0  0  0  0  0  0  0  0  0
    2.5307   -0.4028    0.0000 N   0  0  0  0  0  0  0  0  0
    2.5307   -1.2278    0.0000 N   0  0  0  0  0  0  0  0  0
    3.2740   -1.5858    0.0000 C   0  0  0  0  0  0  0  0  0
    3.4576   -2.3901    0.0000 C   0  0  0  0  0  0  0  0  0
    4.2459   -2.6333    0.0000 C   0  0  0  0  0  0  0  0  0
    4.8507   -2.0721    0.0000 C   0  0  0  0  0  0  0  0  0
    4.6671   -1.2678    0.0000 C   0  0  0  0  0  0  0  0  0
    3.8787   -1.0246    0.0000 C   0  0  0  0  0  0  0  0  0
    2.9432   -3.0351    0.0000 C   0  0  0  0  0  0  0  0  0
    2.1182   -3.0351    0.0000 N   0  0  0  0  0  0  0  0  0
    1.6038   -2.3901    0.0000 C   0  0  0  0  0  0  0  0  0
    0.8154   -2.6333    0.0000 C   0  0  0  0  0  0  0  0  0
    0.2107   -2.0721    0.0000 C   0  0  0  0  0  0  0  0  0
   -0.5777   -2.3153    0.0000 Cl  0  0  0  0  0  0  0  0  0
    0.3943   -1.2678    0.0000 C   0  0  0  0  0  0  0  0  0
    1.1826   -1.0246    0.0000 C   0  0  0  0  0  0  0  0  0
    1.7874   -1.5858    0.0000 C   0  0  0  0  0  0  0  0  0
    3.3011   -3.7784    0.0000 N   0  0  0  0  0  0  0  0  0
    4.1238   -3.8401    0.0000 C   0  0  0  0  0  0  0  0  0
    4.4818   -4.5833    0.0000 C   0  0  0  0  0  0  0  0  0
    4.0170   -5.2650    0.0000 N   0  0  0  0  0  0  0  0  0
    3.1943   -5.2033    0.0000 C   0  0  0  0  0  0  0  0  0
    2.8364   -4.4600    0.0000 C   0  0  0  0  0  0  0  0  0
    4.3750   -6.0083    0.0000 C   0  0  0  0  0  0  0  0  0
  1  2  1  0  0  0  0
  2  3  4  0  0  0  0
  2  7  4  0  0  0  0
  3  4  4  0  0  0  0
  4  5  4  0  0  0  0
  5  6  4  0  0  0  0
  6  7  4  0  0  0  0
  7  8  1  0  0  0  0
  8  9  2  0  0  0  0
  8 10  1  0  0  0  0
 10 11  1  0  0  0  0
 11 12  1  0  0  0  0
 11 26  1  0  0  0  0
 12 13  4  0  0  0  0
 12 17  4  0  0  0  0
 13 14  4  0  0  0  0
 13 18  1  0  0  0  0
 14 15  4  0  0  0  0
 15 16  4  0  0  0  0
 16 17  4  0  0  0  0
 18 19  2  0  0  0  0
 18 27  1  0  0  0  0
 19 20  1  0  0  0  0
 20 21  4  0  0  0  0
 20 26  4  0  0  0  0
 21 22  4  0  0  0  0
 22 23  1  0  0  0  0
 22 24  4  0  0  0  0
 24 25  4  0  0  0  0
 25 26  4  0  0  0  0
 27 28  1  0  0  0  0
 27 32  1  0  0  0  0
 28 29  1  0  0  0  0
 29 30  1  0  0  0  0
 30 31  1  0  0  0  0
 30 33  1  0  0  0  0
 31 32  1  0  0  0  0
M  END
>  <Name_Molregno>
357210

>  <DOPAMINE D1>
7.96

>  <DOPAMINE D2>
6.2

$$$$
357211
  Marvin  02231216192D 0   1.00000     0.00000     0

 39 44  0  0  0  0  0  0  0  0999 V2000
   -3.5539   -2.7643    0.0000 Cl  0  0  0  0  0  0  0  0  0
   -2.7655   -3.0075    0.0000 C   0  0  0  0  0  0  0  0  0
   -2.1608   -2.4463    0.0000 C   0  0  0  0  0  0  0  0  0
   -1.3724   -2.6895    0.0000 C   0  0  0  0  0  0  0  0  0
   -0.8580   -2.0445    0.0000 N   0  0  0  0  0  0  0  0  0
   -0.0330   -2.0445    0.0000 C   0  0  0  0  0  0  0  0  0
    0.3249   -1.3012    0.0000 N   0  0  0  0  0  0  0  0  0
   -0.1398   -0.6196    0.0000 C   0  0  0  0  0  0  0  0  0
    0.2181    0.1237    0.0000 C   0  0  0  0  0  0  0  0  0
    1.0408    0.1854    0.0000 N   0  0  0  0  0  0  0  0  0
    1.5056   -0.4962    0.0000 C   0  0  0  0  0  0  0  0  0
    1.1476   -1.2395    0.0000 C   0  0  0  0  0  0  0  0  0
    1.3988    0.9287    0.0000 C   0  0  0  0  0  0  0  0  0
    0.4814   -2.6895    0.0000 C   0  0  0  0  0  0  0  0  0
    0.2978   -3.4938    0.0000 C   0  0  0  0  0  0  0  0  0
   -0.4455   -3.8518    0.0000 N   0  0  0  0  0  0  0  0  0
   -0.4455   -4.6768    0.0000 N   0  0  0  0  0  0  0  0  0
   -1.1600   -5.0893    0.0000 C   0  0  0  0  0  0  0  0  0
   -1.8745   -4.6768    0.0000 O   0  0  0  0  0  0  0  0  0
   -1.1600   -5.9143    0.0000 C   0  0  0  0  0  0  0  0  0
   -0.4455   -6.3268    0.0000 C   0  0  0  0  0  0  0  0  0
   -0.4455   -7.1518    0.0000 C   0  0  0  0  0  0  0  0  0
   -1.1600   -7.5643    0.0000 C   0  0  0  0  0  0  0  0  0
   -1.8745   -7.1518    0.0000 C   0  0  0  0  0  0  0  0  0
   -1.8745   -6.3268    0.0000 C   0  0  0  0  0  0  0  0  0
   -2.5889   -5.9143    0.0000 N   0  0  0  0  0  0  0  0  0
   -3.3034   -6.3268    0.0000 C   0  0  0  0  0  0  0  0  0
   -3.3034   -7.1518    0.0000 C   0  0  0  0  0  0  0  0  0
   -4.0179   -7.5643    0.0000 C   0  0  0  0  0  0  0  0  0
   -4.7323   -7.1518    0.0000 C   0  0  0  0  0  0  0  0  0
   -4.7323   -6.3268    0.0000 C   0  0  0  0  0  0  0  0  0
   -4.0179   -5.9143    0.0000 C   0  0  0  0  0  0  0  0  0
   -1.1888   -3.4938    0.0000 C   0  0  0  0  0  0  0  0  0
   -1.7936   -4.0550    0.0000 C   0  0  0  0  0  0  0  0  0
   -2.5819   -3.8118    0.0000 C   0  0  0  0  0  0  0  0  0
    0.9025   -4.0550    0.0000 C   0  0  0  0  0  0  0  0  0
    1.6909   -3.8118    0.0000 C   0  0  0  0  0  0  0  0  0
    1.8745   -3.0075    0.0000 C   0  0  0  0  0  0  0  0  0
    1.2697   -2.4463    0.0000 C   0  0  0  0  0  0  0  0  0
  1  2  1  0  0  0  0
  2  3  4  0  0  0  0
  2 35  4  0  0  0  0
  3  4  4  0  0  0  0
  4  5  1  0  0  0  0
  4 33  4  0  0  0  0
  5  6  2  0  0  0  0
  6  7  1  0  0  0  0
  6 14  1  0  0  0  0
  7  8  1  0  0  0  0
  7 12  1  0  0  0  0
  8  9  1  0  0  0  0
  9 10  1  0  0  0  0
 10 11  1  0  0  0  0
 10 13  1  0  0  0  0
 11 12  1  0  0  0  0
 14 15  4  0  0  0  0
 14 39  4  0  0  0  0
 15 16  1  0  0  0  0
 15 36  4  0  0  0  0
 16 17  1  0  0  0  0
 16 33  1  0  0  0  0
 17 18  1  0  0  0  0
 18 19  2  0  0  0  0
 18 20  1  0  0  0  0
 20 21  4  0  0  0  0
 20 25  4  0  0  0  0
 21 22  4  0  0  0  0
 22 23  4  0  0  0  0
 23 24  4  0  0  0  0
 24 25  4  0  0  0  0
 25 26  1  0  0  0  0
 26 27  1  0  0  0  0
 27 28  1  0  0  0  0
 27 32  1  0  0  0  0
 28 29  1  0  0  0  0
 29 30  1  0  0  0  0
 30 31  1  0  0  0  0
 31 32  1  0  0  0  0
 33 34  4  0  0  0  0
 34 35  4  0  0  0  0
 36 37  4  0  0  0  0
 37 38  4  0  0  0  0
 38 39  4  0  0  0  0
M  END
>  <Name_Molregno>
357211

>  <DOPAMINE D1>
7.21

>  <DOPAMINE D2>
5.42

$$$$
357216
  Marvin  02231216192D 0   1.00000     0.00000     0

 32 36  0  0  0  0  0  0  0  0999 V2000
   -3.0862   -3.0564    0.0000 Cl  0  0  0  0  0  0  0  0  0
   -2.2979   -3.2996    0.0000 C   0  0  0  0  0  0  0  0  0
   -1.6931   -2.7384    0.0000 C   0  0  0  0  0  0  0  0  0
   -0.9048   -2.9816    0.0000 C   0  0  0  0  0  0  0  0  0
   -0.3904   -2.3366    0.0000 N   0  0  0  0  0  0  0  0  0
    0.4346   -2.3366    0.0000 C   0  0  0  0  0  0  0  0  0
    0.7926   -1.5933    0.0000 N   0  0  0  0  0  0  0  0  0
    0.3278   -0.9116    0.0000 C   0  0  0  0  0  0  0  0  0
    0.6858   -0.1683    0.0000 C   0  0  0  0  0  0  0  0  0
    1.5085   -0.1067    0.0000 N   0  0  0  0  0  0  0  0  0
    1.9732   -0.7883    0.0000 C   0  0  0  0  0  0  0  0  0
    1.6153   -1.5316    0.0000 C   0  0  0  0  0  0  0  0  0
    1.8664    0.6366    0.0000 C   0  0  0  0  0  0  0  0  0
    0.9490   -2.9816    0.0000 C   0  0  0  0  0  0  0  0  0
    0.7654   -3.7859    0.0000 C   0  0  0  0  0  0  0  0  0
    0.0221   -4.1439    0.0000 N   0  0  0  0  0  0  0  0  0
   -0.7212   -3.7859    0.0000 C   0  0  0  0  0  0  0  0  0
   -1.3259   -4.3470    0.0000 C   0  0  0  0  0  0  0  0  0
   -2.1143   -4.1039    0.0000 C   0  0  0  0  0  0  0  0  0
    0.0221   -4.9689    0.0000 C   0  0  0  0  0  0  0  0  0
    0.7366   -5.3814    0.0000 O   0  0  0  0  0  0  0  0  0
   -0.6923   -5.3814    0.0000 C   0  0  0  0  0  0  0  0  0
   -1.4068   -4.9689    0.0000 C   0  0  0  0  0  0  0  0  0
   -2.1213   -5.3814    0.0000 C   0  0  0  0  0  0  0  0  0
   -2.1213   -6.2064    0.0000 C   0  0  0  0  0  0  0  0  0
   -1.4068   -6.6189    0.0000 C   0  0  0  0  0  0  0  0  0
   -0.6923   -6.2064    0.0000 C   0  0  0  0  0  0  0  0  0
    0.0221   -6.6189    0.0000 C   0  0  0  0  0  0  0  0  0
    1.3702   -4.3470    0.0000 C   0  0  0  0  0  0  0  0  0
    2.1585   -4.1039    0.0000 C   0  0  0  0  0  0  0  0  0
    2.3421   -3.2996    0.0000 C   0  0  0  0  0  0  0  0  0
    1.7374   -2.7384    0.0000 C   0  0  0  0  0  0  0  0  0
  1  2  1  0  0  0  0
  2  3  4  0  0  0  0
  2 19  4  0  0  0  0
  3  4  4  0  0  0  0
  4  5  1  0  0  0  0
  4 17  4  0  0  0  0
  5  6  2  0  0  0  0
  6  7  1  0  0  0  0
  6 14  1  0  0  0  0
  7  8  1  0  0  0  0
  7 12  1  0  0  0  0
  8  9  1  0  0  0  0
  9 10  1  0  0  0  0
 10 11  1  0  0  0  0
 10 13  1  0  0  0  0
 11 12  1  0  0  0  0
 14 15  4  0  0  0  0
 14 32  4  0  0  0  0
 15 16  1  0  0  0  0
 15 29  4  0  0  0  0
 16 17  1  0  0  0  0
 16 20  1  0  0  0  0
 17 18  4  0  0  0  0
 18 19  4  0  0  0  0
 20 21  2  0  0  0  0
 20 22  1  0  0  0  0
 22 23  4  0  0  0  0
 22 27  4  0  0  0  0
 23 24  4  0  0  0  0
 24 25  4  0  0  0  0
 25 26  4  0  0  0  0
 26 27  4  0  0  0  0
 27 28  1  0  0  0  0
 29 30  4  0  0  0  0
 30 31  4  0  0  0  0
 31 32  4  0  0  0  0
M  END
>  <Name_Molregno>
357216

>  <DOPAMINE D1>
5.91

>  <DOPAMINE D2>
5.31

$$$$
357218
  Marvin  02231216192D 0   1.00000     0.00000     0

 33 37  0  0  0  0  0  0  0  0999 V2000
    0.3873    0.8347    0.0000 Br  0  0  0  0  0  0  0  0  0
    1.1017    1.2472    0.0000 C   0  0  0  0  0  0  0  0  0
    1.1017    2.0722    0.0000 C   0  0  0  0  0  0  0  0  0
    1.8162    2.4847    0.0000 C   0  0  0  0  0  0  0  0  0
    2.5307    2.0722    0.0000 C   0  0  0  0  0  0  0  0  0
    2.5307    1.2472    0.0000 C   0  0  0  0  0  0  0  0  0
    1.8162    0.8347    0.0000 C   0  0  0  0  0  0  0  0  0
    1.8162    0.0097    0.0000 C   0  0  0  0  0  0  0  0  0
    1.1017   -0.4028    0.0000 O   0  0  0  0  0  0  0  0  0
    2.5307   -0.4028    0.0000 N   0  0  0  0  0  0  0  0  0
    2.5307   -1.2278    0.0000 N   0  0  0  0  0  0  0  0  0
    3.2740   -1.5858    0.0000 C   0  0  0  0  0  0  0  0  0
    3.4576   -2.3901    0.0000 C   0  0  0  0  0  0  0  0  0
    4.2459   -2.6333    0.0000 C   0  0  0  0  0  0  0  0  0
    4.8507   -2.0721    0.0000 C   0  0  0  0  0  0  0  0  0
    4.6671   -1.2678    0.0000 C   0  0  0  0  0  0  0  0  0
    3.8787   -1.0246    0.0000 C   0  0  0  0  0  0  0  0  0
    2.9432   -3.0351    0.0000 C   0  0  0  0  0  0  0  0  0
    2.1182   -3.0351    0.0000 N   0  0  0  0  0  0  0  0  0
    1.6038   -2.3901    0.0000 C   0  0  0  0  0  0  0  0  0
    0.8154   -2.6333    0.0000 C   0  0  0  0  0  0  0  0  0
    0.2107   -2.0721    0.0000 C   0  0  0  0  0  0  0  0  0
   -0.5777   -2.3153    0.0000 Cl  0  0  0  0  0  0  0  0  0
    0.3943   -1.2678    0.0000 C   0  0  0  0  0  0  0  0  0
    1.1826   -1.0246    0.0000 C   0  0  0  0  0  0  0  0  0
    1.7874   -1.5858    0.0000 C   0  0  0  0  0  0  0  0  0
    3.3011   -3.7784    0.0000 N   0  0  0  0  0  0  0  0  0
    4.1238   -3.8401    0.0000 C   0  0  0  0  0  0  0  0  0
    4.4818   -4.5833    0.0000 C   0  0  0  0  0  0  0  0  0
    4.0170   -5.2650    0.0000 N   0  0  0  0  0  0  0  0  0
    3.1943   -5.2033    0.0000 C   0  0  0  0  0  0  0  0  0
    2.8364   -4.4600    0.0000 C   0  0  0  0  0  0  0  0  0
    4.3750   -6.0083    0.0000 C   0  0  0  0  0  0  0  0  0
  1  2  1  0  0  0  0
  2  3  4  0  0  0  0
  2  7  4  0  0  0  0
  3  4  4  0  0  0  0
  4  5  4  0  0  0  0
  5  6  4  0  0  0  0
  6  7  4  0  0  0  0
  7  8  1  0  0  0  0
  8  9  2  0  0  0  0
  8 10  1  0  0  0  0
 10 11  1  0  0  0  0
 11 12  1  0  0  0  0
 11 26  1  0  0  0  0
 12 13  4  0  0  0  0
 12 17  4  0  0  0  0
 13 14  4  0  0  0  0
 13 18  1  0  0  0  0
 14 15  4  0  0  0  0
 15 16  4  0  0  0  0
 16 17  4  0  0  0  0
 18 19  2  0  0  0  0
 18 27  1  0  0  0  0
 19 20  1  0  0  0  0
 20 21  4  0  0  0  0
 20 26  4  0  0  0  0
 21 22  4  0  0  0  0
 22 23  1  0  0  0  0
 22 24  4  0  0  0  0
 24 25  4  0  0  0  0
 25 26  4  0  0  0  0
 27 28  1  0  0  0  0
 27 32  1  0  0  0  0
 28 29  1  0  0  0  0
 29 30  1  0  0  0  0
 30 31  1  0  0  0  0
 30 33  1  0  0  0  0
 31 32  1  0  0  0  0
M  END
>  <Name_Molregno>
357218

>  <DOPAMINE D1>
7.8

>  <DOPAMINE D2>
6.1

$$$$
357219
  Marvin  02231216192D 0   1.00000     0.00000     0

 33 37  0  0  0  0  0  0  0  0999 V2000
    0.3873    0.8347    0.0000 Cl  0  0  0  0  0  0  0  0  0
    1.1017    1.2472    0.0000 C   0  0  0  0  0  0  0  0  0
    1.1017    2.0722    0.0000 C   0  0  0  0  0  0  0  0  0
    1.8162    2.4847    0.0000 C   0  0  0  0  0  0  0  0  0
    2.5307    2.0722    0.0000 C   0  0  0  0  0  0  0  0  0
    2.5307    1.2472    0.0000 C   0  0  0  0  0  0  0  0  0
    1.8162    0.8347    0.0000 C   0  0  0  0  0  0  0  0  0
    1.8162    0.0097    0.0000 C   0  0  0  0  0  0  0  0  0
    1.1017   -0.4028    0.0000 O   0  0  0  0  0  0  0  0  0
    2.5307   -0.4028    0.0000 N   0  0  0  0  0  0  0  0  0
    2.5307   -1.2278    0.0000 N   0  0  0  0  0  0  0  0  0
    3.2740   -1.5858    0.0000 C   0  0  0  0  0  0  0  0  0
    3.4576   -2.3901    0.0000 C   0  0  0  0  0  0  0  0  0
    4.2459   -2.6333    0.0000 C   0  0  0  0  0  0  0  0  0
    4.8507   -2.0721    0.0000 C   0  0  0  0  0  0  0  0  0
    4.6671   -1.2678    0.0000 C   0  0  0  0  0  0  0  0  0
    3.8787   -1.0246    0.0000 C   0  0  0  0  0  0  0  0  0
    2.9432   -3.0351    0.0000 C   0  0  0  0  0  0  0  0  0
    2.1182   -3.0351    0.0000 N   0  0  0  0  0  0  0  0  0
    1.6038   -2.3901    0.0000 C   0  0  0  0  0  0  0  0  0
    0.8154   -2.6333    0.0000 C   0  0  0  0  0  0  0  0  0
    0.2107   -2.0721    0.0000 C   0  0  0  0  0  0  0  0  0
   -0.5777   -2.3153    0.0000 Cl  0  0  0  0  0  0  0  0  0
    0.3943   -1.2678    0.0000 C   0  0  0  0  0  0  0  0  0
    1.1826   -1.0246    0.0000 C   0  0  0  0  0  0  0  0  0
    1.7874   -1.5858    0.0000 C   0  0  0  0  0  0  0  0  0
    3.3011   -3.7784    0.0000 N   0  0  0  0  0  0  0  0  0
    4.1238   -3.8401    0.0000 C   0  0  0  0  0  0  0  0  0
    4.4818   -4.5833    0.0000 C   0  0  0  0  0  0  0  0  0
    4.0170   -5.2650    0.0000 N   0  0  0  0  0  0  0  0  0
    3.1943   -5.2033    0.0000 C   0  0  0  0  0  0  0  0  0
    2.8364   -4.4600    0.0000 C   0  0  0  0  0  0  0  0  0
    4.3750   -6.0083    0.0000 C   0  0  0  0  0  0  0  0  0
  1  2  1  0  0  0  0
  2  3  4  0  0  0  0
  2  7  4  0  0  0  0
  3  4  4  0  0  0  0
  4  5  4  0  0  0  0
  5  6  4  0  0  0  0
  6  7  4  0  0  0  0
  7  8  1  0  0  0  0
  8  9  2  0  0  0  0
  8 10  1  0  0  0  0
 10 11  1  0  0  0  0
 11 12  1  0  0  0  0
 11 26  1  0  0  0  0
 12 13  4  0  0  0  0
 12 17  4  0  0  0  0
 13 14  4  0  0  0  0
 13 18  1  0  0  0  0
 14 15  4  0  0  0  0
 15 16  4  0  0  0  0
 16 17  4  0  0  0  0
 18 19  2  0  0  0  0
 18 27  1  0  0  0  0
 19 20  1  0  0  0  0
 20 21  4  0  0  0  0
 20 26  4  0  0  0  0
 21 22  4  0  0  0  0
 22 23  1  0  0  0  0
 22 24  4  0  0  0  0
 24 25  4  0  0  0  0
 25 26  4  0  0  0  0
 27 28  1  0  0  0  0
 27 32  1  0  0  0  0
 28 29  1  0  0  0  0
 29 30  1  0  0  0  0
 30 31  1  0  0  0  0
 30 33  1  0  0  0  0
 31 32  1  0  0  0  0
M  END
>  <Name_Molregno>
357219

>  <5-HT2A>
9

>  <Alpha-2A>
6.34

>  <DOPAMINE D1>
8.39

>  <DOPAMINE D2>
6.74

>  <DOPAMINE D4>
6.06

>  <DOPAMINE D5>
7.14

$$$$
357242
  Marvin  02231216192D 0   1.00000     0.00000     0

 36 41  0  0  0  0  0  0  0  0999 V2000
   -4.2025   -2.5109    0.0000 Cl  0  0  0  0  0  0  0  0  0
   -3.4142   -2.7541    0.0000 C   0  0  0  0  0  0  0  0  0
   -2.8094   -2.1929    0.0000 C   0  0  0  0  0  0  0  0  0
   -2.0211   -2.4361    0.0000 C   0  0  0  0  0  0  0  0  0
   -1.5067   -1.7911    0.0000 N   0  0  0  0  0  0  0  0  0
   -0.6817   -1.7911    0.0000 C   0  0  0  0  0  0  0  0  0
   -0.3237   -1.0478    0.0000 N   0  0  0  0  0  0  0  0  0
   -0.7885   -0.3661    0.0000 C   0  0  0  0  0  0  0  0  0
   -0.4305    0.3772    0.0000 C   0  0  0  0  0  0  0  0  0
    0.3922    0.4388    0.0000 N   0  0  0  0  0  0  0  0  0
    0.8569   -0.2428    0.0000 C   0  0  0  0  0  0  0  0  0
    0.4990   -0.9861    0.0000 C   0  0  0  0  0  0  0  0  0
    0.7501    1.1821    0.0000 C   0  0  0  0  0  0  0  0  0
   -0.1673   -2.4361    0.0000 C   0  0  0  0  0  0  0  0  0
   -0.3509   -3.2404    0.0000 C   0  0  0  0  0  0  0  0  0
   -1.0942   -3.5984    0.0000 N   0  0  0  0  0  0  0  0  0
   -1.0942   -4.4234    0.0000 N   0  0  0  0  0  0  0  0  0
   -1.8087   -4.8359    0.0000 C   0  0  0  0  0  0  0  0  0
   -2.5231   -4.4234    0.0000 O   0  0  0  0  0  0  0  0  0
   -1.8087   -5.6609    0.0000 C   0  0  0  0  0  0  0  0  0
   -2.5231   -6.0734    0.0000 C   0  0  0  0  0  0  0  0  0
   -2.5231   -6.8984    0.0000 C   0  0  0  0  0  0  0  0  0
   -1.8087   -7.3109    0.0000 C   0  0  0  0  0  0  0  0  0
   -1.0942   -6.8984    0.0000 C   0  0  0  0  0  0  0  0  0
   -1.0942   -6.0734    0.0000 C   0  0  0  0  0  0  0  0  0
   -3.2376   -7.3109    0.0000 C   0  0  0  0  0  0  0  0  0
   -3.9521   -6.8984    0.0000 C   0  0  0  0  0  0  0  0  0
   -3.9521   -6.0734    0.0000 C   0  0  0  0  0  0  0  0  0
   -3.2376   -5.6609    0.0000 C   0  0  0  0  0  0  0  0  0
   -1.8375   -3.2404    0.0000 C   0  0  0  0  0  0  0  0  0
   -2.4422   -3.8016    0.0000 C   0  0  0  0  0  0  0  0  0
   -3.2306   -3.5584    0.0000 C   0  0  0  0  0  0  0  0  0
    0.2539   -3.8016    0.0000 C   0  0  0  0  0  0  0  0  0
    1.0422   -3.5584    0.0000 C   0  0  0  0  0  0  0  0  0
    1.2258   -2.7541    0.0000 C   0  0  0  0  0  0  0  0  0
    0.6210   -2.1929    0.0000 C   0  0  0  0  0  0  0  0  0
  1  2  1  0  0  0  0
  2  3  4  0  0  0  0
  2 32  4  0  0  0  0
  3  4  4  0  0  0  0
  4  5  1  0  0  0  0
  4 30  4  0  0  0  0
  5  6  2  0  0  0  0
  6  7  1  0  0  0  0
  6 14  1  0  0  0  0
  7  8  1  0  0  0  0
  7 12  1  0  0  0  0
  8  9  1  0  0  0  0
  9 10  1  0  0  0  0
 10 11  1  0  0  0  0
 10 13  1  0  0  0  0
 11 12  1  0  0  0  0
 14 15  4  0  0  0  0
 14 36  4  0  0  0  0
 15 16  1  0  0  0  0
 15 33  4  0  0  0  0
 16 17  1  0  0  0  0
 16 30  1  0  0  0  0
 17 18  1  0  0  0  0
 18 19  2  0  0  0  0
 18 20  1  0  0  0  0
 20 21  4  0  0  0  0
 20 25  4  0  0  0  0
 21 22  4  0  0  0  0
 21 29  4  0  0  0  0
 22 23  4  0  0  0  0
 22 26  4  0  0  0  0
 23 24  4  0  0  0  0
 24 25  4  0  0  0  0
 26 27  4  0  0  0  0
 27 28  4  0  0  0  0
 28 29  4  0  0  0  0
 30 31  4  0  0  0  0
 31 32  4  0  0  0  0
 33 34  4  0  0  0  0
 34 35  4  0  0  0  0
 35 36  4  0  0  0  0
M  END
>  <Name_Molregno>
357242

>  <5-HT2A>
9

>  <Alpha-2A>
6.05

>  <DOPAMINE D1>
8.42

>  <DOPAMINE D2>
6.34

>  <DOPAMINE D4>
6.01

>  <DOPAMINE D5>
6.98

$$$$
357243
  Marvin  02231216192D 0   1.00000     0.00000     0

 36 41  0  0  0  0  0  0  0  0999 V2000
   -1.6505   -2.3435    0.0000 Cl  0  0  0  0  0  0  0  0  0
   -0.8621   -2.5867    0.0000 C   0  0  0  0  0  0  0  0  0
   -0.2574   -2.0255    0.0000 C   0  0  0  0  0  0  0  0  0
    0.5310   -2.2687    0.0000 C   0  0  0  0  0  0  0  0  0
    1.0454   -1.6237    0.0000 N   0  0  0  0  0  0  0  0  0
    1.8704   -1.6237    0.0000 C   0  0  0  0  0  0  0  0  0
    2.2283   -0.8804    0.0000 N   0  0  0  0  0  0  0  0  0
    1.7636   -0.1988    0.0000 C   0  0  0  0  0  0  0  0  0
    2.1215    0.5445    0.0000 C   0  0  0  0  0  0  0  0  0
    2.9442    0.6062    0.0000 N   0  0  0  0  0  0  0  0  0
    3.4090   -0.0755    0.0000 C   0  0  0  0  0  0  0  0  0
    3.0510   -0.8188    0.0000 C   0  0  0  0  0  0  0  0  0
    3.3022    1.3495    0.0000 C   0  0  0  0  0  0  0  0  0
    2.3847   -2.2687    0.0000 C   0  0  0  0  0  0  0  0  0
    2.2012   -3.0730    0.0000 C   0  0  0  0  0  0  0  0  0
    1.4579   -3.4310    0.0000 N   0  0  0  0  0  0  0  0  0
    1.4579   -4.2560    0.0000 N   0  0  0  0  0  0  0  0  0
    0.7434   -4.6685    0.0000 C   0  0  0  0  0  0  0  0  0
    0.0289   -4.2560    0.0000 O   0  0  0  0  0  0  0  0  0
    0.7434   -5.4935    0.0000 C   0  0  0  0  0  0  0  0  0
    0.0289   -5.9060    0.0000 C   0  0  0  0  0  0  0  0  0
    0.0289   -6.7310    0.0000 C   0  0  0  0  0  0  0  0  0
    0.7434   -7.1435    0.0000 C   0  0  0  0  0  0  0  0  0
    1.4579   -6.7310    0.0000 C   0  0  0  0  0  0  0  0  0
    1.4579   -5.9060    0.0000 C   0  0  0  0  0  0  0  0  0
    0.7434   -7.9685    0.0000 C   0  0  0  0  0  0  0  0  0
    0.0289   -8.3810    0.0000 C   0  0  0  0  0  0  0  0  0
   -0.6856   -7.9685    0.0000 C   0  0  0  0  0  0  0  0  0
   -0.6856   -7.1435    0.0000 C   0  0  0  0  0  0  0  0  0
    0.7146   -3.0730    0.0000 C   0  0  0  0  0  0  0  0  0
    0.1098   -3.6342    0.0000 C   0  0  0  0  0  0  0  0  0
   -0.6786   -3.3910    0.0000 C   0  0  0  0  0  0  0  0  0
    2.8059   -3.6342    0.0000 C   0  0  0  0  0  0  0  0  0
    3.5943   -3.3910    0.0000 C   0  0  0  0  0  0  0  0  0
    3.7778   -2.5867    0.0000 C   0  0  0  0  0  0  0  0  0
    3.1731   -2.0255    0.0000 C   0  0  0  0  0  0  0  0  0
  1  2  1  0  0  0  0
  2  3  4  0  0  0  0
  2 32  4  0  0  0  0
  3  4  4  0  0  0  0
  4  5  1  0  0  0  0
  4 30  4  0  0  0  0
  5  6  2  0  0  0  0
  6  7  1  0  0  0  0
  6 14  1  0  0  0  0
  7  8  1  0  0  0  0
  7 12  1  0  0  0  0
  8  9  1  0  0  0  0
  9 10  1  0  0  0  0
 10 11  1  0  0  0  0
 10 13  1  0  0  0  0
 11 12  1  0  0  0  0
 14 15  4  0  0  0  0
 14 36  4  0  0  0  0
 15 16  1  0  0  0  0
 15 33  4  0  0  0  0
 16 17  1  0  0  0  0
 16 30  1  0  0  0  0
 17 18  1  0  0  0  0
 18 19  2  0  0  0  0
 18 20  1  0  0  0  0
 20 21  4  0  0  0  0
 20 25  4  0  0  0  0
 21 22  4  0  0  0  0
 22 23  4  0  0  0  0
 22 29  4  0  0  0  0
 23 24  4  0  0  0  0
 23 26  4  0  0  0  0
 24 25  4  0  0  0  0
 26 27  4  0  0  0  0
 27 28  4  0  0  0  0
 28 29  4  0  0  0  0
 30 31  4  0  0  0  0
 31 32  4  0  0  0  0
 33 34  4  0  0  0  0
 34 35  4  0  0  0  0
 35 36  4  0  0  0  0
M  END
>  <Name_Molregno>
357243

>  <DOPAMINE D1>
8.13

>  <DOPAMINE D2>
5.88

$$$$
357244
  Marvin  02231216192D 0   1.00000     0.00000     0

 38 43  0  0  0  0  0  0  0  0999 V2000
   -4.3127   -2.5746    0.0000 Cl  0  0  0  0  0  0  0  0  0
   -3.5243   -2.8178    0.0000 C   0  0  0  0  0  0  0  0  0
   -2.9196   -2.2566    0.0000 C   0  0  0  0  0  0  0  0  0
   -2.1312   -2.4998    0.0000 C   0  0  0  0  0  0  0  0  0
   -1.6168   -1.8548    0.0000 N   0  0  0  0  0  0  0  0  0
   -0.7918   -1.8548    0.0000 C   0  0  0  0  0  0  0  0  0
   -0.4339   -1.1115    0.0000 N   0  0  0  0  0  0  0  0  0
   -0.8986   -0.4299    0.0000 C   0  0  0  0  0  0  0  0  0
   -0.5407    0.3134    0.0000 C   0  0  0  0  0  0  0  0  0
    0.2820    0.3751    0.0000 N   0  0  0  0  0  0  0  0  0
    0.7468   -0.3066    0.0000 C   0  0  0  0  0  0  0  0  0
    0.3888   -1.0499    0.0000 C   0  0  0  0  0  0  0  0  0
    0.6400    1.1184    0.0000 C   0  0  0  0  0  0  0  0  0
   -0.2775   -2.4998    0.0000 C   0  0  0  0  0  0  0  0  0
   -0.4610   -3.3041    0.0000 C   0  0  0  0  0  0  0  0  0
   -1.2043   -3.6621    0.0000 N   0  0  0  0  0  0  0  0  0
   -1.2043   -4.4871    0.0000 N   0  0  0  0  0  0  0  0  0
   -1.9188   -4.8996    0.0000 C   0  0  0  0  0  0  0  0  0
   -2.6333   -4.4871    0.0000 O   0  0  0  0  0  0  0  0  0
   -1.9188   -5.7246    0.0000 C   0  0  0  0  0  0  0  0  0
   -1.2043   -6.1371    0.0000 C   0  0  0  0  0  0  0  0  0
   -1.2043   -6.9621    0.0000 C   0  0  0  0  0  0  0  0  0
   -1.9188   -7.3746    0.0000 C   0  0  0  0  0  0  0  0  0
   -2.6333   -6.9621    0.0000 C   0  0  0  0  0  0  0  0  0
   -2.6333   -6.1371    0.0000 C   0  0  0  0  0  0  0  0  0
   -3.3477   -5.7246    0.0000 N   0  0  0  0  0  0  0  0  0
   -4.0622   -6.1371    0.0000 C   0  0  0  0  0  0  0  0  0
   -4.7767   -5.7246    0.0000 C   0  0  0  0  0  0  0  0  0
   -4.7767   -4.8996    0.0000 C   0  0  0  0  0  0  0  0  0
   -4.0622   -4.4871    0.0000 C   0  0  0  0  0  0  0  0  0
   -3.3477   -4.8996    0.0000 C   0  0  0  0  0  0  0  0  0
   -1.9476   -3.3041    0.0000 C   0  0  0  0  0  0  0  0  0
   -2.5524   -3.8653    0.0000 C   0  0  0  0  0  0  0  0  0
   -3.3407   -3.6221    0.0000 C   0  0  0  0  0  0  0  0  0
    0.1437   -3.8653    0.0000 C   0  0  0  0  0  0  0  0  0
    0.9321   -3.6221    0.0000 C   0  0  0  0  0  0  0  0  0
    1.1157   -2.8178    0.0000 C   0  0  0  0  0  0  0  0  0
    0.5109   -2.2566    0.0000 C   0  0  0  0  0  0  0  0  0
  1  2  1  0  0  0  0
  2  3  4  0  0  0  0
  2 34  4  0  0  0  0
  3  4  4  0  0  0  0
  4  5  1  0  0  0  0
  4 32  4  0  0  0  0
  5  6  2  0  0  0  0
  6  7  1  0  0  0  0
  6 14  1  0  0  0  0
  7  8  1  0  0  0  0
  7 12  1  0  0  0  0
  8  9  1  0  0  0  0
  9 10  1  0  0  0  0
 10 11  1  0  0  0  0
 10 13  1  0  0  0  0
 11 12  1  0  0  0  0
 14 15  4  0  0  0  0
 14 38  4  0  0  0  0
 15 16  1  0  0  0  0
 15 35  4  0  0  0  0
 16 17  1  0  0  0  0
 16 32  1  0  0  0  0
 17 18  1  0  0  0  0
 18 19  2  0  0  0  0
 18 20  1  0  0  0  0
 20 21  4  0  0  0  0
 20 25  4  0  0  0  0
 21 22  4  0  0  0  0
 22 23  4  0  0  0  0
 23 24  4  0  0  0  0
 24 25  4  0  0  0  0
 25 26  1  0  0  0  0
 26 27  1  0  0  0  0
 26 31  1  0  0  0  0
 27 28  1  0  0  0  0
 28 29  1  0  0  0  0
 29 30  1  0  0  0  0
 30 31  1  0  0  0  0
 32 33  4  0  0  0  0
 33 34  4  0  0  0  0
 35 36  4  0  0  0  0
 36 37  4  0  0  0  0
 37 38  4  0  0  0  0
M  END
>  <Name_Molregno>
357244

>  <DOPAMINE D1>
8.11

>  <DOPAMINE D2>
6.67

$$$$
357249
  Marvin  02231216192D 0   1.00000     0.00000     0

 33 37  0  0  0  0  0  0  0  0999 V2000
   -2.2970   -2.4654    0.0000 Cl  0  0  0  0  0  0  0  0  0
   -1.5087   -2.7086    0.0000 C   0  0  0  0  0  0  0  0  0
   -0.9039   -2.1475    0.0000 C   0  0  0  0  0  0  0  0  0
   -0.1156   -2.3906    0.0000 C   0  0  0  0  0  0  0  0  0
    0.3988   -1.7456    0.0000 N   0  0  0  0  0  0  0  0  0
    1.2238   -1.7456    0.0000 C   0  0  0  0  0  0  0  0  0
    1.5818   -1.0023    0.0000 N   0  0  0  0  0  0  0  0  0
    1.1170   -0.3207    0.0000 C   0  0  0  0  0  0  0  0  0
    1.4750    0.4226    0.0000 C   0  0  0  0  0  0  0  0  0
    2.2977    0.4843    0.0000 N   0  0  0  0  0  0  0  0  0
    2.7624   -0.1974    0.0000 C   0  0  0  0  0  0  0  0  0
    2.4045   -0.9407    0.0000 C   0  0  0  0  0  0  0  0  0
    2.6556    1.2276    0.0000 C   0  0  0  0  0  0  0  0  0
    1.7382   -2.3906    0.0000 C   0  0  0  0  0  0  0  0  0
    1.5546   -3.1949    0.0000 C   0  0  0  0  0  0  0  0  0
    0.8113   -3.5529    0.0000 N   0  0  0  0  0  0  0  0  0
    0.8113   -4.3779    0.0000 S   0  0  0  0  0  0  0  0  0
   -0.0137   -4.3779    0.0000 O   0  0  0  0  0  0  0  0  0
    1.6363   -4.3779    0.0000 O   0  0  0  0  0  0  0  0  0
    0.8113   -5.2029    0.0000 C   0  0  0  0  0  0  0  0  0
    1.5258   -5.6154    0.0000 C   0  0  0  0  0  0  0  0  0
    1.5258   -6.4404    0.0000 C   0  0  0  0  0  0  0  0  0
    0.8113   -6.8529    0.0000 C   0  0  0  0  0  0  0  0  0
    0.0968   -6.4404    0.0000 C   0  0  0  0  0  0  0  0  0
    0.0968   -5.6154    0.0000 C   0  0  0  0  0  0  0  0  0
    0.8113   -7.6779    0.0000 C   0  0  0  0  0  0  0  0  0
    0.0680   -3.1949    0.0000 C   0  0  0  0  0  0  0  0  0
   -0.5368   -3.7561    0.0000 C   0  0  0  0  0  0  0  0  0
   -1.3251   -3.5129    0.0000 C   0  0  0  0  0  0  0  0  0
    2.1594   -3.7561    0.0000 C   0  0  0  0  0  0  0  0  0
    2.9477   -3.5129    0.0000 C   0  0  0  0  0  0  0  0  0
    3.1313   -2.7086    0.0000 C   0  0  0  0  0  0  0  0  0
    2.5265   -2.1475    0.0000 C   0  0  0  0  0  0  0  0  0
  1  2  1  0  0  0  0
  2  3  4  0  0  0  0
  2 29  4  0  0  0  0
  3  4  4  0  0  0  0
  4  5  1  0  0  0  0
  4 27  4  0  0  0  0
  5  6  2  0  0  0  0
  6  7  1  0  0  0  0
  6 14  1  0  0  0  0
  7  8  1  0  0  0  0
  7 12  1  0  0  0  0
  8  9  1  0  0  0  0
  9 10  1  0  0  0  0
 10 11  1  0  0  0  0
 10 13  1  0  0  0  0
 11 12  1  0  0  0  0
 14 15  4  0  0  0  0
 14 33  4  0  0  0  0
 15 16  1  0  0  0  0
 15 30  4  0  0  0  0
 16 17  1  0  0  0  0
 16 27  1  0  0  0  0
 17 18  2  0  0  0  0
 17 19  2  0  0  0  0
 17 20  1  0  0  0  0
 20 21  4  0  0  0  0
 20 25  4  0  0  0  0
 21 22  4  0  0  0  0
 22 23  4  0  0  0  0
 23 24  4  0  0  0  0
 23 26  1  0  0  0  0
 24 25  4  0  0  0  0
 27 28  4  0  0  0  0
 28 29  4  0  0  0  0
 30 31  4  0  0  0  0
 31 32  4  0  0  0  0
 32 33  4  0  0  0  0
M  END
>  <Name_Molregno>
357249

>  <DOPAMINE D1>
7.19

>  <DOPAMINE D2>
6.47

$$$$
357250
  Marvin  02231216192D 0   1.00000     0.00000     0

 33 37  0  0  0  0  0  0  0  0999 V2000
   -2.8026   -2.6914    0.0000 Cl  0  0  0  0  0  0  0  0  0
   -2.0142   -2.9346    0.0000 C   0  0  0  0  0  0  0  0  0
   -1.4095   -2.3734    0.0000 C   0  0  0  0  0  0  0  0  0
   -0.6211   -2.6166    0.0000 C   0  0  0  0  0  0  0  0  0
   -0.1067   -1.9716    0.0000 N   0  0  0  0  0  0  0  0  0
    0.7183   -1.9716    0.0000 C   0  0  0  0  0  0  0  0  0
    1.0762   -1.2283    0.0000 N   0  0  0  0  0  0  0  0  0
    0.6115   -0.5467    0.0000 C   0  0  0  0  0  0  0  0  0
    0.9694    0.1966    0.0000 C   0  0  0  0  0  0  0  0  0
    1.7921    0.2583    0.0000 N   0  0  0  0  0  0  0  0  0
    2.2569   -0.4234    0.0000 C   0  0  0  0  0  0  0  0  0
    1.8989   -1.1667    0.0000 C   0  0  0  0  0  0  0  0  0
    2.1501    1.0016    0.0000 C   0  0  0  0  0  0  0  0  0
    1.2326   -2.6166    0.0000 C   0  0  0  0  0  0  0  0  0
    1.0491   -3.4209    0.0000 C   0  0  0  0  0  0  0  0  0
    0.3058   -3.7789    0.0000 N   0  0  0  0  0  0  0  0  0
    0.3058   -4.6039    0.0000 S   0  0  0  0  0  0  0  0  0
   -0.5192   -4.6039    0.0000 O   0  0  0  0  0  0  0  0  0
    1.1308   -4.6039    0.0000 O   0  0  0  0  0  0  0  0  0
    0.3058   -5.4289    0.0000 C   0  0  0  0  0  0  0  0  0
    1.0202   -5.8414    0.0000 C   0  0  0  0  0  0  0  0  0
    1.0202   -6.6664    0.0000 C   0  0  0  0  0  0  0  0  0
    0.3058   -7.0789    0.0000 C   0  0  0  0  0  0  0  0  0
   -0.4087   -6.6664    0.0000 C   0  0  0  0  0  0  0  0  0
   -0.4087   -5.8414    0.0000 C   0  0  0  0  0  0  0  0  0
   -1.1232   -5.4289    0.0000 C   0  0  0  0  0  0  0  0  0
   -0.4375   -3.4209    0.0000 C   0  0  0  0  0  0  0  0  0
   -1.0423   -3.9821    0.0000 C   0  0  0  0  0  0  0  0  0
   -1.8307   -3.7389    0.0000 C   0  0  0  0  0  0  0  0  0
    1.6538   -3.9821    0.0000 C   0  0  0  0  0  0  0  0  0
    2.4422   -3.7389    0.0000 C   0  0  0  0  0  0  0  0  0
    2.6258   -2.9346    0.0000 C   0  0  0  0  0  0  0  0  0
    2.0210   -2.3734    0.0000 C   0  0  0  0  0  0  0  0  0
  1  2  1  0  0  0  0
  2  3  4  0  0  0  0
  2 29  4  0  0  0  0
  3  4  4  0  0  0  0
  4  5  1  0  0  0  0
  4 27  4  0  0  0  0
  5  6  2  0  0  0  0
  6  7  1  0  0  0  0
  6 14  1  0  0  0  0
  7  8  1  0  0  0  0
  7 12  1  0  0  0  0
  8  9  1  0  0  0  0
  9 10  1  0  0  0  0
 10 11  1  0  0  0  0
 10 13  1  0  0  0  0
 11 12  1  0  0  0  0
 14 15  4  0  0  0  0
 14 33  4  0  0  0  0
 15 16  1  0  0  0  0
 15 30  4  0  0  0  0
 16 17  1  0  0  0  0
 16 27  1  0  0  0  0
 17 18  2  0  0  0  0
 17 19  2  0  0  0  0
 17 20  1  0  0  0  0
 20 21  4  0  0  0  0
 20 25  4  0  0  0  0
 21 22  4  0  0  0  0
 22 23  4  0  0  0  0
 23 24  4  0  0  0  0
 24 25  4  0  0  0  0
 25 26  1  0  0  0  0
 27 28  4  0  0  0  0
 28 29  4  0  0  0  0
 30 31  4  0  0  0  0
 31 32  4  0  0  0  0
 32 33  4  0  0  0  0
M  END
>  <Name_Molregno>
357250

>  <DOPAMINE D1>
7.15

>  <DOPAMINE D2>
7.2

$$$$
357251
  Marvin  02231216192D 0   1.00000     0.00000     0

 33 37  0  0  0  0  0  0  0  0999 V2000
   -3.9700   -2.7925    0.0000 Cl  0  0  0  0  0  0  0  0  0
   -3.1817   -3.0356    0.0000 C   0  0  0  0  0  0  0  0  0
   -2.5769   -2.4745    0.0000 C   0  0  0  0  0  0  0  0  0
   -1.7886   -2.7177    0.0000 C   0  0  0  0  0  0  0  0  0
   -1.2742   -2.0726    0.0000 N   0  0  0  0  0  0  0  0  0
   -0.4492   -2.0726    0.0000 C   0  0  0  0  0  0  0  0  0
   -0.0912   -1.3293    0.0000 N   0  0  0  0  0  0  0  0  0
   -0.5560   -0.6477    0.0000 C   0  0  0  0  0  0  0  0  0
   -0.1980    0.0956    0.0000 C   0  0  0  0  0  0  0  0  0
    0.6247    0.1573    0.0000 N   0  0  0  0  0  0  0  0  0
    1.0894   -0.5244    0.0000 C   0  0  0  0  0  0  0  0  0
    0.7315   -1.2677    0.0000 C   0  0  0  0  0  0  0  0  0
    0.9826    0.9006    0.0000 C   0  0  0  0  0  0  0  0  0
    0.0652   -2.7177    0.0000 C   0  0  0  0  0  0  0  0  0
   -0.1184   -3.5220    0.0000 C   0  0  0  0  0  0  0  0  0
   -0.8617   -3.8799    0.0000 N   0  0  0  0  0  0  0  0  0
   -0.8617   -4.7049    0.0000 N   0  0  0  0  0  0  0  0  0
   -0.1472   -5.1174    0.0000 C   0  0  0  0  0  0  0  0  0
   -0.1472   -5.9424    0.0000 C   0  0  0  0  0  0  0  0  0
    0.5673   -6.3549    0.0000 C   0  0  0  0  0  0  0  0  0
    0.5673   -7.1799    0.0000 C   0  0  0  0  0  0  0  0  0
   -0.1472   -7.5924    0.0000 C   0  0  0  0  0  0  0  0  0
   -0.8617   -7.1799    0.0000 C   0  0  0  0  0  0  0  0  0
   -0.8617   -6.3549    0.0000 C   0  0  0  0  0  0  0  0  0
   -1.5761   -5.9424    0.0000 O   0  0  0  0  0  0  0  0  0
   -2.2906   -6.3549    0.0000 C   0  0  0  0  0  0  0  0  0
   -1.6050   -3.5220    0.0000 C   0  0  0  0  0  0  0  0  0
   -2.2097   -4.0831    0.0000 C   0  0  0  0  0  0  0  0  0
   -2.9981   -3.8399    0.0000 C   0  0  0  0  0  0  0  0  0
    0.4864   -4.0831    0.0000 C   0  0  0  0  0  0  0  0  0
    1.2747   -3.8399    0.0000 C   0  0  0  0  0  0  0  0  0
    1.4583   -3.0356    0.0000 C   0  0  0  0  0  0  0  0  0
    0.8535   -2.4745    0.0000 C   0  0  0  0  0  0  0  0  0
  1  2  1  0  0  0  0
  2  3  4  0  0  0  0
  2 29  4  0  0  0  0
  3  4  4  0  0  0  0
  4  5  1  0  0  0  0
  4 27  4  0  0  0  0
  5  6  2  0  0  0  0
  6  7  1  0  0  0  0
  6 14  1  0  0  0  0
  7  8  1  0  0  0  0
  7 12  1  0  0  0  0
  8  9  1  0  0  0  0
  9 10  1  0  0  0  0
 10 11  1  0  0  0  0
 10 13  1  0  0  0  0
 11 12  1  0  0  0  0
 14 15  4  0  0  0  0
 14 33  4  0  0  0  0
 15 16  1  0  0  0  0
 15 30  4  0  0  0  0
 16 17  1  0  0  0  0
 16 27  1  0  0  0  0
 17 18  1  0  0  0  0
 18 19  1  0  0  0  0
 19 20  4  0  0  0  0
 19 24  4  0  0  0  0
 20 21  4  0  0  0  0
 21 22  4  0  0  0  0
 22 23  4  0  0  0  0
 23 24  4  0  0  0  0
 24 25  1  0  0  0  0
 25 26  1  0  0  0  0
 27 28  4  0  0  0  0
 28 29  4  0  0  0  0
 30 31  4  0  0  0  0
 31 32  4  0  0  0  0
 32 33  4  0  0  0  0
M  END
>  <Name_Molregno>
357251

>  <DOPAMINE D1>
7.22

>  <DOPAMINE D2>
6.69

$$$$
357253
  Marvin  02231216192D 0   1.00000     0.00000     0

 34 38  0  0  0  0  0  0  0  0999 V2000
   -4.6019   -2.5921    0.0000 Cl  0  0  0  0  0  0  0  0  0
   -3.8135   -2.8353    0.0000 C   0  0  0  0  0  0  0  0  0
   -3.2088   -2.2741    0.0000 C   0  0  0  0  0  0  0  0  0
   -2.4204   -2.5173    0.0000 C   0  0  0  0  0  0  0  0  0
   -1.9060   -1.8723    0.0000 N   0  0  0  0  0  0  0  0  0
   -1.0810   -1.8723    0.0000 C   0  0  0  0  0  0  0  0  0
   -0.7231   -1.1290    0.0000 N   0  0  0  0  0  0  0  0  0
   -1.1878   -0.4474    0.0000 C   0  0  0  0  0  0  0  0  0
   -0.8299    0.2959    0.0000 C   0  0  0  0  0  0  0  0  0
   -0.0072    0.3576    0.0000 N   0  0  0  0  0  0  0  0  0
    0.4576   -0.3241    0.0000 C   0  0  0  0  0  0  0  0  0
    0.0996   -1.0674    0.0000 C   0  0  0  0  0  0  0  0  0
    0.3508    1.1009    0.0000 C   0  0  0  0  0  0  0  0  0
   -0.5667   -2.5173    0.0000 C   0  0  0  0  0  0  0  0  0
   -0.7502   -3.3216    0.0000 C   0  0  0  0  0  0  0  0  0
   -1.4935   -3.6796    0.0000 N   0  0  0  0  0  0  0  0  0
   -1.4935   -4.5046    0.0000 N   0  0  0  0  0  0  0  0  0
   -0.7791   -4.9171    0.0000 C   0  0  0  0  0  0  0  0  0
   -0.0646   -4.5046    0.0000 O   0  0  0  0  0  0  0  0  0
   -0.7791   -5.7421    0.0000 C   0  0  0  0  0  0  0  0  0
   -0.0646   -6.1546    0.0000 C   0  0  0  0  0  0  0  0  0
   -0.0646   -6.9796    0.0000 C   0  0  0  0  0  0  0  0  0
   -0.7791   -7.3921    0.0000 C   0  0  0  0  0  0  0  0  0
   -1.4935   -6.9796    0.0000 C   0  0  0  0  0  0  0  0  0
   -2.2080   -7.3921    0.0000 F   0  0  0  0  0  0  0  0  0
   -1.4935   -6.1546    0.0000 C   0  0  0  0  0  0  0  0  0
   -2.2080   -5.7421    0.0000 F   0  0  0  0  0  0  0  0  0
   -2.2368   -3.3216    0.0000 C   0  0  0  0  0  0  0  0  0
   -2.8416   -3.8828    0.0000 C   0  0  0  0  0  0  0  0  0
   -3.6299   -3.6396    0.0000 C   0  0  0  0  0  0  0  0  0
   -0.1455   -3.8828    0.0000 C   0  0  0  0  0  0  0  0  0
    0.6429   -3.6396    0.0000 C   0  0  0  0  0  0  0  0  0
    0.8265   -2.8353    0.0000 C   0  0  0  0  0  0  0  0  0
    0.2217   -2.2741    0.0000 C   0  0  0  0  0  0  0  0  0
  1  2  1  0  0  0  0
  2  3  4  0  0  0  0
  2 30  4  0  0  0  0
  3  4  4  0  0  0  0
  4  5  1  0  0  0  0
  4 28  4  0  0  0  0
  5  6  2  0  0  0  0
  6  7  1  0  0  0  0
  6 14  1  0  0  0  0
  7  8  1  0  0  0  0
  7 12  1  0  0  0  0
  8  9  1  0  0  0  0
  9 10  1  0  0  0  0
 10 11  1  0  0  0  0
 10 13  1  0  0  0  0
 11 12  1  0  0  0  0
 14 15  4  0  0  0  0
 14 34  4  0  0  0  0
 15 16  1  0  0  0  0
 15 31  4  0  0  0  0
 16 17  1  0  0  0  0
 16 28  1  0  0  0  0
 17 18  1  0  0  0  0
 18 19  2  0  0  0  0
 18 20  1  0  0  0  0
 20 21  4  0  0  0  0
 20 26  4  0  0  0  0
 21 22  4  0  0  0  0
 22 23  4  0  0  0  0
 23 24  4  0  0  0  0
 24 25  1  0  0  0  0
 24 26  4  0  0  0  0
 26 27  1  0  0  0  0
 28 29  4  0  0  0  0
 29 30  4  0  0  0  0
 31 32  4  0  0  0  0
 32 33  4  0  0  0  0
 33 34  4  0  0  0  0
M  END
>  <Name_Molregno>
357253

>  <DOPAMINE D1>
7.8

>  <DOPAMINE D2>
6.27

$$$$
357266
  Marvin  02231216192D 0   1.00000     0.00000     0

 34 38  0  0  0  0  0  0  0  0999 V2000
    5.4922   -0.8949    0.0000 Cl  0  0  0  0  0  0  0  0  0
    4.7038   -1.1380    0.0000 C   0  0  0  0  0  0  0  0  0
    4.0991   -0.5769    0.0000 C   0  0  0  0  0  0  0  0  0
    3.3107   -0.8201    0.0000 C   0  0  0  0  0  0  0  0  0
    3.1271   -1.6244    0.0000 C   0  0  0  0  0  0  0  0  0
    2.3838   -1.9823    0.0000 N   0  0  0  0  0  0  0  0  0
    2.3838   -2.8073    0.0000 N   0  0  0  0  0  0  0  0  0
    1.6694   -3.2198    0.0000 C   0  0  0  0  0  0  0  0  0
    0.9549   -2.8073    0.0000 O   0  0  0  0  0  0  0  0  0
    1.6694   -4.0448    0.0000 C   0  0  0  0  0  0  0  0  0
    2.3838   -4.4573    0.0000 C   0  0  0  0  0  0  0  0  0
    2.3838   -5.2823    0.0000 C   0  0  0  0  0  0  0  0  0
    1.6694   -5.6948    0.0000 C   0  0  0  0  0  0  0  0  0
    0.9549   -5.2823    0.0000 C   0  0  0  0  0  0  0  0  0
    0.9549   -4.4573    0.0000 C   0  0  0  0  0  0  0  0  0
    3.0983   -5.6948    0.0000 C   0  0  0  0  0  0  0  0  0
    3.8128   -6.1073    0.0000 N   0  0  0  0  0  0  0  0  0
    1.6405   -1.6244    0.0000 C   0  0  0  0  0  0  0  0  0
    1.4570   -0.8201    0.0000 C   0  0  0  0  0  0  0  0  0
    1.9713   -0.1751    0.0000 N   0  0  0  0  0  0  0  0  0
    2.7963   -0.1751    0.0000 C   0  0  0  0  0  0  0  0  0
    3.1543    0.5682    0.0000 N   0  0  0  0  0  0  0  0  0
    2.6896    1.2499    0.0000 C   0  0  0  0  0  0  0  0  0
    3.0475    1.9932    0.0000 C   0  0  0  0  0  0  0  0  0
    3.8702    2.0548    0.0000 N   0  0  0  0  0  0  0  0  0
    4.3350    1.3732    0.0000 C   0  0  0  0  0  0  0  0  0
    3.9770    0.6299    0.0000 C   0  0  0  0  0  0  0  0  0
    4.2282    2.7981    0.0000 C   0  0  0  0  0  0  0  0  0
    0.6686   -0.5769    0.0000 C   0  0  0  0  0  0  0  0  0
    0.0639   -1.1380    0.0000 C   0  0  0  0  0  0  0  0  0
    0.2474   -1.9424    0.0000 C   0  0  0  0  0  0  0  0  0
    1.0358   -2.1855    0.0000 C   0  0  0  0  0  0  0  0  0
    3.7319   -2.1855    0.0000 C   0  0  0  0  0  0  0  0  0
    4.5203   -1.9424    0.0000 C   0  0  0  0  0  0  0  0  0
  1  2  1  0  0  0  0
  2  3  4  0  0  0  0
  2 34  4  0  0  0  0
  3  4  4  0  0  0  0
  4  5  4  0  0  0  0
  4 21  1  0  0  0  0
  5  6  1  0  0  0  0
  5 33  4  0  0  0  0
  6  7  1  0  0  0  0
  6 18  1  0  0  0  0
  7  8  1  0  0  0  0
  8  9  2  0  0  0  0
  8 10  1  0  0  0  0
 10 11  4  0  0  0  0
 10 15  4  0  0  0  0
 11 12  4  0  0  0  0
 12 13  4  0  0  0  0
 12 16  1  0  0  0  0
 13 14  4  0  0  0  0
 14 15  4  0  0  0  0
 16 17  3  0  0  0  0
 18 19  4  0  0  0  0
 18 32  4  0  0  0  0
 19 20  1  0  0  0  0
 19 29  4  0  0  0  0
 20 21  2  0  0  0  0
 21 22  1  0  0  0  0
 22 23  1  0  0  0  0
 22 27  1  0  0  0  0
 23 24  1  0  0  0  0
 24 25  1  0  0  0  0
 25 26  1  0  0  0  0
 25 28  1  0  0  0  0
 26 27  1  0  0  0  0
 29 30  4  0  0  0  0
 30 31  4  0  0  0  0
 31 32  4  0  0  0  0
 33 34  4  0  0  0  0
M  END
>  <Name_Molregno>
357266

>  <DOPAMINE D1>
7

>  <DOPAMINE D2>
5.93

$$$$
357267
  Marvin  02231216192D 0   1.00000     0.00000     0

 34 38  0  0  0  0  0  0  0  0999 V2000
    5.5566   -0.7843    0.0000 Cl  0  0  0  0  0  0  0  0  0
    4.7683   -1.0275    0.0000 C   0  0  0  0  0  0  0  0  0
    4.1635   -0.4663    0.0000 C   0  0  0  0  0  0  0  0  0
    3.3751   -0.7095    0.0000 C   0  0  0  0  0  0  0  0  0
    3.1916   -1.5138    0.0000 C   0  0  0  0  0  0  0  0  0
    2.4483   -1.8718    0.0000 N   0  0  0  0  0  0  0  0  0
    2.4483   -2.6968    0.0000 N   0  0  0  0  0  0  0  0  0
    1.7338   -3.1093    0.0000 C   0  0  0  0  0  0  0  0  0
    1.0193   -2.6968    0.0000 O   0  0  0  0  0  0  0  0  0
    1.7338   -3.9343    0.0000 C   0  0  0  0  0  0  0  0  0
    2.4483   -4.3468    0.0000 C   0  0  0  0  0  0  0  0  0
    2.4483   -5.1718    0.0000 C   0  0  0  0  0  0  0  0  0
    3.1627   -5.5843    0.0000 O   0  0  0  0  0  0  0  0  0
    3.1627   -6.4093    0.0000 C   0  0  0  0  0  0  0  0  0
    1.7338   -5.5843    0.0000 C   0  0  0  0  0  0  0  0  0
    1.0193   -5.1718    0.0000 C   0  0  0  0  0  0  0  0  0
    1.0193   -4.3468    0.0000 C   0  0  0  0  0  0  0  0  0
    1.7050   -1.5138    0.0000 C   0  0  0  0  0  0  0  0  0
    1.5214   -0.7095    0.0000 C   0  0  0  0  0  0  0  0  0
    2.0358   -0.0645    0.0000 N   0  0  0  0  0  0  0  0  0
    2.8608   -0.0645    0.0000 C   0  0  0  0  0  0  0  0  0
    3.2187    0.6788    0.0000 N   0  0  0  0  0  0  0  0  0
    2.7540    1.3605    0.0000 C   0  0  0  0  0  0  0  0  0
    3.1119    2.1038    0.0000 C   0  0  0  0  0  0  0  0  0
    3.9346    2.1654    0.0000 N   0  0  0  0  0  0  0  0  0
    4.3994    1.4838    0.0000 C   0  0  0  0  0  0  0  0  0
    4.0414    0.7405    0.0000 C   0  0  0  0  0  0  0  0  0
    4.2926    2.9087    0.0000 C   0  0  0  0  0  0  0  0  0
    0.7330   -0.4663    0.0000 C   0  0  0  0  0  0  0  0  0
    0.1283   -1.0275    0.0000 C   0  0  0  0  0  0  0  0  0
    0.3118   -1.8318    0.0000 C   0  0  0  0  0  0  0  0  0
    1.1002   -2.0749    0.0000 C   0  0  0  0  0  0  0  0  0
    3.7963   -2.0749    0.0000 C   0  0  0  0  0  0  0  0  0
    4.5847   -1.8318    0.0000 C   0  0  0  0  0  0  0  0  0
  1  2  1  0  0  0  0
  2  3  4  0  0  0  0
  2 34  4  0  0  0  0
  3  4  4  0  0  0  0
  4  5  4  0  0  0  0
  4 21  1  0  0  0  0
  5  6  1  0  0  0  0
  5 33  4  0  0  0  0
  6  7  1  0  0  0  0
  6 18  1  0  0  0  0
  7  8  1  0  0  0  0
  8  9  2  0  0  0  0
  8 10  1  0  0  0  0
 10 11  4  0  0  0  0
 10 17  4  0  0  0  0
 11 12  4  0  0  0  0
 12 13  1  0  0  0  0
 12 15  4  0  0  0  0
 13 14  1  0  0  0  0
 15 16  4  0  0  0  0
 16 17  4  0  0  0  0
 18 19  4  0  0  0  0
 18 32  4  0  0  0  0
 19 20  1  0  0  0  0
 19 29  4  0  0  0  0
 20 21  2  0  0  0  0
 21 22  1  0  0  0  0
 22 23  1  0  0  0  0
 22 27  1  0  0  0  0
 23 24  1  0  0  0  0
 24 25  1  0  0  0  0
 25 26  1  0  0  0  0
 25 28  1  0  0  0  0
 26 27  1  0  0  0  0
 29 30  4  0  0  0  0
 30 31  4  0  0  0  0
 31 32  4  0  0  0  0
 33 34  4  0  0  0  0
M  END
>  <Name_Molregno>
357267

>  <DOPAMINE D1>
7.07

>  <DOPAMINE D2>
5.86

$$$$
357277
  Marvin  02231216192D 0   1.00000     0.00000     0

 31 35  0  0  0  0  0  0  0  0999 V2000
   -3.5398   -2.9572    0.0000 Cl  0  0  0  0  0  0  0  0  0
   -2.7514   -3.2003    0.0000 C   0  0  0  0  0  0  0  0  0
   -2.1467   -2.6392    0.0000 C   0  0  0  0  0  0  0  0  0
   -1.3583   -2.8824    0.0000 C   0  0  0  0  0  0  0  0  0
   -0.8439   -2.2374    0.0000 N   0  0  0  0  0  0  0  0  0
   -0.0189   -2.2374    0.0000 C   0  0  0  0  0  0  0  0  0
    0.3390   -1.4941    0.0000 N   0  0  0  0  0  0  0  0  0
   -0.1257   -0.8124    0.0000 C   0  0  0  0  0  0  0  0  0
    0.2322   -0.0691    0.0000 C   0  0  0  0  0  0  0  0  0
    1.0549   -0.0075    0.0000 N   0  0  0  0  0  0  0  0  0
    1.5197   -0.6891    0.0000 C   0  0  0  0  0  0  0  0  0
    1.1617   -1.4324    0.0000 C   0  0  0  0  0  0  0  0  0
    1.4129    0.7358    0.0000 C   0  0  0  0  0  0  0  0  0
    0.4955   -2.8824    0.0000 C   0  0  0  0  0  0  0  0  0
    0.3119   -3.6867    0.0000 C   0  0  0  0  0  0  0  0  0
   -0.4314   -4.0446    0.0000 N   0  0  0  0  0  0  0  0  0
   -0.4314   -4.8696    0.0000 N   0  0  0  0  0  0  0  0  0
    0.2830   -5.2821    0.0000 C   0  0  0  0  0  0  0  0  0
    0.9975   -4.8696    0.0000 O   0  0  0  0  0  0  0  0  0
    0.2830   -6.1071    0.0000 C   0  0  0  0  0  0  0  0  0
    0.9505   -6.5921    0.0000 O   0  0  0  0  0  0  0  0  0
    0.6955   -7.3767    0.0000 C   0  0  0  0  0  0  0  0  0
   -0.1295   -7.3767    0.0000 C   0  0  0  0  0  0  0  0  0
   -0.3844   -6.5921    0.0000 C   0  0  0  0  0  0  0  0  0
   -1.1747   -3.6867    0.0000 C   0  0  0  0  0  0  0  0  0
   -1.7795   -4.2478    0.0000 C   0  0  0  0  0  0  0  0  0
   -2.5678   -4.0047    0.0000 C   0  0  0  0  0  0  0  0  0
    0.9166   -4.2478    0.0000 C   0  0  0  0  0  0  0  0  0
    1.7050   -4.0047    0.0000 C   0  0  0  0  0  0  0  0  0
    1.8886   -3.2003    0.0000 C   0  0  0  0  0  0  0  0  0
    1.2838   -2.6392    0.0000 C   0  0  0  0  0  0  0  0  0
  1  2  1  0  0  0  0
  2  3  4  0  0  0  0
  2 27  4  0  0  0  0
  3  4  4  0  0  0  0
  4  5  1  0  0  0  0
  4 25  4  0  0  0  0
  5  6  2  0  0  0  0
  6  7  1  0  0  0  0
  6 14  1  0  0  0  0
  7  8  1  0  0  0  0
  7 12  1  0  0  0  0
  8  9  1  0  0  0  0
  9 10  1  0  0  0  0
 10 11  1  0  0  0  0
 10 13  1  0  0  0  0
 11 12  1  0  0  0  0
 14 15  4  0  0  0  0
 14 31  4  0  0  0  0
 15 16  1  0  0  0  0
 15 28  4  0  0  0  0
 16 17  1  0  0  0  0
 16 25  1  0  0  0  0
 17 18  1  0  0  0  0
 18 19  2  0  0  0  0
 18 20  1  0  0  0  0
 20 21  4  0  0  0  0
 20 24  4  0  0  0  0
 21 22  4  0  0  0  0
 22 23  4  0  0  0  0
 23 24  4  0  0  0  0
 25 26  4  0  0  0  0
 26 27  4  0  0  0  0
 28 29  4  0  0  0  0
 29 30  4  0  0  0  0
 30 31  4  0  0  0  0
M  END
>  <Name_Molregno>
357277

>  <DOPAMINE D1>
7.82

>  <DOPAMINE D2>
6.08

$$$$
357278
  Marvin  02231216192D 0   1.00000     0.00000     0

 39 44  0  0  0  0  0  0  0  0999 V2000
   -4.5411   -2.3239    0.0000 Cl  0  0  0  0  0  0  0  0  0
   -3.7528   -2.5671    0.0000 C   0  0  0  0  0  0  0  0  0
   -3.1480   -2.0060    0.0000 C   0  0  0  0  0  0  0  0  0
   -2.3597   -2.2492    0.0000 C   0  0  0  0  0  0  0  0  0
   -1.8453   -1.6041    0.0000 N   0  0  0  0  0  0  0  0  0
   -1.0203   -1.6041    0.0000 C   0  0  0  0  0  0  0  0  0
   -0.6623   -0.8608    0.0000 N   0  0  0  0  0  0  0  0  0
   -1.1271   -0.1792    0.0000 C   0  0  0  0  0  0  0  0  0
   -0.7691    0.5641    0.0000 C   0  0  0  0  0  0  0  0  0
    0.0536    0.6258    0.0000 N   0  0  0  0  0  0  0  0  0
    0.5183   -0.0559    0.0000 C   0  0  0  0  0  0  0  0  0
    0.1604   -0.7992    0.0000 C   0  0  0  0  0  0  0  0  0
    0.4115    1.3691    0.0000 C   0  0  0  0  0  0  0  0  0
   -0.5059   -2.2492    0.0000 C   0  0  0  0  0  0  0  0  0
   -0.6895   -3.0535    0.0000 C   0  0  0  0  0  0  0  0  0
   -1.4328   -3.4114    0.0000 N   0  0  0  0  0  0  0  0  0
   -1.4328   -4.2364    0.0000 N   0  0  0  0  0  0  0  0  0
   -0.7183   -4.6489    0.0000 C   0  0  0  0  0  0  0  0  0
   -0.0038   -4.2364    0.0000 O   0  0  0  0  0  0  0  0  0
   -0.7183   -5.4739    0.0000 C   0  0  0  0  0  0  0  0  0
   -1.4328   -5.8864    0.0000 C   0  0  0  0  0  0  0  0  0
   -1.4328   -6.7114    0.0000 C   0  0  0  0  0  0  0  0  0
   -0.7183   -7.1239    0.0000 C   0  0  0  0  0  0  0  0  0
   -0.0038   -6.7114    0.0000 C   0  0  0  0  0  0  0  0  0
   -0.0038   -5.8864    0.0000 C   0  0  0  0  0  0  0  0  0
    0.7106   -5.4739    0.0000 O   0  0  0  0  0  0  0  0  0
    1.4251   -5.8864    0.0000 C   0  0  0  0  0  0  0  0  0
    2.1396   -5.4739    0.0000 C   0  0  0  0  0  0  0  0  0
   -2.1472   -7.1239    0.0000 C   0  0  0  0  0  0  0  0  0
   -2.8617   -6.7114    0.0000 C   0  0  0  0  0  0  0  0  0
   -2.8617   -5.8864    0.0000 C   0  0  0  0  0  0  0  0  0
   -2.1472   -5.4739    0.0000 C   0  0  0  0  0  0  0  0  0
   -2.1761   -3.0535    0.0000 C   0  0  0  0  0  0  0  0  0
   -2.7808   -3.6146    0.0000 C   0  0  0  0  0  0  0  0  0
   -3.5692   -3.3714    0.0000 C   0  0  0  0  0  0  0  0  0
   -0.0847   -3.6146    0.0000 C   0  0  0  0  0  0  0  0  0
    0.7036   -3.3714    0.0000 C   0  0  0  0  0  0  0  0  0
    0.8872   -2.5671    0.0000 C   0  0  0  0  0  0  0  0  0
    0.2825   -2.0060    0.0000 C   0  0  0  0  0  0  0  0  0
  1  2  1  0  0  0  0
  2  3  4  0  0  0  0
  2 35  4  0  0  0  0
  3  4  4  0  0  0  0
  4  5  1  0  0  0  0
  4 33  4  0  0  0  0
  5  6  2  0  0  0  0
  6  7  1  0  0  0  0
  6 14  1  0  0  0  0
  7  8  1  0  0  0  0
  7 12  1  0  0  0  0
  8  9  1  0  0  0  0
  9 10  1  0  0  0  0
 10 11  1  0  0  0  0
 10 13  1  0  0  0  0
 11 12  1  0  0  0  0
 14 15  4  0  0  0  0
 14 39  4  0  0  0  0
 15 16  1  0  0  0  0
 15 36  4  0  0  0  0
 16 17  1  0  0  0  0
 16 33  1  0  0  0  0
 17 18  1  0  0  0  0
 18 19  2  0  0  0  0
 18 20  1  0  0  0  0
 20 21  4  0  0  0  0
 20 25  4  0  0  0  0
 21 22  4  0  0  0  0
 21 32  4  0  0  0  0
 22 23  4  0  0  0  0
 22 29  4  0  0  0  0
 23 24  4  0  0  0  0
 24 25  4  0  0  0  0
 25 26  1  0  0  0  0
 26 27  1  0  0  0  0
 27 28  1  0  0  0  0
 29 30  4  0  0  0  0
 30 31  4  0  0  0  0
 31 32  4  0  0  0  0
 33 34  4  0  0  0  0
 34 35  4  0  0  0  0
 36 37  4  0  0  0  0
 37 38  4  0  0  0  0
 38 39  4  0  0  0  0
M  END
>  <Name_Molregno>
357278

>  <DOPAMINE D1>
7.19

>  <DOPAMINE D2>
6.56

$$$$
357279
  Marvin  02231216192D 0   1.00000     0.00000     0

 39 44  0  0  0  0  0  0  0  0999 V2000
   -3.3757   -2.9332    0.0000 Cl  0  0  0  0  0  0  0  0  0
   -2.5873   -3.1764    0.0000 C   0  0  0  0  0  0  0  0  0
   -1.9826   -2.6153    0.0000 C   0  0  0  0  0  0  0  0  0
   -1.1942   -2.8584    0.0000 C   0  0  0  0  0  0  0  0  0
   -0.6799   -2.2134    0.0000 N   0  0  0  0  0  0  0  0  0
    0.1451   -2.2134    0.0000 C   0  0  0  0  0  0  0  0  0
    0.5031   -1.4701    0.0000 N   0  0  0  0  0  0  0  0  0
    0.0384   -0.7885    0.0000 C   0  0  0  0  0  0  0  0  0
    0.3963   -0.0452    0.0000 C   0  0  0  0  0  0  0  0  0
    1.2190    0.0165    0.0000 N   0  0  0  0  0  0  0  0  0
    1.6838   -0.6652    0.0000 C   0  0  0  0  0  0  0  0  0
    1.3258   -1.4085    0.0000 C   0  0  0  0  0  0  0  0  0
    1.5770    0.7598    0.0000 C   0  0  0  0  0  0  0  0  0
    0.6595   -2.8584    0.0000 C   0  0  0  0  0  0  0  0  0
    0.4759   -3.6628    0.0000 C   0  0  0  0  0  0  0  0  0
   -0.2674   -4.0207    0.0000 N   0  0  0  0  0  0  0  0  0
   -0.2674   -4.8457    0.0000 N   0  0  0  0  0  0  0  0  0
   -0.9818   -5.2582    0.0000 C   0  0  0  0  0  0  0  0  0
   -1.6963   -4.8457    0.0000 O   0  0  0  0  0  0  0  0  0
   -0.9818   -6.0832    0.0000 C   0  0  0  0  0  0  0  0  0
   -0.2674   -6.4957    0.0000 C   0  0  0  0  0  0  0  0  0
   -0.2674   -7.3207    0.0000 C   0  0  0  0  0  0  0  0  0
   -0.9818   -7.7332    0.0000 C   0  0  0  0  0  0  0  0  0
   -1.6963   -7.3207    0.0000 C   0  0  0  0  0  0  0  0  0
   -1.6963   -6.4957    0.0000 C   0  0  0  0  0  0  0  0  0
   -2.4108   -6.0832    0.0000 N   0  0  0  0  0  0  0  0  0
   -3.1252   -6.4957    0.0000 C   0  0  0  0  0  0  0  0  0
   -3.8397   -6.0832    0.0000 C   0  0  0  0  0  0  0  0  0
   -3.8397   -5.2582    0.0000 N   0  0  0  0  0  0  0  0  0
   -3.1252   -4.8457    0.0000 C   0  0  0  0  0  0  0  0  0
   -2.4108   -5.2582    0.0000 C   0  0  0  0  0  0  0  0  0
   -4.5542   -4.8457    0.0000 C   0  0  0  0  0  0  0  0  0
   -1.0107   -3.6628    0.0000 C   0  0  0  0  0  0  0  0  0
   -1.6154   -4.2239    0.0000 C   0  0  0  0  0  0  0  0  0
   -2.4038   -3.9807    0.0000 C   0  0  0  0  0  0  0  0  0
    1.0807   -4.2239    0.0000 C   0  0  0  0  0  0  0  0  0
    1.8691   -3.9807    0.0000 C   0  0  0  0  0  0  0  0  0
    2.0526   -3.1764    0.0000 C   0  0  0  0  0  0  0  0  0
    1.4479   -2.6153    0.0000 C   0  0  0  0  0  0  0  0  0
  1  2  1  0  0  0  0
  2  3  4  0  0  0  0
  2 35  4  0  0  0  0
  3  4  4  0  0  0  0
  4  5  1  0  0  0  0
  4 33  4  0  0  0  0
  5  6  2  0  0  0  0
  6  7  1  0  0  0  0
  6 14  1  0  0  0  0
  7  8  1  0  0  0  0
  7 12  1  0  0  0  0
  8  9  1  0  0  0  0
  9 10  1  0  0  0  0
 10 11  1  0  0  0  0
 10 13  1  0  0  0  0
 11 12  1  0  0  0  0
 14 15  4  0  0  0  0
 14 39  4  0  0  0  0
 15 16  1  0  0  0  0
 15 36  4  0  0  0  0
 16 17  1  0  0  0  0
 16 33  1  0  0  0  0
 17 18  1  0  0  0  0
 18 19  2  0  0  0  0
 18 20  1  0  0  0  0
 20 21  4  0  0  0  0
 20 25  4  0  0  0  0
 21 22  4  0  0  0  0
 22 23  4  0  0  0  0
 23 24  4  0  0  0  0
 24 25  4  0  0  0  0
 25 26  1  0  0  0  0
 26 27  1  0  0  0  0
 26 31  1  0  0  0  0
 27 28  1  0  0  0  0
 28 29  1  0  0  0  0
 29 30  1  0  0  0  0
 29 32  1  0  0  0  0
 30 31  1  0  0  0  0
 33 34  4  0  0  0  0
 34 35  4  0  0  0  0
 36 37  4  0  0  0  0
 37 38  4  0  0  0  0
 38 39  4  0  0  0  0
M  END
>  <Name_Molregno>
357279

>  <DOPAMINE D1>
6.63

>  <DOPAMINE D2>
5.42

$$$$
357286
  Marvin  02231216192D 0   1.00000     0.00000     0

 34 38  0  0  0  0  0  0  0  0999 V2000
   -4.2606   -2.7375    0.0000 Cl  0  0  0  0  0  0  0  0  0
   -3.4722   -2.9807    0.0000 C   0  0  0  0  0  0  0  0  0
   -2.8674   -2.4195    0.0000 C   0  0  0  0  0  0  0  0  0
   -2.0791   -2.6627    0.0000 C   0  0  0  0  0  0  0  0  0
   -1.5647   -2.0177    0.0000 N   0  0  0  0  0  0  0  0  0
   -0.7397   -2.0177    0.0000 C   0  0  0  0  0  0  0  0  0
   -0.3818   -1.2744    0.0000 N   0  0  0  0  0  0  0  0  0
   -0.8465   -0.5927    0.0000 C   0  0  0  0  0  0  0  0  0
   -0.4886    0.1506    0.0000 C   0  0  0  0  0  0  0  0  0
    0.3341    0.2122    0.0000 N   0  0  0  0  0  0  0  0  0
    0.7989   -0.4694    0.0000 C   0  0  0  0  0  0  0  0  0
    0.4409   -1.2127    0.0000 C   0  0  0  0  0  0  0  0  0
    0.6921    0.9555    0.0000 C   0  0  0  0  0  0  0  0  0
   -0.2253   -2.6627    0.0000 C   0  0  0  0  0  0  0  0  0
   -0.4089   -3.4670    0.0000 C   0  0  0  0  0  0  0  0  0
   -1.1522   -3.8250    0.0000 N   0  0  0  0  0  0  0  0  0
   -1.1522   -4.6500    0.0000 N   0  0  0  0  0  0  0  0  0
   -0.4378   -5.0625    0.0000 C   0  0  0  0  0  0  0  0  0
    0.2767   -4.6500    0.0000 O   0  0  0  0  0  0  0  0  0
   -0.4378   -5.8875    0.0000 C   0  0  0  0  0  0  0  0  0
    0.2767   -6.3000    0.0000 C   0  0  0  0  0  0  0  0  0
    0.2767   -7.1250    0.0000 C   0  0  0  0  0  0  0  0  0
   -0.4378   -7.5375    0.0000 C   0  0  0  0  0  0  0  0  0
   -1.1522   -7.1250    0.0000 C   0  0  0  0  0  0  0  0  0
   -1.1522   -6.3000    0.0000 C   0  0  0  0  0  0  0  0  0
   -1.8667   -5.8875    0.0000 O   0  0  0  0  0  0  0  0  0
   -2.5812   -6.3000    0.0000 C   0  0  0  0  0  0  0  0  0
   -1.8955   -3.4670    0.0000 C   0  0  0  0  0  0  0  0  0
   -2.5003   -4.0281    0.0000 C   0  0  0  0  0  0  0  0  0
   -3.2886   -3.7850    0.0000 C   0  0  0  0  0  0  0  0  0
    0.1958   -4.0281    0.0000 C   0  0  0  0  0  0  0  0  0
    0.9842   -3.7850    0.0000 C   0  0  0  0  0  0  0  0  0
    1.1678   -2.9807    0.0000 C   0  0  0  0  0  0  0  0  0
    0.5630   -2.4195    0.0000 C   0  0  0  0  0  0  0  0  0
  1  2  1  0  0  0  0
  2  3  4  0  0  0  0
  2 30  4  0  0  0  0
  3  4  4  0  0  0  0
  4  5  1  0  0  0  0
  4 28  4  0  0  0  0
  5  6  2  0  0  0  0
  6  7  1  0  0  0  0
  6 14  1  0  0  0  0
  7  8  1  0  0  0  0
  7 12  1  0  0  0  0
  8  9  1  0  0  0  0
  9 10  1  0  0  0  0
 10 11  1  0  0  0  0
 10 13  1  0  0  0  0
 11 12  1  0  0  0  0
 14 15  4  0  0  0  0
 14 34  4  0  0  0  0
 15 16  1  0  0  0  0
 15 31  4  0  0  0  0
 16 17  1  0  0  0  0
 16 28  1  0  0  0  0
 17 18  1  0  0  0  0
 18 19  2  0  0  0  0
 18 20  1  0  0  0  0
 20 21  4  0  0  0  0
 20 25  4  0  0  0  0
 21 22  4  0  0  0  0
 22 23  4  0  0  0  0
 23 24  4  0  0  0  0
 24 25  4  0  0  0  0
 25 26  1  0  0  0  0
 26 27  1  0  0  0  0
 28 29  4  0  0  0  0
 29 30  4  0  0  0  0
 31 32  4  0  0  0  0
 32 33  4  0  0  0  0
 33 34  4  0  0  0  0
M  END
>  <Name_Molregno>
357286

>  <DOPAMINE D1>
7.89

>  <DOPAMINE D2>
5.95

$$$$
357296
  Marvin  02231216192D 0   1.00000     0.00000     0

 33 38  0  0  0  0  0  0  0  0999 V2000
   -1.8164   -4.5853    0.0000 Cl  0  0  0  0  0  0  0  0  0
   -1.0281   -4.8285    0.0000 C   0  0  0  0  0  0  0  0  0
   -0.4233   -4.2673    0.0000 C   0  0  0  0  0  0  0  0  0
    0.3650   -4.5105    0.0000 C   0  0  0  0  0  0  0  0  0
    0.8794   -3.8655    0.0000 N   0  0  0  0  0  0  0  0  0
    1.7044   -3.8655    0.0000 C   0  0  0  0  0  0  0  0  0
    2.0624   -3.1222    0.0000 N   0  0  0  0  0  0  0  0  0
    1.5976   -2.4405    0.0000 C   0  0  0  0  0  0  0  0  0
    1.9556   -1.6972    0.0000 C   0  0  0  0  0  0  0  0  0
    2.7783   -1.6356    0.0000 N   0  0  0  0  0  0  0  0  0
    3.2430   -2.3172    0.0000 C   0  0  0  0  0  0  0  0  0
    2.8850   -3.0605    0.0000 C   0  0  0  0  0  0  0  0  0
    3.1362   -0.8923    0.0000 C   0  0  0  0  0  0  0  0  0
    3.9589   -0.8306    0.0000 C   0  0  0  0  0  0  0  0  0
    4.3169   -0.0873    0.0000 C   0  0  0  0  0  0  0  0  0
    5.1396   -0.0257    0.0000 C   0  0  0  0  0  0  0  0  0
    5.4975    0.7176    0.0000 O   0  0  0  0  0  0  0  0  0
    6.3202    0.7793    0.0000 C   0  0  0  0  0  0  0  0  0
    6.7849    0.0976    0.0000 C   0  0  0  0  0  0  0  0  0
    6.4270   -0.6457    0.0000 O   0  0  0  0  0  0  0  0  0
    5.6043   -0.7073    0.0000 C   0  0  0  0  0  0  0  0  0
    5.2463   -1.4506    0.0000 C   0  0  0  0  0  0  0  0  0
    4.4236   -1.5123    0.0000 C   0  0  0  0  0  0  0  0  0
    2.2188   -4.5105    0.0000 C   0  0  0  0  0  0  0  0  0
    2.0352   -5.3148    0.0000 C   0  0  0  0  0  0  0  0  0
    1.2919   -5.6728    0.0000 N   0  0  0  0  0  0  0  0  0
    0.5486   -5.3148    0.0000 C   0  0  0  0  0  0  0  0  0
   -0.0562   -5.8759    0.0000 C   0  0  0  0  0  0  0  0  0
   -0.8445   -5.6328    0.0000 C   0  0  0  0  0  0  0  0  0
    2.6400   -5.8759    0.0000 C   0  0  0  0  0  0  0  0  0
    3.4283   -5.6328    0.0000 C   0  0  0  0  0  0  0  0  0
    3.6119   -4.8285    0.0000 C   0  0  0  0  0  0  0  0  0
    3.0071   -4.2673    0.0000 C   0  0  0  0  0  0  0  0  0
  1  2  1  0  0  0  0
  2  3  4  0  0  0  0
  2 29  4  0  0  0  0
  3  4  4  0  0  0  0
  4  5  1  0  0  0  0
  4 27  4  0  0  0  0
  5  6  2  0  0  0  0
  6  7  1  0  0  0  0
  6 24  1  0  0  0  0
  7  8  1  0  0  0  0
  7 12  1  0  0  0  0
  8  9  1  0  0  0  0
  9 10  1  0  0  0  0
 10 11  1  0  0  0  0
 10 13  1  0  0  0  0
 11 12  1  0  0  0  0
 13 14  1  0  0  0  0
 14 15  4  0  0  0  0
 14 23  4  0  0  0  0
 15 16  4  0  0  0  0
 16 17  1  0  0  0  0
 16 21  4  0  0  0  0
 17 18  1  0  0  0  0
 18 19  1  0  0  0  0
 19 20  1  0  0  0  0
 20 21  1  0  0  0  0
 21 22  4  0  0  0  0
 22 23  4  0  0  0  0
 24 25  4  0  0  0  0
 24 33  4  0  0  0  0
 25 26  1  0  0  0  0
 25 30  4  0  0  0  0
 26 27  1  0  0  0  0
 27 28  4  0  0  0  0
 28 29  4  0  0  0  0
 30 31  4  0  0  0  0
 31 32  4  0  0  0  0
 32 33  4  0  0  0  0
M  END
>  <Name_Molregno>
357296

>  <DOPAMINE D1>
6.23

>  <DOPAMINE D2>
7.54

$$$$
357298
  Marvin  02231216192D 0   1.00000     0.00000     0

 41 46  0  0  0  0  0  0  0  0999 V2000
   -5.7566    1.3985    0.0000 Cl  0  0  0  0  0  0  0  0  0
   -5.0421    1.8110    0.0000 C   0  0  0  0  0  0  0  0  0
   -5.0421    2.6360    0.0000 C   0  0  0  0  0  0  0  0  0
   -4.3276    3.0485    0.0000 C   0  0  0  0  0  0  0  0  0
   -3.6132    2.6360    0.0000 C   0  0  0  0  0  0  0  0  0
   -3.6132    1.8110    0.0000 C   0  0  0  0  0  0  0  0  0
   -4.3276    1.3985    0.0000 C   0  0  0  0  0  0  0  0  0
   -4.3276    0.5735    0.0000 C   0  0  0  0  0  0  0  0  0
   -5.0421    0.1610    0.0000 O   0  0  0  0  0  0  0  0  0
   -3.6132    0.1610    0.0000 N   0  0  0  0  0  0  0  0  0
   -3.6132   -0.6640    0.0000 N   0  0  0  0  0  0  0  0  0
   -2.8699   -1.0220    0.0000 C   0  0  0  0  0  0  0  0  0
   -2.6863   -1.8263    0.0000 C   0  0  0  0  0  0  0  0  0
   -1.8979   -2.0695    0.0000 C   0  0  0  0  0  0  0  0  0
   -1.2932   -1.5083    0.0000 C   0  0  0  0  0  0  0  0  0
   -1.4767   -0.7040    0.0000 C   0  0  0  0  0  0  0  0  0
   -2.2651   -0.4609    0.0000 C   0  0  0  0  0  0  0  0  0
   -3.2007   -2.4713    0.0000 C   0  0  0  0  0  0  0  0  0
   -4.0257   -2.4713    0.0000 N   0  0  0  0  0  0  0  0  0
   -4.5400   -1.8263    0.0000 C   0  0  0  0  0  0  0  0  0
   -5.3284   -2.0695    0.0000 C   0  0  0  0  0  0  0  0  0
   -5.9331   -1.5083    0.0000 C   0  0  0  0  0  0  0  0  0
   -6.7215   -1.7515    0.0000 Cl  0  0  0  0  0  0  0  0  0
   -5.7496   -0.7040    0.0000 C   0  0  0  0  0  0  0  0  0
   -4.9612   -0.4609    0.0000 C   0  0  0  0  0  0  0  0  0
   -4.3565   -1.0220    0.0000 C   0  0  0  0  0  0  0  0  0
   -2.8427   -3.2146    0.0000 N   0  0  0  0  0  0  0  0  0
   -2.0200   -3.2763    0.0000 C   0  0  0  0  0  0  0  0  0
   -1.6621   -4.0196    0.0000 C   0  0  0  0  0  0  0  0  0
   -2.1268   -4.7012    0.0000 N   0  0  0  0  0  0  0  0  0
   -2.9495   -4.6396    0.0000 C   0  0  0  0  0  0  0  0  0
   -3.3074   -3.8963    0.0000 C   0  0  0  0  0  0  0  0  0
   -1.7688   -5.4445    0.0000 C   0  0  0  0  0  0  0  0  0
   -2.2336   -6.1262    0.0000 C   0  0  0  0  0  0  0  0  0
   -1.8756   -6.8695    0.0000 C   0  0  0  0  0  0  0  0  0
   -2.3404   -7.5511    0.0000 C   0  0  0  0  0  0  0  0  0
   -3.1631   -7.4895    0.0000 C   0  0  0  0  0  0  0  0  0
   -3.6278   -8.1711    0.0000 F   0  0  0  0  0  0  0  0  0
   -3.5210   -6.7462    0.0000 C   0  0  0  0  0  0  0  0  0
   -3.0563   -6.0645    0.0000 C   0  0  0  0  0  0  0  0  0
   -3.4142   -5.3212    0.0000 F   0  0  0  0  0  0  0  0  0
  1  2  1  0  0  0  0
  2  3  4  0  0  0  0
  2  7  4  0  0  0  0
  3  4  4  0  0  0  0
  4  5  4  0  0  0  0
  5  6  4  0  0  0  0
  6  7  4  0  0  0  0
  7  8  1  0  0  0  0
  8  9  2  0  0  0  0
  8 10  1  0  0  0  0
 10 11  1  0  0  0  0
 11 12  1  0  0  0  0
 11 26  1  0  0  0  0
 12 13  4  0  0  0  0
 12 17  4  0  0  0  0
 13 14  4  0  0  0  0
 13 18  1  0  0  0  0
 14 15  4  0  0  0  0
 15 16  4  0  0  0  0
 16 17  4  0  0  0  0
 18 19  2  0  0  0  0
 18 27  1  0  0  0  0
 19 20  1  0  0  0  0
 20 21  4  0  0  0  0
 20 26  4  0  0  0  0
 21 22  4  0  0  0  0
 22 23  1  0  0  0  0
 22 24  4  0  0  0  0
 24 25  4  0  0  0  0
 25 26  4  0  0  0  0
 27 28  1  0  0  0  0
 27 32  1  0  0  0  0
 28 29  1  0  0  0  0
 29 30  1  0  0  0  0
 30 31  1  0  0  0  0
 30 33  1  0  0  0  0
 31 32  1  0  0  0  0
 33 34  1  0  0  0  0
 34 35  4  0  0  0  0
 34 40  4  0  0  0  0
 35 36  4  0  0  0  0
 36 37  4  0  0  0  0
 37 38  1  0  0  0  0
 37 39  4  0  0  0  0
 39 40  4  0  0  0  0
 40 41  1  0  0  0  0
M  END
>  <Name_Molregno>
357298

>  <DOPAMINE D1>
6.05

>  <DOPAMINE D2>
5.52

$$$$
357299
  Marvin  02231216192D 0   1.00000     0.00000     0

 42 48  0  0  0  0  0  0  0  0999 V2000
   -0.2590   -1.9391    0.0000 Cl  0  0  0  0  0  0  0  0  0
   -0.6170   -2.6824    0.0000 C   0  0  0  0  0  0  0  0  0
   -0.1522   -3.3640    0.0000 C   0  0  0  0  0  0  0  0  0
   -0.5102   -4.1073    0.0000 C   0  0  0  0  0  0  0  0  0
   -1.3329   -4.1690    0.0000 C   0  0  0  0  0  0  0  0  0
   -1.7976   -3.4873    0.0000 C   0  0  0  0  0  0  0  0  0
   -1.4396   -2.7440    0.0000 C   0  0  0  0  0  0  0  0  0
   -1.9044   -2.0624    0.0000 C   0  0  0  0  0  0  0  0  0
   -1.5464   -1.3191    0.0000 O   0  0  0  0  0  0  0  0  0
   -2.7271   -2.1241    0.0000 N   0  0  0  0  0  0  0  0  0
   -3.1918   -1.4424    0.0000 N   0  0  0  0  0  0  0  0  0
   -4.0076   -1.5654    0.0000 C   0  0  0  0  0  0  0  0  0
   -4.6124   -1.0042    0.0000 C   0  0  0  0  0  0  0  0  0
   -5.4007   -1.2474    0.0000 C   0  0  0  0  0  0  0  0  0
   -5.5843   -2.0517    0.0000 C   0  0  0  0  0  0  0  0  0
   -4.9795   -2.6129    0.0000 C   0  0  0  0  0  0  0  0  0
   -4.1912   -2.3697    0.0000 C   0  0  0  0  0  0  0  0  0
   -4.5507   -0.1815    0.0000 C   0  0  0  0  0  0  0  0  0
   -3.8691    0.2832    0.0000 N   0  0  0  0  0  0  0  0  0
   -3.0807    0.0400    0.0000 C   0  0  0  0  0  0  0  0  0
   -2.5663    0.6850    0.0000 C   0  0  0  0  0  0  0  0  0
   -1.7506    0.5621    0.0000 C   0  0  0  0  0  0  0  0  0
   -1.2362    1.2071    0.0000 Cl  0  0  0  0  0  0  0  0  0
   -1.4492   -0.2059    0.0000 C   0  0  0  0  0  0  0  0  0
   -1.9635   -0.8509    0.0000 C   0  0  0  0  0  0  0  0  0
   -2.7793   -0.7279    0.0000 C   0  0  0  0  0  0  0  0  0
   -5.2652    0.2310    0.0000 N   0  0  0  0  0  0  0  0  0
   -5.9797   -0.1815    0.0000 C   0  0  0  0  0  0  0  0  0
   -6.6941    0.2310    0.0000 C   0  0  0  0  0  0  0  0  0
   -6.6941    1.0560    0.0000 N   0  0  0  0  0  0  0  0  0
   -5.9797    1.4685    0.0000 C   0  0  0  0  0  0  0  0  0
   -5.2652    1.0560    0.0000 C   0  0  0  0  0  0  0  0  0
   -7.4086    1.4685    0.0000 C   0  0  0  0  0  0  0  0  0
   -7.4086    2.2935    0.0000 C   0  0  0  0  0  0  0  0  0
   -8.1231    2.7060    0.0000 C   0  0  0  0  0  0  0  0  0
   -8.9077    2.4510    0.0000 O   0  0  0  0  0  0  0  0  0
   -9.3926    3.1185    0.0000 C   0  0  0  0  0  0  0  0  0
   -8.9077    3.7859    0.0000 O   0  0  0  0  0  0  0  0  0
   -8.1231    3.5310    0.0000 C   0  0  0  0  0  0  0  0  0
   -7.4086    3.9435    0.0000 C   0  0  0  0  0  0  0  0  0
   -6.6941    3.5310    0.0000 C   0  0  0  0  0  0  0  0  0
   -6.6941    2.7060    0.0000 C   0  0  0  0  0  0  0  0  0
  1  2  1  0  0  0  0
  2  3  4  0  0  0  0
  2  7  4  0  0  0  0
  3  4  4  0  0  0  0
  4  5  4  0  0  0  0
  5  6  4  0  0  0  0
  6  7  4  0  0  0  0
  7  8  1  0  0  0  0
  8  9  2  0  0  0  0
  8 10  1  0  0  0  0
 10 11  1  0  0  0  0
 11 12  1  0  0  0  0
 11 26  1  0  0  0  0
 12 13  4  0  0  0  0
 12 17  4  0  0  0  0
 13 14  4  0  0  0  0
 13 18  1  0  0  0  0
 14 15  4  0  0  0  0
 15 16  4  0  0  0  0
 16 17  4  0  0  0  0
 18 19  2  0  0  0  0
 18 27  1  0  0  0  0
 19 20  1  0  0  0  0
 20 21  4  0  0  0  0
 20 26  4  0  0  0  0
 21 22  4  0  0  0  0
 22 23  1  0  0  0  0
 22 24  4  0  0  0  0
 24 25  4  0  0  0  0
 25 26  4  0  0  0  0
 27 28  1  0  0  0  0
 27 32  1  0  0  0  0
 28 29  1  0  0  0  0
 29 30  1  0  0  0  0
 30 31  1  0  0  0  0
 30 33  1  0  0  0  0
 31 32  1  0  0  0  0
 33 34  1  0  0  0  0
 34 35  4  0  0  0  0
 34 42  4  0  0  0  0
 35 36  1  0  0  0  0
 35 39  4  0  0  0  0
 36 37  1  0  0  0  0
 37 38  1  0  0  0  0
 38 39  1  0  0  0  0
 39 40  4  0  0  0  0
 40 41  4  0  0  0  0
 41 42  4  0  0  0  0
M  END
>  <Name_Molregno>
357299

>  <DOPAMINE D1>
6.24

>  <DOPAMINE D2>
5.7

$$$$
357306
  Marvin  02231216192D 0   1.00000     0.00000     0

 37 41  0  0  0  0  0  0  0  0999 V2000
    5.9629   -0.7483    0.0000 Cl  0  0  0  0  0  0  0  0  0
    5.1745   -0.9914    0.0000 C   0  0  0  0  0  0  0  0  0
    4.5698   -0.4303    0.0000 C   0  0  0  0  0  0  0  0  0
    3.7814   -0.6735    0.0000 C   0  0  0  0  0  0  0  0  0
    3.5978   -1.4778    0.0000 C   0  0  0  0  0  0  0  0  0
    2.8545   -1.8357    0.0000 N   0  0  0  0  0  0  0  0  0
    2.8545   -2.6607    0.0000 N   0  0  0  0  0  0  0  0  0
    2.1401   -3.0732    0.0000 C   0  0  0  0  0  0  0  0  0
    1.4256   -2.6607    0.0000 O   0  0  0  0  0  0  0  0  0
    2.1401   -3.8982    0.0000 C   0  0  0  0  0  0  0  0  0
    2.8545   -4.3107    0.0000 C   0  0  0  0  0  0  0  0  0
    2.8545   -5.1357    0.0000 C   0  0  0  0  0  0  0  0  0
    3.5690   -5.5482    0.0000 F   0  0  0  0  0  0  0  0  0
    2.1401   -5.5482    0.0000 C   0  0  0  0  0  0  0  0  0
    1.4256   -5.1357    0.0000 C   0  0  0  0  0  0  0  0  0
    1.4256   -4.3107    0.0000 C   0  0  0  0  0  0  0  0  0
    0.7111   -3.8982    0.0000 C   0  0  0  0  0  0  0  0  0
   -0.0034   -3.4857    0.0000 F   0  0  0  0  0  0  0  0  0
    0.2986   -4.6127    0.0000 F   0  0  0  0  0  0  0  0  0
    1.1236   -3.1838    0.0000 F   0  0  0  0  0  0  0  0  0
    2.1112   -1.4778    0.0000 C   0  0  0  0  0  0  0  0  0
    1.9277   -0.6735    0.0000 C   0  0  0  0  0  0  0  0  0
    2.4420   -0.0284    0.0000 N   0  0  0  0  0  0  0  0  0
    3.2670   -0.0284    0.0000 C   0  0  0  0  0  0  0  0  0
    3.6250    0.7149    0.0000 N   0  0  0  0  0  0  0  0  0
    3.1602    1.3965    0.0000 C   0  0  0  0  0  0  0  0  0
    3.5182    2.1398    0.0000 C   0  0  0  0  0  0  0  0  0
    4.3409    2.2015    0.0000 N   0  0  0  0  0  0  0  0  0
    4.8056    1.5198    0.0000 C   0  0  0  0  0  0  0  0  0
    4.4477    0.7765    0.0000 C   0  0  0  0  0  0  0  0  0
    4.6989    2.9448    0.0000 C   0  0  0  0  0  0  0  0  0
    1.1393   -0.4303    0.0000 C   0  0  0  0  0  0  0  0  0
    0.5345   -0.9914    0.0000 C   0  0  0  0  0  0  0  0  0
    0.7181   -1.7957    0.0000 C   0  0  0  0  0  0  0  0  0
    1.5065   -2.0389    0.0000 C   0  0  0  0  0  0  0  0  0
    4.2026   -2.0389    0.0000 C   0  0  0  0  0  0  0  0  0
    4.9909   -1.7957    0.0000 C   0  0  0  0  0  0  0  0  0
  1  2  1  0  0  0  0
  2  3  4  0  0  0  0
  2 37  4  0  0  0  0
  3  4  4  0  0  0  0
  4  5  4  0  0  0  0
  4 24  1  0  0  0  0
  5  6  1  0  0  0  0
  5 36  4  0  0  0  0
  6  7  1  0  0  0  0
  6 21  1  0  0  0  0
  7  8  1  0  0  0  0
  8  9  2  0  0  0  0
  8 10  1  0  0  0  0
 10 11  4  0  0  0  0
 10 16  4  0  0  0  0
 11 12  4  0  0  0  0
 12 13  1  0  0  0  0
 12 14  4  0  0  0  0
 14 15  4  0  0  0  0
 15 16  4  0  0  0  0
 16 17  1  0  0  0  0
 17 18  1  0  0  0  0
 17 19  1  0  0  0  0
 17 20  1  0  0  0  0
 21 22  4  0  0  0  0
 21 35  4  0  0  0  0
 22 23  1  0  0  0  0
 22 32  4  0  0  0  0
 23 24  2  0  0  0  0
 24 25  1  0  0  0  0
 25 26  1  0  0  0  0
 25 30  1  0  0  0  0
 26 27  1  0  0  0  0
 27 28  1  0  0  0  0
 28 29  1  0  0  0  0
 28 31  1  0  0  0  0
 29 30  1  0  0  0  0
 32 33  4  0  0  0  0
 33 34  4  0  0  0  0
 34 35  4  0  0  0  0
 36 37  4  0  0  0  0
M  END
>  <Name_Molregno>
357306

>  <DOPAMINE D1>
7.66

>  <DOPAMINE D2>
6.38

$$$$
357307
  Marvin  02231216192D 0   1.00000     0.00000     0

 36 40  0  0  0  0  0  0  0  0999 V2000
    4.0124   -1.9959    0.0000 Cl  0  0  0  0  0  0  0  0  0
    3.2241   -2.2390    0.0000 C   0  0  0  0  0  0  0  0  0
    2.6193   -1.6779    0.0000 C   0  0  0  0  0  0  0  0  0
    1.8310   -1.9211    0.0000 C   0  0  0  0  0  0  0  0  0
    1.6474   -2.7254    0.0000 C   0  0  0  0  0  0  0  0  0
    0.9041   -3.0833    0.0000 N   0  0  0  0  0  0  0  0  0
    0.9041   -3.9083    0.0000 N   0  0  0  0  0  0  0  0  0
    0.1896   -4.3208    0.0000 C   0  0  0  0  0  0  0  0  0
   -0.5248   -3.9083    0.0000 O   0  0  0  0  0  0  0  0  0
    0.1896   -5.1458    0.0000 C   0  0  0  0  0  0  0  0  0
    0.9041   -5.5583    0.0000 C   0  0  0  0  0  0  0  0  0
    0.9041   -6.3833    0.0000 C   0  0  0  0  0  0  0  0  0
    1.6186   -6.7958    0.0000 F   0  0  0  0  0  0  0  0  0
    0.1896   -6.7958    0.0000 C   0  0  0  0  0  0  0  0  0
    0.1896   -7.6208    0.0000 F   0  0  0  0  0  0  0  0  0
   -0.5248   -6.3833    0.0000 C   0  0  0  0  0  0  0  0  0
   -1.2393   -6.7958    0.0000 F   0  0  0  0  0  0  0  0  0
   -0.5248   -5.5583    0.0000 C   0  0  0  0  0  0  0  0  0
   -1.2393   -5.1458    0.0000 F   0  0  0  0  0  0  0  0  0
    0.1608   -2.7254    0.0000 C   0  0  0  0  0  0  0  0  0
   -0.0228   -1.9211    0.0000 C   0  0  0  0  0  0  0  0  0
    0.4916   -1.2760    0.0000 N   0  0  0  0  0  0  0  0  0
    1.3166   -1.2760    0.0000 C   0  0  0  0  0  0  0  0  0
    1.6746   -0.5327    0.0000 N   0  0  0  0  0  0  0  0  0
    1.2098    0.1489    0.0000 C   0  0  0  0  0  0  0  0  0
    1.5678    0.8922    0.0000 C   0  0  0  0  0  0  0  0  0
    2.3905    0.9539    0.0000 N   0  0  0  0  0  0  0  0  0
    2.8552    0.2722    0.0000 C   0  0  0  0  0  0  0  0  0
    2.4973   -0.4711    0.0000 C   0  0  0  0  0  0  0  0  0
    2.7484    1.6972    0.0000 C   0  0  0  0  0  0  0  0  0
   -0.8111   -1.6779    0.0000 C   0  0  0  0  0  0  0  0  0
   -1.4159   -2.2390    0.0000 C   0  0  0  0  0  0  0  0  0
   -1.2323   -3.0433    0.0000 C   0  0  0  0  0  0  0  0  0
   -0.4440   -3.2865    0.0000 C   0  0  0  0  0  0  0  0  0
    2.2522   -3.2865    0.0000 C   0  0  0  0  0  0  0  0  0
    3.0405   -3.0433    0.0000 C   0  0  0  0  0  0  0  0  0
  1  2  1  0  0  0  0
  2  3  4  0  0  0  0
  2 36  4  0  0  0  0
  3  4  4  0  0  0  0
  4  5  4  0  0  0  0
  4 23  1  0  0  0  0
  5  6  1  0  0  0  0
  5 35  4  0  0  0  0
  6  7  1  0  0  0  0
  6 20  1  0  0  0  0
  7  8  1  0  0  0  0
  8  9  2  0  0  0  0
  8 10  1  0  0  0  0
 10 11  4  0  0  0  0
 10 18  4  0  0  0  0
 11 12  4  0  0  0  0
 12 13  1  0  0  0  0
 12 14  4  0  0  0  0
 14 15  1  0  0  0  0
 14 16  4  0  0  0  0
 16 17  1  0  0  0  0
 16 18  4  0  0  0  0
 18 19  1  0  0  0  0
 20 21  4  0  0  0  0
 20 34  4  0  0  0  0
 21 22  1  0  0  0  0
 21 31  4  0  0  0  0
 22 23  2  0  0  0  0
 23 24  1  0  0  0  0
 24 25  1  0  0  0  0
 24 29  1  0  0  0  0
 25 26  1  0  0  0  0
 26 27  1  0  0  0  0
 27 28  1  0  0  0  0
 27 30  1  0  0  0  0
 28 29  1  0  0  0  0
 31 32  4  0  0  0  0
 32 33  4  0  0  0  0
 33 34  4  0  0  0  0
 35 36  4  0  0  0  0
M  END
>  <Name_Molregno>
357307

>  <DOPAMINE D1>
6.81

>  <DOPAMINE D2>
6.12

$$$$
357314
  Marvin  02231216192D 0   1.00000     0.00000     0

 31 35  0  0  0  0  0  0  0  0999 V2000
   -3.5398   -2.9572    0.0000 Cl  0  0  0  0  0  0  0  0  0
   -2.7514   -3.2003    0.0000 C   0  0  0  0  0  0  0  0  0
   -2.1467   -2.6392    0.0000 C   0  0  0  0  0  0  0  0  0
   -1.3583   -2.8824    0.0000 C   0  0  0  0  0  0  0  0  0
   -0.8439   -2.2374    0.0000 N   0  0  0  0  0  0  0  0  0
   -0.0189   -2.2374    0.0000 C   0  0  0  0  0  0  0  0  0
    0.3390   -1.4941    0.0000 N   0  0  0  0  0  0  0  0  0
   -0.1257   -0.8124    0.0000 C   0  0  0  0  0  0  0  0  0
    0.2322   -0.0691    0.0000 C   0  0  0  0  0  0  0  0  0
    1.0549   -0.0075    0.0000 N   0  0  0  0  0  0  0  0  0
    1.5197   -0.6891    0.0000 C   0  0  0  0  0  0  0  0  0
    1.1617   -1.4324    0.0000 C   0  0  0  0  0  0  0  0  0
    1.4129    0.7358    0.0000 C   0  0  0  0  0  0  0  0  0
    0.4955   -2.8824    0.0000 C   0  0  0  0  0  0  0  0  0
    0.3119   -3.6867    0.0000 C   0  0  0  0  0  0  0  0  0
   -0.4314   -4.0446    0.0000 N   0  0  0  0  0  0  0  0  0
   -0.4314   -4.8696    0.0000 N   0  0  0  0  0  0  0  0  0
    0.2830   -5.2821    0.0000 C   0  0  0  0  0  0  0  0  0
    0.9975   -4.8696    0.0000 O   0  0  0  0  0  0  0  0  0
    0.2830   -6.1071    0.0000 C   0  0  0  0  0  0  0  0  0
    0.9505   -6.5921    0.0000 S   0  0  0  0  0  0  0  0  0
    0.6955   -7.3767    0.0000 C   0  0  0  0  0  0  0  0  0
   -0.1295   -7.3767    0.0000 C   0  0  0  0  0  0  0  0  0
   -0.3844   -6.5921    0.0000 C   0  0  0  0  0  0  0  0  0
   -1.1747   -3.6867    0.0000 C   0  0  0  0  0  0  0  0  0
   -1.7795   -4.2478    0.0000 C   0  0  0  0  0  0  0  0  0
   -2.5678   -4.0047    0.0000 C   0  0  0  0  0  0  0  0  0
    0.9166   -4.2478    0.0000 C   0  0  0  0  0  0  0  0  0
    1.7050   -4.0047    0.0000 C   0  0  0  0  0  0  0  0  0
    1.8886   -3.2003    0.0000 C   0  0  0  0  0  0  0  0  0
    1.2838   -2.6392    0.0000 C   0  0  0  0  0  0  0  0  0
  1  2  1  0  0  0  0
  2  3  4  0  0  0  0
  2 27  4  0  0  0  0
  3  4  4  0  0  0  0
  4  5  1  0  0  0  0
  4 25  4  0  0  0  0
  5  6  2  0  0  0  0
  6  7  1  0  0  0  0
  6 14  1  0  0  0  0
  7  8  1  0  0  0  0
  7 12  1  0  0  0  0
  8  9  1  0  0  0  0
  9 10  1  0  0  0  0
 10 11  1  0  0  0  0
 10 13  1  0  0  0  0
 11 12  1  0  0  0  0
 14 15  4  0  0  0  0
 14 31  4  0  0  0  0
 15 16  1  0  0  0  0
 15 28  4  0  0  0  0
 16 17  1  0  0  0  0
 16 25  1  0  0  0  0
 17 18  1  0  0  0  0
 18 19  2  0  0  0  0
 18 20  1  0  0  0  0
 20 21  4  0  0  0  0
 20 24  4  0  0  0  0
 21 22  4  0  0  0  0
 22 23  4  0  0  0  0
 23 24  4  0  0  0  0
 25 26  4  0  0  0  0
 26 27  4  0  0  0  0
 28 29  4  0  0  0  0
 29 30  4  0  0  0  0
 30 31  4  0  0  0  0
M  END
>  <Name_Molregno>
357314

>  <DOPAMINE D1>
7.85

>  <DOPAMINE D2>
5.83

$$$$
357315
  Marvin  02231216192D 0   1.00000     0.00000     0

 31 35  0  0  0  0  0  0  0  0999 V2000
   -3.5398   -2.9572    0.0000 Cl  0  0  0  0  0  0  0  0  0
   -2.7514   -3.2003    0.0000 C   0  0  0  0  0  0  0  0  0
   -2.1467   -2.6392    0.0000 C   0  0  0  0  0  0  0  0  0
   -1.3583   -2.8824    0.0000 C   0  0  0  0  0  0  0  0  0
   -0.8439   -2.2374    0.0000 N   0  0  0  0  0  0  0  0  0
   -0.0189   -2.2374    0.0000 C   0  0  0  0  0  0  0  0  0
    0.3390   -1.4941    0.0000 N   0  0  0  0  0  0  0  0  0
   -0.1257   -0.8124    0.0000 C   0  0  0  0  0  0  0  0  0
    0.2322   -0.0691    0.0000 C   0  0  0  0  0  0  0  0  0
    1.0549   -0.0075    0.0000 N   0  0  0  0  0  0  0  0  0
    1.5197   -0.6891    0.0000 C   0  0  0  0  0  0  0  0  0
    1.1617   -1.4324    0.0000 C   0  0  0  0  0  0  0  0  0
    1.4129    0.7358    0.0000 C   0  0  0  0  0  0  0  0  0
    0.4955   -2.8824    0.0000 C   0  0  0  0  0  0  0  0  0
    0.3119   -3.6867    0.0000 C   0  0  0  0  0  0  0  0  0
   -0.4314   -4.0446    0.0000 N   0  0  0  0  0  0  0  0  0
   -0.4314   -4.8696    0.0000 N   0  0  0  0  0  0  0  0  0
    0.2830   -5.2821    0.0000 C   0  0  0  0  0  0  0  0  0
    0.9975   -4.8696    0.0000 O   0  0  0  0  0  0  0  0  0
    0.2830   -6.1071    0.0000 C   0  0  0  0  0  0  0  0  0
    0.9505   -6.5921    0.0000 C   0  0  0  0  0  0  0  0  0
    0.6955   -7.3767    0.0000 C   0  0  0  0  0  0  0  0  0
   -0.1295   -7.3767    0.0000 S   0  0  0  0  0  0  0  0  0
   -0.3844   -6.5921    0.0000 C   0  0  0  0  0  0  0  0  0
   -1.1747   -3.6867    0.0000 C   0  0  0  0  0  0  0  0  0
   -1.7795   -4.2478    0.0000 C   0  0  0  0  0  0  0  0  0
   -2.5678   -4.0047    0.0000 C   0  0  0  0  0  0  0  0  0
    0.9166   -4.2478    0.0000 C   0  0  0  0  0  0  0  0  0
    1.7050   -4.0047    0.0000 C   0  0  0  0  0  0  0  0  0
    1.8886   -3.2003    0.0000 C   0  0  0  0  0  0  0  0  0
    1.2838   -2.6392    0.0000 C   0  0  0  0  0  0  0  0  0
  1  2  1  0  0  0  0
  2  3  4  0  0  0  0
  2 27  4  0  0  0  0
  3  4  4  0  0  0  0
  4  5  1  0  0  0  0
  4 25  4  0  0  0  0
  5  6  2  0  0  0  0
  6  7  1  0  0  0  0
  6 14  1  0  0  0  0
  7  8  1  0  0  0  0
  7 12  1  0  0  0  0
  8  9  1  0  0  0  0
  9 10  1  0  0  0  0
 10 11  1  0  0  0  0
 10 13  1  0  0  0  0
 11 12  1  0  0  0  0
 14 15  4  0  0  0  0
 14 31  4  0  0  0  0
 15 16  1  0  0  0  0
 15 28  4  0  0  0  0
 16 17  1  0  0  0  0
 16 25  1  0  0  0  0
 17 18  1  0  0  0  0
 18 19  2  0  0  0  0
 18 20  1  0  0  0  0
 20 21  4  0  0  0  0
 20 24  4  0  0  0  0
 21 22  4  0  0  0  0
 22 23  4  0  0  0  0
 23 24  4  0  0  0  0
 25 26  4  0  0  0  0
 26 27  4  0  0  0  0
 28 29  4  0  0  0  0
 29 30  4  0  0  0  0
 30 31  4  0  0  0  0
M  END
>  <Name_Molregno>
357315

>  <DOPAMINE D1>
8.05

>  <DOPAMINE D2>
5.52

$$$$
357320
  Marvin  02231216192D 0   1.00000     0.00000     0

 37 41  0  0  0  0  0  0  0  0999 V2000
    5.7634   -0.8758    0.0000 Cl  0  0  0  0  0  0  0  0  0
    4.9750   -1.1189    0.0000 C   0  0  0  0  0  0  0  0  0
    4.3702   -0.5578    0.0000 C   0  0  0  0  0  0  0  0  0
    3.5819   -0.8010    0.0000 C   0  0  0  0  0  0  0  0  0
    3.3983   -1.6053    0.0000 C   0  0  0  0  0  0  0  0  0
    2.6550   -1.9632    0.0000 N   0  0  0  0  0  0  0  0  0
    2.6550   -2.7882    0.0000 N   0  0  0  0  0  0  0  0  0
    1.9405   -3.2007    0.0000 C   0  0  0  0  0  0  0  0  0
    1.2261   -2.7882    0.0000 O   0  0  0  0  0  0  0  0  0
    1.9405   -4.0257    0.0000 C   0  0  0  0  0  0  0  0  0
    2.6550   -4.4382    0.0000 C   0  0  0  0  0  0  0  0  0
    3.3695   -4.0257    0.0000 O   0  0  0  0  0  0  0  0  0
    4.0840   -4.4382    0.0000 C   0  0  0  0  0  0  0  0  0
    2.6550   -5.2632    0.0000 C   0  0  0  0  0  0  0  0  0
    1.9405   -5.6757    0.0000 C   0  0  0  0  0  0  0  0  0
    1.2261   -5.2632    0.0000 C   0  0  0  0  0  0  0  0  0
    1.2261   -4.4382    0.0000 C   0  0  0  0  0  0  0  0  0
    0.5116   -4.0257    0.0000 O   0  0  0  0  0  0  0  0  0
   -0.2029   -4.4382    0.0000 C   0  0  0  0  0  0  0  0  0
    1.9117   -1.6053    0.0000 C   0  0  0  0  0  0  0  0  0
    1.7281   -0.8010    0.0000 C   0  0  0  0  0  0  0  0  0
    2.2425   -0.1559    0.0000 N   0  0  0  0  0  0  0  0  0
    3.0675   -0.1559    0.0000 C   0  0  0  0  0  0  0  0  0
    3.4255    0.5874    0.0000 N   0  0  0  0  0  0  0  0  0
    2.9607    1.2690    0.0000 C   0  0  0  0  0  0  0  0  0
    3.3187    2.0123    0.0000 C   0  0  0  0  0  0  0  0  0
    4.1414    2.0740    0.0000 N   0  0  0  0  0  0  0  0  0
    4.6061    1.3923    0.0000 C   0  0  0  0  0  0  0  0  0
    4.2482    0.6490    0.0000 C   0  0  0  0  0  0  0  0  0
    4.4993    2.8173    0.0000 C   0  0  0  0  0  0  0  0  0
    0.9398   -0.5578    0.0000 C   0  0  0  0  0  0  0  0  0
    0.3350   -1.1189    0.0000 C   0  0  0  0  0  0  0  0  0
   -0.4533   -0.8758    0.0000 Cl  0  0  0  0  0  0  0  0  0
    0.5186   -1.9232    0.0000 C   0  0  0  0  0  0  0  0  0
    1.3069   -2.1664    0.0000 C   0  0  0  0  0  0  0  0  0
    4.0031   -2.1664    0.0000 C   0  0  0  0  0  0  0  0  0
    4.7914   -1.9232    0.0000 C   0  0  0  0  0  0  0  0  0
  1  2  1  0  0  0  0
  2  3  4  0  0  0  0
  2 37  4  0  0  0  0
  3  4  4  0  0  0  0
  4  5  4  0  0  0  0
  4 23  1  0  0  0  0
  5  6  1  0  0  0  0
  5 36  4  0  0  0  0
  6  7  1  0  0  0  0
  6 20  1  0  0  0  0
  7  8  1  0  0  0  0
  8  9  2  0  0  0  0
  8 10  1  0  0  0  0
 10 11  4  0  0  0  0
 10 17  4  0  0  0  0
 11 12  1  0  0  0  0
 11 14  4  0  0  0  0
 12 13  1  0  0  0  0
 14 15  4  0  0  0  0
 15 16  4  0  0  0  0
 16 17  4  0  0  0  0
 17 18  1  0  0  0  0
 18 19  1  0  0  0  0
 20 21  4  0  0  0  0
 20 35  4  0  0  0  0
 21 22  1  0  0  0  0
 21 31  4  0  0  0  0
 22 23  2  0  0  0  0
 23 24  1  0  0  0  0
 24 25  1  0  0  0  0
 24 29  1  0  0  0  0
 25 26  1  0  0  0  0
 26 27  1  0  0  0  0
 27 28  1  0  0  0  0
 27 30  1  0  0  0  0
 28 29  1  0  0  0  0
 31 32  4  0  0  0  0
 32 33  1  0  0  0  0
 32 34  4  0  0  0  0
 34 35  4  0  0  0  0
 36 37  4  0  0  0  0
M  END
>  <Name_Molregno>
357320

>  <DOPAMINE D1>
7.96

>  <DOPAMINE D2>
7.01

$$$$
357330
  Marvin  02231216192D 0   1.00000     0.00000     0

 34 38  0  0  0  0  0  0  0  0999 V2000
   -4.2942   -2.5300    0.0000 Cl  0  0  0  0  0  0  0  0  0
   -3.5059   -2.7732    0.0000 C   0  0  0  0  0  0  0  0  0
   -2.9011   -2.2121    0.0000 C   0  0  0  0  0  0  0  0  0
   -2.1128   -2.4552    0.0000 C   0  0  0  0  0  0  0  0  0
   -1.5984   -1.8102    0.0000 N   0  0  0  0  0  0  0  0  0
   -0.7734   -1.8102    0.0000 C   0  0  0  0  0  0  0  0  0
   -0.4154   -1.0669    0.0000 N   0  0  0  0  0  0  0  0  0
   -0.8802   -0.3853    0.0000 C   0  0  0  0  0  0  0  0  0
   -0.5222    0.3580    0.0000 C   0  0  0  0  0  0  0  0  0
    0.3005    0.4197    0.0000 N   0  0  0  0  0  0  0  0  0
    0.7652   -0.2620    0.0000 C   0  0  0  0  0  0  0  0  0
    0.4072   -1.0053    0.0000 C   0  0  0  0  0  0  0  0  0
    0.6584    1.1630    0.0000 C   0  0  0  0  0  0  0  0  0
   -0.2590   -2.4552    0.0000 C   0  0  0  0  0  0  0  0  0
   -0.4426   -3.2595    0.0000 C   0  0  0  0  0  0  0  0  0
   -1.1859   -3.6175    0.0000 N   0  0  0  0  0  0  0  0  0
   -1.1859   -4.4425    0.0000 N   0  0  0  0  0  0  0  0  0
   -0.4714   -4.8550    0.0000 C   0  0  0  0  0  0  0  0  0
    0.2430   -4.4425    0.0000 O   0  0  0  0  0  0  0  0  0
   -0.4714   -5.6800    0.0000 C   0  0  0  0  0  0  0  0  0
    0.2430   -6.0925    0.0000 C   0  0  0  0  0  0  0  0  0
    0.2430   -6.9175    0.0000 C   0  0  0  0  0  0  0  0  0
   -0.4714   -7.3300    0.0000 C   0  0  0  0  0  0  0  0  0
   -1.1859   -6.9175    0.0000 C   0  0  0  0  0  0  0  0  0
   -1.1859   -6.0925    0.0000 C   0  0  0  0  0  0  0  0  0
   -0.4714   -8.1550    0.0000 C   0  0  0  0  0  0  0  0  0
   -0.4714   -8.9800    0.0000 N   0  0  0  0  0  0  0  0  0
   -1.9292   -3.2595    0.0000 C   0  0  0  0  0  0  0  0  0
   -2.5340   -3.8207    0.0000 C   0  0  0  0  0  0  0  0  0
   -3.3223   -3.5775    0.0000 C   0  0  0  0  0  0  0  0  0
    0.1622   -3.8207    0.0000 C   0  0  0  0  0  0  0  0  0
    0.9505   -3.5775    0.0000 C   0  0  0  0  0  0  0  0  0
    1.1341   -2.7732    0.0000 C   0  0  0  0  0  0  0  0  0
    0.5293   -2.2121    0.0000 C   0  0  0  0  0  0  0  0  0
  1  2  1  0  0  0  0
  2  3  4  0  0  0  0
  2 30  4  0  0  0  0
  3  4  4  0  0  0  0
  4  5  1  0  0  0  0
  4 28  4  0  0  0  0
  5  6  2  0  0  0  0
  6  7  1  0  0  0  0
  6 14  1  0  0  0  0
  7  8  1  0  0  0  0
  7 12  1  0  0  0  0
  8  9  1  0  0  0  0
  9 10  1  0  0  0  0
 10 11  1  0  0  0  0
 10 13  1  0  0  0  0
 11 12  1  0  0  0  0
 14 15  4  0  0  0  0
 14 34  4  0  0  0  0
 15 16  1  0  0  0  0
 15 31  4  0  0  0  0
 16 17  1  0  0  0  0
 16 28  1  0  0  0  0
 17 18  1  0  0  0  0
 18 19  2  0  0  0  0
 18 20  1  0  0  0  0
 20 21  4  0  0  0  0
 20 25  4  0  0  0  0
 21 22  4  0  0  0  0
 22 23  4  0  0  0  0
 23 24  4  0  0  0  0
 23 26  1  0  0  0  0
 24 25  4  0  0  0  0
 26 27  3  0  0  0  0
 28 29  4  0  0  0  0
 29 30  4  0  0  0  0
 31 32  4  0  0  0  0
 32 33  4  0  0  0  0
 33 34  4  0  0  0  0
M  END
>  <Name_Molregno>
357330

>  <DOPAMINE D1>
7.17

>  <DOPAMINE D2>
5.7

$$$$
357340
  Marvin  02231216192D 0   1.00000     0.00000     0

 34 39  0  0  0  0  0  0  0  0999 V2000
   -0.3656   -3.3187    0.0000 Cl  0  0  0  0  0  0  0  0  0
    0.4227   -3.5619    0.0000 C   0  0  0  0  0  0  0  0  0
    1.0275   -3.0007    0.0000 C   0  0  0  0  0  0  0  0  0
    1.8158   -3.2439    0.0000 C   0  0  0  0  0  0  0  0  0
    2.3302   -2.5989    0.0000 N   0  0  0  0  0  0  0  0  0
    3.1552   -2.5989    0.0000 C   0  0  0  0  0  0  0  0  0
    3.5131   -1.8556    0.0000 N   0  0  0  0  0  0  0  0  0
    3.0484   -1.1739    0.0000 C   0  0  0  0  0  0  0  0  0
    3.4064   -0.4306    0.0000 C   0  0  0  0  0  0  0  0  0
    4.2291   -0.3690    0.0000 N   0  0  0  0  0  0  0  0  0
    4.6938   -1.0506    0.0000 C   0  0  0  0  0  0  0  0  0
    4.3358   -1.7939    0.0000 C   0  0  0  0  0  0  0  0  0
    4.5870    0.3743    0.0000 C   0  0  0  0  0  0  0  0  0
    5.4097    0.4360    0.0000 C   0  0  0  0  0  0  0  0  0
    5.7677    1.1793    0.0000 C   0  0  0  0  0  0  0  0  0
    5.4548    1.9426    0.0000 O   0  0  0  0  0  0  0  0  0
    6.0841    2.4761    0.0000 C   0  0  0  0  0  0  0  0  0
    5.4878    3.0462    0.0000 F   0  0  0  0  0  0  0  0  0
    6.5888    3.1287    0.0000 F   0  0  0  0  0  0  0  0  0
    6.7859    2.0424    0.0000 O   0  0  0  0  0  0  0  0  0
    6.5904    1.2409    0.0000 C   0  0  0  0  0  0  0  0  0
    7.0551    0.5593    0.0000 C   0  0  0  0  0  0  0  0  0
    6.6971   -0.1840    0.0000 C   0  0  0  0  0  0  0  0  0
    5.8744   -0.2457    0.0000 C   0  0  0  0  0  0  0  0  0
    3.6696   -3.2439    0.0000 C   0  0  0  0  0  0  0  0  0
    3.4860   -4.0482    0.0000 C   0  0  0  0  0  0  0  0  0
    2.7427   -4.4062    0.0000 N   0  0  0  0  0  0  0  0  0
    1.9994   -4.0482    0.0000 C   0  0  0  0  0  0  0  0  0
    1.3946   -4.6093    0.0000 C   0  0  0  0  0  0  0  0  0
    0.6063   -4.3662    0.0000 C   0  0  0  0  0  0  0  0  0
    4.0908   -4.6093    0.0000 C   0  0  0  0  0  0  0  0  0
    4.8791   -4.3662    0.0000 C   0  0  0  0  0  0  0  0  0
    5.0627   -3.5619    0.0000 C   0  0  0  0  0  0  0  0  0
    4.4579   -3.0007    0.0000 C   0  0  0  0  0  0  0  0  0
  1  2  1  0  0  0  0
  2  3  4  0  0  0  0
  2 30  4  0  0  0  0
  3  4  4  0  0  0  0
  4  5  1  0  0  0  0
  4 28  4  0  0  0  0
  5  6  2  0  0  0  0
  6  7  1  0  0  0  0
  6 25  1  0  0  0  0
  7  8  1  0  0  0  0
  7 12  1  0  0  0  0
  8  9  1  0  0  0  0
  9 10  1  0  0  0  0
 10 11  1  0  0  0  0
 10 13  1  0  0  0  0
 11 12  1  0  0  0  0
 13 14  1  0  0  0  0
 14 15  4  0  0  0  0
 14 24  4  0  0  0  0
 15 16  1  0  0  0  0
 15 21  4  0  0  0  0
 16 17  1  0  0  0  0
 17 18  1  0  0  0  0
 17 19  1  0  0  0  0
 17 20  1  0  0  0  0
 20 21  1  0  0  0  0
 21 22  4  0  0  0  0
 22 23  4  0  0  0  0
 23 24  4  0  0  0  0
 25 26  4  0  0  0  0
 25 34  4  0  0  0  0
 26 27  1  0  0  0  0
 26 31  4  0  0  0  0
 27 28  1  0  0  0  0
 28 29  4  0  0  0  0
 29 30  4  0  0  0  0
 31 32  4  0  0  0  0
 32 33  4  0  0  0  0
 33 34  4  0  0  0  0
M  END
>  <Name_Molregno>
357340

>  <DOPAMINE D1>
5.51

>  <DOPAMINE D2>
8.1

$$$$
357341
  Marvin  02231216192D 0   1.00000     0.00000     0

 34 38  0  0  0  0  0  0  0  0999 V2000
   -0.6736   -3.6618    0.0000 Cl  0  0  0  0  0  0  0  0  0
    0.1147   -3.9050    0.0000 C   0  0  0  0  0  0  0  0  0
    0.7195   -3.3439    0.0000 C   0  0  0  0  0  0  0  0  0
    1.5078   -3.5870    0.0000 C   0  0  0  0  0  0  0  0  0
    2.0222   -2.9420    0.0000 N   0  0  0  0  0  0  0  0  0
    2.8472   -2.9420    0.0000 C   0  0  0  0  0  0  0  0  0
    3.2052   -2.1987    0.0000 N   0  0  0  0  0  0  0  0  0
    2.7404   -1.5171    0.0000 C   0  0  0  0  0  0  0  0  0
    3.0984   -0.7738    0.0000 C   0  0  0  0  0  0  0  0  0
    3.9211   -0.7121    0.0000 N   0  0  0  0  0  0  0  0  0
    4.3858   -1.3938    0.0000 C   0  0  0  0  0  0  0  0  0
    4.0279   -2.1371    0.0000 C   0  0  0  0  0  0  0  0  0
    4.2790    0.0312    0.0000 C   0  0  0  0  0  0  0  0  0
    5.1017    0.0928    0.0000 C   0  0  0  0  0  0  0  0  0
    5.4597    0.8361    0.0000 C   0  0  0  0  0  0  0  0  0
    6.2824    0.8978    0.0000 C   0  0  0  0  0  0  0  0  0
    6.6403    1.6411    0.0000 O   0  0  0  0  0  0  0  0  0
    6.1756    2.3227    0.0000 C   0  0  0  0  0  0  0  0  0
    5.7108    3.0044    0.0000 F   0  0  0  0  0  0  0  0  0
    6.8572    2.7875    0.0000 F   0  0  0  0  0  0  0  0  0
    5.4939    1.8580    0.0000 F   0  0  0  0  0  0  0  0  0
    6.7471    0.2161    0.0000 C   0  0  0  0  0  0  0  0  0
    6.3892   -0.5272    0.0000 C   0  0  0  0  0  0  0  0  0
    5.5665   -0.5888    0.0000 C   0  0  0  0  0  0  0  0  0
    3.3616   -3.5870    0.0000 C   0  0  0  0  0  0  0  0  0
    3.1780   -4.3913    0.0000 C   0  0  0  0  0  0  0  0  0
    2.4347   -4.7493    0.0000 N   0  0  0  0  0  0  0  0  0
    1.6914   -4.3913    0.0000 C   0  0  0  0  0  0  0  0  0
    1.0866   -4.9525    0.0000 C   0  0  0  0  0  0  0  0  0
    0.2983   -4.7093    0.0000 C   0  0  0  0  0  0  0  0  0
    3.7828   -4.9525    0.0000 C   0  0  0  0  0  0  0  0  0
    4.5711   -4.7093    0.0000 C   0  0  0  0  0  0  0  0  0
    4.7547   -3.9050    0.0000 C   0  0  0  0  0  0  0  0  0
    4.1499   -3.3439    0.0000 C   0  0  0  0  0  0  0  0  0
  1  2  1  0  0  0  0
  2  3  4  0  0  0  0
  2 30  4  0  0  0  0
  3  4  4  0  0  0  0
  4  5  1  0  0  0  0
  4 28  4  0  0  0  0
  5  6  2  0  0  0  0
  6  7  1  0  0  0  0
  6 25  1  0  0  0  0
  7  8  1  0  0  0  0
  7 12  1  0  0  0  0
  8  9  1  0  0  0  0
  9 10  1  0  0  0  0
 10 11  1  0  0  0  0
 10 13  1  0  0  0  0
 11 12  1  0  0  0  0
 13 14  1  0  0  0  0
 14 15  4  0  0  0  0
 14 24  4  0  0  0  0
 15 16  4  0  0  0  0
 16 17  1  0  0  0  0
 16 22  4  0  0  0  0
 17 18  1  0  0  0  0
 18 19  1  0  0  0  0
 18 20  1  0  0  0  0
 18 21  1  0  0  0  0
 22 23  4  0  0  0  0
 23 24  4  0  0  0  0
 25 26  4  0  0  0  0
 25 34  4  0  0  0  0
 26 27  1  0  0  0  0
 26 31  4  0  0  0  0
 27 28  1  0  0  0  0
 28 29  4  0  0  0  0
 29 30  4  0  0  0  0
 31 32  4  0  0  0  0
 32 33  4  0  0  0  0
 33 34  4  0  0  0  0
M  END
>  <Name_Molregno>
357341

>  <DOPAMINE D1>
5.42

>  <DOPAMINE D2>
8.47

$$$$
357344
  Marvin  02231216192D 0   1.00000     0.00000     0

 41 46  0  0  0  0  0  0  0  0999 V2000
   -5.7566    1.3985    0.0000 Cl  0  0  0  0  0  0  0  0  0
   -5.0421    1.8110    0.0000 C   0  0  0  0  0  0  0  0  0
   -5.0421    2.6360    0.0000 C   0  0  0  0  0  0  0  0  0
   -4.3276    3.0485    0.0000 C   0  0  0  0  0  0  0  0  0
   -3.6132    2.6360    0.0000 C   0  0  0  0  0  0  0  0  0
   -3.6132    1.8110    0.0000 C   0  0  0  0  0  0  0  0  0
   -4.3276    1.3985    0.0000 C   0  0  0  0  0  0  0  0  0
   -4.3276    0.5735    0.0000 C   0  0  0  0  0  0  0  0  0
   -5.0421    0.1610    0.0000 O   0  0  0  0  0  0  0  0  0
   -3.6132    0.1610    0.0000 N   0  0  0  0  0  0  0  0  0
   -3.6132   -0.6640    0.0000 N   0  0  0  0  0  0  0  0  0
   -2.8699   -1.0220    0.0000 C   0  0  0  0  0  0  0  0  0
   -2.6863   -1.8263    0.0000 C   0  0  0  0  0  0  0  0  0
   -1.8979   -2.0695    0.0000 C   0  0  0  0  0  0  0  0  0
   -1.2932   -1.5083    0.0000 C   0  0  0  0  0  0  0  0  0
   -1.4767   -0.7040    0.0000 C   0  0  0  0  0  0  0  0  0
   -2.2651   -0.4609    0.0000 C   0  0  0  0  0  0  0  0  0
   -3.2007   -2.4713    0.0000 C   0  0  0  0  0  0  0  0  0
   -4.0257   -2.4713    0.0000 N   0  0  0  0  0  0  0  0  0
   -4.5400   -1.8263    0.0000 C   0  0  0  0  0  0  0  0  0
   -5.3284   -2.0695    0.0000 C   0  0  0  0  0  0  0  0  0
   -5.9331   -1.5083    0.0000 C   0  0  0  0  0  0  0  0  0
   -6.7215   -1.7515    0.0000 Cl  0  0  0  0  0  0  0  0  0
   -5.7496   -0.7040    0.0000 C   0  0  0  0  0  0  0  0  0
   -4.9612   -0.4609    0.0000 C   0  0  0  0  0  0  0  0  0
   -4.3565   -1.0220    0.0000 C   0  0  0  0  0  0  0  0  0
   -2.8427   -3.2146    0.0000 N   0  0  0  0  0  0  0  0  0
   -2.0200   -3.2763    0.0000 C   0  0  0  0  0  0  0  0  0
   -1.6621   -4.0196    0.0000 C   0  0  0  0  0  0  0  0  0
   -2.1268   -4.7012    0.0000 N   0  0  0  0  0  0  0  0  0
   -2.9495   -4.6396    0.0000 C   0  0  0  0  0  0  0  0  0
   -3.3074   -3.8963    0.0000 C   0  0  0  0  0  0  0  0  0
   -1.7688   -5.4445    0.0000 C   0  0  0  0  0  0  0  0  0
   -2.2336   -6.1262    0.0000 C   0  0  0  0  0  0  0  0  0
   -1.8756   -6.8695    0.0000 C   0  0  0  0  0  0  0  0  0
   -2.3404   -7.5511    0.0000 C   0  0  0  0  0  0  0  0  0
   -3.1631   -7.4895    0.0000 C   0  0  0  0  0  0  0  0  0
   -3.5210   -6.7462    0.0000 C   0  0  0  0  0  0  0  0  0
   -3.0563   -6.0645    0.0000 C   0  0  0  0  0  0  0  0  0
   -3.4142   -5.3212    0.0000 C   0  0  0  0  0  0  0  0  0
   -3.6278   -8.1711    0.0000 C   0  0  0  0  0  0  0  0  0
  1  2  1  0  0  0  0
  2  3  4  0  0  0  0
  2  7  4  0  0  0  0
  3  4  4  0  0  0  0
  4  5  4  0  0  0  0
  5  6  4  0  0  0  0
  6  7  4  0  0  0  0
  7  8  1  0  0  0  0
  8  9  2  0  0  0  0
  8 10  1  0  0  0  0
 10 11  1  0  0  0  0
 11 12  1  0  0  0  0
 11 26  1  0  0  0  0
 12 13  4  0  0  0  0
 12 17  4  0  0  0  0
 13 14  4  0  0  0  0
 13 18  1  0  0  0  0
 14 15  4  0  0  0  0
 15 16  4  0  0  0  0
 16 17  4  0  0  0  0
 18 19  2  0  0  0  0
 18 27  1  0  0  0  0
 19 20  1  0  0  0  0
 20 21  4  0  0  0  0
 20 26  4  0  0  0  0
 21 22  4  0  0  0  0
 22 23  1  0  0  0  0
 22 24  4  0  0  0  0
 24 25  4  0  0  0  0
 25 26  4  0  0  0  0
 27 28  1  0  0  0  0
 27 32  1  0  0  0  0
 28 29  1  0  0  0  0
 29 30  1  0  0  0  0
 30 31  1  0  0  0  0
 30 33  1  0  0  0  0
 31 32  1  0  0  0  0
 33 34  1  0  0  0  0
 34 35  4  0  0  0  0
 34 39  4  0  0  0  0
 35 36  4  0  0  0  0
 36 37  4  0  0  0  0
 37 38  4  0  0  0  0
 37 41  1  0  0  0  0
 38 39  4  0  0  0  0
 39 40  1  0  0  0  0
M  END
>  <Name_Molregno>
357344

>  <DOPAMINE D1>
5.96

>  <DOPAMINE D2>
5.52

$$$$
357345
  Marvin  02231216192D 0   1.00000     0.00000     0

 43 49  0  0  0  0  0  0  0  0999 V2000
   -8.2760   -2.5054    0.0000 Cl  0  0  0  0  0  0  0  0  0
   -8.7407   -1.8238    0.0000 C   0  0  0  0  0  0  0  0  0
   -9.5634   -1.8855    0.0000 C   0  0  0  0  0  0  0  0  0
  -10.0282   -1.2038    0.0000 C   0  0  0  0  0  0  0  0  0
   -9.6702   -0.4605    0.0000 C   0  0  0  0  0  0  0  0  0
   -8.8475   -0.3989    0.0000 C   0  0  0  0  0  0  0  0  0
   -8.3828   -1.0805    0.0000 C   0  0  0  0  0  0  0  0  0
   -7.5601   -1.0188    0.0000 C   0  0  0  0  0  0  0  0  0
   -7.0954   -1.7005    0.0000 O   0  0  0  0  0  0  0  0  0
   -7.2021   -0.2755    0.0000 N   0  0  0  0  0  0  0  0  0
   -6.3794   -0.2139    0.0000 N   0  0  0  0  0  0  0  0  0
   -6.0780    0.5541    0.0000 C   0  0  0  0  0  0  0  0  0
   -5.2897    0.7972    0.0000 C   0  0  0  0  0  0  0  0  0
   -5.1061    1.6016    0.0000 C   0  0  0  0  0  0  0  0  0
   -5.7109    2.1627    0.0000 C   0  0  0  0  0  0  0  0  0
   -6.4992    1.9195    0.0000 C   0  0  0  0  0  0  0  0  0
   -6.6828    1.1152    0.0000 C   0  0  0  0  0  0  0  0  0
   -4.6080    0.3325    0.0000 C   0  0  0  0  0  0  0  0  0
   -4.5464   -0.4902    0.0000 N   0  0  0  0  0  0  0  0  0
   -5.1512   -1.0513    0.0000 C   0  0  0  0  0  0  0  0  0
   -4.8498   -1.8193    0.0000 C   0  0  0  0  0  0  0  0  0
   -5.3641   -2.4643    0.0000 C   0  0  0  0  0  0  0  0  0
   -5.0627   -3.2323    0.0000 Cl  0  0  0  0  0  0  0  0  0
   -6.1799   -2.3413    0.0000 C   0  0  0  0  0  0  0  0  0
   -6.4813   -1.5734    0.0000 C   0  0  0  0  0  0  0  0  0
   -5.9669   -0.9284    0.0000 C   0  0  0  0  0  0  0  0  0
   -3.8936    0.7450    0.0000 N   0  0  0  0  0  0  0  0  0
   -3.8936    1.5700    0.0000 C   0  0  0  0  0  0  0  0  0
   -3.1791    1.9825    0.0000 C   0  0  0  0  0  0  0  0  0
   -2.4646    1.5700    0.0000 N   0  0  0  0  0  0  0  0  0
   -2.4646    0.7450    0.0000 C   0  0  0  0  0  0  0  0  0
   -3.1791    0.3325    0.0000 C   0  0  0  0  0  0  0  0  0
   -1.7502    1.9825    0.0000 C   0  0  0  0  0  0  0  0  0
   -1.0357    1.5700    0.0000 C   0  0  0  0  0  0  0  0  0
   -0.3212    1.9825    0.0000 C   0  0  0  0  0  0  0  0  0
    0.3933    1.5700    0.0000 C   0  0  0  0  0  0  0  0  0
    1.1077    1.9825    0.0000 O   0  0  0  0  0  0  0  0  0
    1.8222    1.5700    0.0000 C   0  0  0  0  0  0  0  0  0
    1.8222    0.7450    0.0000 C   0  0  0  0  0  0  0  0  0
    1.1077    0.3325    0.0000 O   0  0  0  0  0  0  0  0  0
    0.3933    0.7450    0.0000 C   0  0  0  0  0  0  0  0  0
   -0.3212    0.3325    0.0000 C   0  0  0  0  0  0  0  0  0
   -1.0357    0.7450    0.0000 C   0  0  0  0  0  0  0  0  0
  1  2  1  0  0  0  0
  2  3  4  0  0  0  0
  2  7  4  0  0  0  0
  3  4  4  0  0  0  0
  4  5  4  0  0  0  0
  5  6  4  0  0  0  0
  6  7  4  0  0  0  0
  7  8  1  0  0  0  0
  8  9  2  0  0  0  0
  8 10  1  0  0  0  0
 10 11  1  0  0  0  0
 11 12  1  0  0  0  0
 11 26  1  0  0  0  0
 12 13  4  0  0  0  0
 12 17  4  0  0  0  0
 13 14  4  0  0  0  0
 13 18  1  0  0  0  0
 14 15  4  0  0  0  0
 15 16  4  0  0  0  0
 16 17  4  0  0  0  0
 18 19  2  0  0  0  0
 18 27  1  0  0  0  0
 19 20  1  0  0  0  0
 20 21  4  0  0  0  0
 20 26  4  0  0  0  0
 21 22  4  0  0  0  0
 22 23  1  0  0  0  0
 22 24  4  0  0  0  0
 24 25  4  0  0  0  0
 25 26  4  0  0  0  0
 27 28  1  0  0  0  0
 27 32  1  0  0  0  0
 28 29  1  0  0  0  0
 29 30  1  0  0  0  0
 30 31  1  0  0  0  0
 30 33  1  0  0  0  0
 31 32  1  0  0  0  0
 33 34  1  0  0  0  0
 34 35  4  0  0  0  0
 34 43  4  0  0  0  0
 35 36  4  0  0  0  0
 36 37  1  0  0  0  0
 36 41  4  0  0  0  0
 37 38  1  0  0  0  0
 38 39  1  0  0  0  0
 39 40  1  0  0  0  0
 40 41  1  0  0  0  0
 41 42  4  0  0  0  0
 42 43  4  0  0  0  0
M  END
>  <Name_Molregno>
357345

>  <DOPAMINE D1>
6.62

>  <DOPAMINE D2>
5.7

$$$$
357346
  Marvin  02231216192D 0   1.00000     0.00000     0

 44 50  0  0  0  0  0  0  0  0999 V2000
    8.9770   -2.1048    0.0000 Cl  0  0  0  0  0  0  0  0  0
    8.6191   -2.8481    0.0000 C   0  0  0  0  0  0  0  0  0
    9.0838   -3.5298    0.0000 C   0  0  0  0  0  0  0  0  0
    8.7259   -4.2731    0.0000 C   0  0  0  0  0  0  0  0  0
    7.9032   -4.3347    0.0000 C   0  0  0  0  0  0  0  0  0
    7.4384   -3.6531    0.0000 C   0  0  0  0  0  0  0  0  0
    7.7964   -2.9098    0.0000 C   0  0  0  0  0  0  0  0  0
    7.3317   -2.2281    0.0000 C   0  0  0  0  0  0  0  0  0
    7.6896   -1.4848    0.0000 O   0  0  0  0  0  0  0  0  0
    6.5090   -2.2898    0.0000 N   0  0  0  0  0  0  0  0  0
    6.0442   -1.6081    0.0000 N   0  0  0  0  0  0  0  0  0
    5.2284   -1.7311    0.0000 C   0  0  0  0  0  0  0  0  0
    4.6237   -1.1699    0.0000 C   0  0  0  0  0  0  0  0  0
    3.8353   -1.4131    0.0000 C   0  0  0  0  0  0  0  0  0
    3.6517   -2.2174    0.0000 C   0  0  0  0  0  0  0  0  0
    4.2565   -2.7786    0.0000 C   0  0  0  0  0  0  0  0  0
    5.0449   -2.5354    0.0000 C   0  0  0  0  0  0  0  0  0
    4.6853   -0.3473    0.0000 C   0  0  0  0  0  0  0  0  0
    5.3670    0.1175    0.0000 N   0  0  0  0  0  0  0  0  0
    6.1553   -0.1257    0.0000 C   0  0  0  0  0  0  0  0  0
    6.6697    0.5193    0.0000 C   0  0  0  0  0  0  0  0  0
    7.4855    0.3964    0.0000 C   0  0  0  0  0  0  0  0  0
    7.9999    1.0414    0.0000 Cl  0  0  0  0  0  0  0  0  0
    7.7869   -0.3716    0.0000 C   0  0  0  0  0  0  0  0  0
    7.2725   -1.0166    0.0000 C   0  0  0  0  0  0  0  0  0
    6.4567   -0.8937    0.0000 C   0  0  0  0  0  0  0  0  0
    3.9709    0.0652    0.0000 N   0  0  0  0  0  0  0  0  0
    3.2564   -0.3473    0.0000 C   0  0  0  0  0  0  0  0  0
    2.5419    0.0652    0.0000 C   0  0  0  0  0  0  0  0  0
    2.5419    0.8902    0.0000 N   0  0  0  0  0  0  0  0  0
    3.2564    1.3027    0.0000 C   0  0  0  0  0  0  0  0  0
    3.9709    0.8902    0.0000 C   0  0  0  0  0  0  0  0  0
    1.8274    1.3027    0.0000 C   0  0  0  0  0  0  0  0  0
    1.8274    2.1277    0.0000 C   0  0  0  0  0  0  0  0  0
    1.1130    2.5402    0.0000 C   0  0  0  0  0  0  0  0  0
    0.3283    2.2853    0.0000 O   0  0  0  0  0  0  0  0  0
   -0.1566    2.9527    0.0000 C   0  0  0  0  0  0  0  0  0
   -0.7697    2.4007    0.0000 F   0  0  0  0  0  0  0  0  0
   -0.7697    3.5048    0.0000 F   0  0  0  0  0  0  0  0  0
    0.3283    3.6202    0.0000 O   0  0  0  0  0  0  0  0  0
    1.1130    3.3652    0.0000 C   0  0  0  0  0  0  0  0  0
    1.8274    3.7777    0.0000 C   0  0  0  0  0  0  0  0  0
    2.5419    3.3652    0.0000 C   0  0  0  0  0  0  0  0  0
    2.5419    2.5402    0.0000 C   0  0  0  0  0  0  0  0  0
  1  2  1  0  0  0  0
  2  3  4  0  0  0  0
  2  7  4  0  0  0  0
  3  4  4  0  0  0  0
  4  5  4  0  0  0  0
  5  6  4  0  0  0  0
  6  7  4  0  0  0  0
  7  8  1  0  0  0  0
  8  9  2  0  0  0  0
  8 10  1  0  0  0  0
 10 11  1  0  0  0  0
 11 12  1  0  0  0  0
 11 26  1  0  0  0  0
 12 13  4  0  0  0  0
 12 17  4  0  0  0  0
 13 14  4  0  0  0  0
 13 18  1  0  0  0  0
 14 15  4  0  0  0  0
 15 16  4  0  0  0  0
 16 17  4  0  0  0  0
 18 19  2  0  0  0  0
 18 27  1  0  0  0  0
 19 20  1  0  0  0  0
 20 21  4  0  0  0  0
 20 26  4  0  0  0  0
 21 22  4  0  0  0  0
 22 23  1  0  0  0  0
 22 24  4  0  0  0  0
 24 25  4  0  0  0  0
 25 26  4  0  0  0  0
 27 28  1  0  0  0  0
 27 32  1  0  0  0  0
 28 29  1  0  0  0  0
 29 30  1  0  0  0  0
 30 31  1  0  0  0  0
 30 33  1  0  0  0  0
 31 32  1  0  0  0  0
 33 34  1  0  0  0  0
 34 35  4  0  0  0  0
 34 44  4  0  0  0  0
 35 36  1  0  0  0  0
 35 41  4  0  0  0  0
 36 37  1  0  0  0  0
 37 38  1  0  0  0  0
 37 39  1  0  0  0  0
 37 40  1  0  0  0  0
 40 41  1  0  0  0  0
 41 42  4  0  0  0  0
 42 43  4  0  0  0  0
 43 44  4  0  0  0  0
M  END
>  <Name_Molregno>
357346

>  <DOPAMINE D1>
5.32

>  <DOPAMINE D2>
5.52

$$$$
357347
  Marvin  02231216192D 0   1.00000     0.00000     0

 44 49  0  0  0  0  0  0  0  0999 V2000
    1.5687    2.5372    0.0000 Cl  0  0  0  0  0  0  0  0  0
    2.2831    2.9497    0.0000 C   0  0  0  0  0  0  0  0  0
    2.2831    3.7747    0.0000 C   0  0  0  0  0  0  0  0  0
    2.9976    4.1872    0.0000 C   0  0  0  0  0  0  0  0  0
    3.7121    3.7747    0.0000 C   0  0  0  0  0  0  0  0  0
    3.7121    2.9497    0.0000 C   0  0  0  0  0  0  0  0  0
    2.9976    2.5372    0.0000 C   0  0  0  0  0  0  0  0  0
    2.9976    1.7122    0.0000 C   0  0  0  0  0  0  0  0  0
    2.2831    1.2997    0.0000 O   0  0  0  0  0  0  0  0  0
    3.7121    1.2997    0.0000 N   0  0  0  0  0  0  0  0  0
    3.7121    0.4747    0.0000 N   0  0  0  0  0  0  0  0  0
    4.4554    0.1167    0.0000 C   0  0  0  0  0  0  0  0  0
    4.6389   -0.6876    0.0000 C   0  0  0  0  0  0  0  0  0
    5.4273   -0.9307    0.0000 C   0  0  0  0  0  0  0  0  0
    6.0321   -0.3696    0.0000 C   0  0  0  0  0  0  0  0  0
    5.8485    0.4347    0.0000 C   0  0  0  0  0  0  0  0  0
    5.0601    0.6779    0.0000 C   0  0  0  0  0  0  0  0  0
    4.1246   -1.3326    0.0000 C   0  0  0  0  0  0  0  0  0
    3.2996   -1.3326    0.0000 N   0  0  0  0  0  0  0  0  0
    2.7852   -0.6876    0.0000 C   0  0  0  0  0  0  0  0  0
    1.9968   -0.9307    0.0000 C   0  0  0  0  0  0  0  0  0
    1.3921   -0.3696    0.0000 C   0  0  0  0  0  0  0  0  0
    0.6037   -0.6128    0.0000 Cl  0  0  0  0  0  0  0  0  0
    1.5757    0.4347    0.0000 C   0  0  0  0  0  0  0  0  0
    2.3640    0.6779    0.0000 C   0  0  0  0  0  0  0  0  0
    2.9688    0.1167    0.0000 C   0  0  0  0  0  0  0  0  0
    4.4825   -2.0759    0.0000 N   0  0  0  0  0  0  0  0  0
    5.3052   -2.1375    0.0000 C   0  0  0  0  0  0  0  0  0
    5.6632   -2.8808    0.0000 C   0  0  0  0  0  0  0  0  0
    5.1984   -3.5625    0.0000 N   0  0  0  0  0  0  0  0  0
    4.3757   -3.5008    0.0000 C   0  0  0  0  0  0  0  0  0
    4.0178   -2.7575    0.0000 C   0  0  0  0  0  0  0  0  0
    5.5564   -4.3058    0.0000 C   0  0  0  0  0  0  0  0  0
    5.0916   -4.9874    0.0000 C   0  0  0  0  0  0  0  0  0
    5.4496   -5.7307    0.0000 C   0  0  0  0  0  0  0  0  0
    4.9849   -6.4124    0.0000 C   0  0  0  0  0  0  0  0  0
    5.3428   -7.1557    0.0000 O   0  0  0  0  0  0  0  0  0
    6.1655   -7.2173    0.0000 C   0  0  0  0  0  0  0  0  0
    6.9882   -7.2790    0.0000 F   0  0  0  0  0  0  0  0  0
    6.1039   -8.0400    0.0000 F   0  0  0  0  0  0  0  0  0
    6.2272   -6.3946    0.0000 F   0  0  0  0  0  0  0  0  0
    4.1622   -6.3507    0.0000 C   0  0  0  0  0  0  0  0  0
    3.8042   -5.6074    0.0000 C   0  0  0  0  0  0  0  0  0
    4.2690   -4.9258    0.0000 C   0  0  0  0  0  0  0  0  0
  1  2  1  0  0  0  0
  2  3  4  0  0  0  0
  2  7  4  0  0  0  0
  3  4  4  0  0  0  0
  4  5  4  0  0  0  0
  5  6  4  0  0  0  0
  6  7  4  0  0  0  0
  7  8  1  0  0  0  0
  8  9  2  0  0  0  0
  8 10  1  0  0  0  0
 10 11  1  0  0  0  0
 11 12  1  0  0  0  0
 11 26  1  0  0  0  0
 12 13  4  0  0  0  0
 12 17  4  0  0  0  0
 13 14  4  0  0  0  0
 13 18  1  0  0  0  0
 14 15  4  0  0  0  0
 15 16  4  0  0  0  0
 16 17  4  0  0  0  0
 18 19  2  0  0  0  0
 18 27  1  0  0  0  0
 19 20  1  0  0  0  0
 20 21  4  0  0  0  0
 20 26  4  0  0  0  0
 21 22  4  0  0  0  0
 22 23  1  0  0  0  0
 22 24  4  0  0  0  0
 24 25  4  0  0  0  0
 25 26  4  0  0  0  0
 27 28  1  0  0  0  0
 27 32  1  0  0  0  0
 28 29  1  0  0  0  0
 29 30  1  0  0  0  0
 30 31  1  0  0  0  0
 30 33  1  0  0  0  0
 31 32  1  0  0  0  0
 33 34  1  0  0  0  0
 34 35  4  0  0  0  0
 34 44  4  0  0  0  0
 35 36  4  0  0  0  0
 36 37  1  0  0  0  0
 36 42  4  0  0  0  0
 37 38  1  0  0  0  0
 38 39  1  0  0  0  0
 38 40  1  0  0  0  0
 38 41  1  0  0  0  0
 42 43  4  0  0  0  0
 43 44  4  0  0  0  0
M  END
>  <Name_Molregno>
357347

>  <DOPAMINE D1>
5.59

>  <DOPAMINE D2>
5.52

$$$$
357348
  Marvin  02231216192D 0   1.00000     0.00000     0

 35 40  0  0  0  0  0  0  0  0999 V2000
    0.2259   -0.6140    0.0000 Cl  0  0  0  0  0  0  0  0  0
   -0.5624   -0.8572    0.0000 C   0  0  0  0  0  0  0  0  0
   -1.1672   -0.2961    0.0000 C   0  0  0  0  0  0  0  0  0
   -1.9555   -0.5392    0.0000 C   0  0  0  0  0  0  0  0  0
   -2.1391   -1.3436    0.0000 C   0  0  0  0  0  0  0  0  0
   -2.8824   -1.7015    0.0000 N   0  0  0  0  0  0  0  0  0
   -2.8824   -2.5265    0.0000 N   0  0  0  0  0  0  0  0  0
   -3.5969   -2.9390    0.0000 C   0  0  0  0  0  0  0  0  0
   -4.3114   -2.5265    0.0000 O   0  0  0  0  0  0  0  0  0
   -3.5969   -3.7640    0.0000 C   0  0  0  0  0  0  0  0  0
   -2.8824   -4.1765    0.0000 C   0  0  0  0  0  0  0  0  0
   -2.8824   -5.0015    0.0000 C   0  0  0  0  0  0  0  0  0
   -2.2693   -5.5535    0.0000 O   0  0  0  0  0  0  0  0  0
   -2.6049   -6.3072    0.0000 C   0  0  0  0  0  0  0  0  0
   -3.4254   -6.2210    0.0000 O   0  0  0  0  0  0  0  0  0
   -3.5969   -5.4140    0.0000 C   0  0  0  0  0  0  0  0  0
   -4.3114   -5.0015    0.0000 C   0  0  0  0  0  0  0  0  0
   -4.3114   -4.1765    0.0000 C   0  0  0  0  0  0  0  0  0
   -3.6257   -1.3436    0.0000 C   0  0  0  0  0  0  0  0  0
   -3.8093   -0.5392    0.0000 C   0  0  0  0  0  0  0  0  0
   -3.2949    0.1058    0.0000 N   0  0  0  0  0  0  0  0  0
   -2.4699    0.1058    0.0000 C   0  0  0  0  0  0  0  0  0
   -2.1120    0.8491    0.0000 N   0  0  0  0  0  0  0  0  0
   -2.5767    1.5307    0.0000 C   0  0  0  0  0  0  0  0  0
   -2.2187    2.2740    0.0000 C   0  0  0  0  0  0  0  0  0
   -1.3961    2.3357    0.0000 N   0  0  0  0  0  0  0  0  0
   -0.9313    1.6540    0.0000 C   0  0  0  0  0  0  0  0  0
   -1.2893    0.9107    0.0000 C   0  0  0  0  0  0  0  0  0
   -1.0381    3.0790    0.0000 C   0  0  0  0  0  0  0  0  0
   -4.5976   -0.2961    0.0000 C   0  0  0  0  0  0  0  0  0
   -5.2024   -0.8572    0.0000 C   0  0  0  0  0  0  0  0  0
   -5.0188   -1.6615    0.0000 C   0  0  0  0  0  0  0  0  0
   -4.2305   -1.9047    0.0000 C   0  0  0  0  0  0  0  0  0
   -1.5344   -1.9047    0.0000 C   0  0  0  0  0  0  0  0  0
   -0.7460   -1.6615    0.0000 C   0  0  0  0  0  0  0  0  0
  1  2  1  0  0  0  0
  2  3  4  0  0  0  0
  2 35  4  0  0  0  0
  3  4  4  0  0  0  0
  4  5  4  0  0  0  0
  4 22  1  0  0  0  0
  5  6  1  0  0  0  0
  5 34  4  0  0  0  0
  6  7  1  0  0  0  0
  6 19  1  0  0  0  0
  7  8  1  0  0  0  0
  8  9  2  0  0  0  0
  8 10  1  0  0  0  0
 10 11  4  0  0  0  0
 10 18  4  0  0  0  0
 11 12  4  0  0  0  0
 12 13  1  0  0  0  0
 12 16  4  0  0  0  0
 13 14  1  0  0  0  0
 14 15  1  0  0  0  0
 15 16  1  0  0  0  0
 16 17  4  0  0  0  0
 17 18  4  0  0  0  0
 19 20  4  0  0  0  0
 19 33  4  0  0  0  0
 20 21  1  0  0  0  0
 20 30  4  0  0  0  0
 21 22  2  0  0  0  0
 22 23  1  0  0  0  0
 23 24  1  0  0  0  0
 23 28  1  0  0  0  0
 24 25  1  0  0  0  0
 25 26  1  0  0  0  0
 26 27  1  0  0  0  0
 26 29  1  0  0  0  0
 27 28  1  0  0  0  0
 30 31  4  0  0  0  0
 31 32  4  0  0  0  0
 32 33  4  0  0  0  0
 34 35  4  0  0  0  0
M  END
>  <Name_Molregno>
357348

>  <DOPAMINE D1>
7.08

>  <DOPAMINE D2>
5.9

$$$$
357349
  Marvin  02231216192D 0   1.00000     0.00000     0

 38 42  0  0  0  0  0  0  0  0999 V2000
    0.9440   -1.1256    0.0000 Cl  0  0  0  0  0  0  0  0  0
    0.1556   -1.3687    0.0000 C   0  0  0  0  0  0  0  0  0
   -0.4492   -0.8076    0.0000 C   0  0  0  0  0  0  0  0  0
   -1.2375   -1.0508    0.0000 C   0  0  0  0  0  0  0  0  0
   -1.4211   -1.8551    0.0000 C   0  0  0  0  0  0  0  0  0
   -2.1644   -2.2130    0.0000 N   0  0  0  0  0  0  0  0  0
   -2.1644   -3.0380    0.0000 N   0  0  0  0  0  0  0  0  0
   -2.8788   -3.4505    0.0000 C   0  0  0  0  0  0  0  0  0
   -3.5933   -3.0380    0.0000 O   0  0  0  0  0  0  0  0  0
   -2.8788   -4.2755    0.0000 C   0  0  0  0  0  0  0  0  0
   -2.1644   -4.6880    0.0000 C   0  0  0  0  0  0  0  0  0
   -2.1644   -5.5130    0.0000 C   0  0  0  0  0  0  0  0  0
   -1.4499   -5.9255    0.0000 O   0  0  0  0  0  0  0  0  0
   -1.4499   -6.7505    0.0000 C   0  0  0  0  0  0  0  0  0
   -2.8788   -5.9255    0.0000 C   0  0  0  0  0  0  0  0  0
   -2.8788   -6.7505    0.0000 O   0  0  0  0  0  0  0  0  0
   -3.5933   -7.1630    0.0000 C   0  0  0  0  0  0  0  0  0
   -3.5933   -5.5130    0.0000 C   0  0  0  0  0  0  0  0  0
   -4.3078   -5.9255    0.0000 O   0  0  0  0  0  0  0  0  0
   -5.0223   -5.5130    0.0000 C   0  0  0  0  0  0  0  0  0
   -3.5933   -4.6880    0.0000 C   0  0  0  0  0  0  0  0  0
   -2.9077   -1.8551    0.0000 C   0  0  0  0  0  0  0  0  0
   -3.0913   -1.0508    0.0000 C   0  0  0  0  0  0  0  0  0
   -2.5769   -0.4057    0.0000 N   0  0  0  0  0  0  0  0  0
   -1.7519   -0.4057    0.0000 C   0  0  0  0  0  0  0  0  0
   -1.3939    0.3376    0.0000 N   0  0  0  0  0  0  0  0  0
   -1.8587    1.0192    0.0000 C   0  0  0  0  0  0  0  0  0
   -1.5007    1.7625    0.0000 C   0  0  0  0  0  0  0  0  0
   -0.6780    1.8242    0.0000 N   0  0  0  0  0  0  0  0  0
   -0.2133    1.1425    0.0000 C   0  0  0  0  0  0  0  0  0
   -0.5712    0.3992    0.0000 C   0  0  0  0  0  0  0  0  0
   -0.3201    2.5675    0.0000 C   0  0  0  0  0  0  0  0  0
   -3.8796   -0.8076    0.0000 C   0  0  0  0  0  0  0  0  0
   -4.4844   -1.3687    0.0000 C   0  0  0  0  0  0  0  0  0
   -4.3008   -2.1730    0.0000 C   0  0  0  0  0  0  0  0  0
   -3.5124   -2.4162    0.0000 C   0  0  0  0  0  0  0  0  0
   -0.8163   -2.4162    0.0000 C   0  0  0  0  0  0  0  0  0
   -0.0280   -2.1730    0.0000 C   0  0  0  0  0  0  0  0  0
  1  2  1  0  0  0  0
  2  3  4  0  0  0  0
  2 38  4  0  0  0  0
  3  4  4  0  0  0  0
  4  5  4  0  0  0  0
  4 25  1  0  0  0  0
  5  6  1  0  0  0  0
  5 37  4  0  0  0  0
  6  7  1  0  0  0  0
  6 22  1  0  0  0  0
  7  8  1  0  0  0  0
  8  9  2  0  0  0  0
  8 10  1  0  0  0  0
 10 11  4  0  0  0  0
 10 21  4  0  0  0  0
 11 12  4  0  0  0  0
 12 13  1  0  0  0  0
 12 15  4  0  0  0  0
 13 14  1  0  0  0  0
 15 16  1  0  0  0  0
 15 18  4  0  0  0  0
 16 17  1  0  0  0  0
 18 19  1  0  0  0  0
 18 21  4  0  0  0  0
 19 20  1  0  0  0  0
 22 23  4  0  0  0  0
 22 36  4  0  0  0  0
 23 24  1  0  0  0  0
 23 33  4  0  0  0  0
 24 25  2  0  0  0  0
 25 26  1  0  0  0  0
 26 27  1  0  0  0  0
 26 31  1  0  0  0  0
 27 28  1  0  0  0  0
 28 29  1  0  0  0  0
 29 30  1  0  0  0  0
 29 32  1  0  0  0  0
 30 31  1  0  0  0  0
 33 34  4  0  0  0  0
 34 35  4  0  0  0  0
 35 36  4  0  0  0  0
 37 38  4  0  0  0  0
M  END
>  <Name_Molregno>
357349

>  <DOPAMINE D1>
7.7

>  <DOPAMINE D2>
5.49

$$$$
357359
  Marvin  02231216192D 0   1.00000     0.00000     0

 34 38  0  0  0  0  0  0  0  0999 V2000
   -2.7573   -2.7195    0.0000 Cl  0  0  0  0  0  0  0  0  0
   -1.9690   -2.9627    0.0000 C   0  0  0  0  0  0  0  0  0
   -1.3642   -2.4016    0.0000 C   0  0  0  0  0  0  0  0  0
   -0.5758   -2.6447    0.0000 C   0  0  0  0  0  0  0  0  0
   -0.0615   -1.9997    0.0000 N   0  0  0  0  0  0  0  0  0
    0.7635   -1.9997    0.0000 C   0  0  0  0  0  0  0  0  0
    1.1215   -1.2564    0.0000 N   0  0  0  0  0  0  0  0  0
    0.6567   -0.5748    0.0000 C   0  0  0  0  0  0  0  0  0
    1.0147    0.1685    0.0000 C   0  0  0  0  0  0  0  0  0
    1.8374    0.2302    0.0000 N   0  0  0  0  0  0  0  0  0
    2.3021   -0.4515    0.0000 C   0  0  0  0  0  0  0  0  0
    1.9442   -1.1948    0.0000 C   0  0  0  0  0  0  0  0  0
    2.1953    0.9735    0.0000 C   0  0  0  0  0  0  0  0  0
    1.2779   -2.6447    0.0000 C   0  0  0  0  0  0  0  0  0
    1.0943   -3.4490    0.0000 C   0  0  0  0  0  0  0  0  0
    0.3510   -3.8070    0.0000 N   0  0  0  0  0  0  0  0  0
    0.3510   -4.6320    0.0000 N   0  0  0  0  0  0  0  0  0
   -0.3634   -5.0445    0.0000 C   0  0  0  0  0  0  0  0  0
   -1.0779   -4.6320    0.0000 O   0  0  0  0  0  0  0  0  0
   -0.3634   -5.8695    0.0000 C   0  0  0  0  0  0  0  0  0
    0.3040   -6.3544    0.0000 S   0  0  0  0  0  0  0  0  0
    0.0491   -7.1390    0.0000 C   0  0  0  0  0  0  0  0  0
   -0.7759   -7.1390    0.0000 C   0  0  0  0  0  0  0  0  0
   -1.2609   -7.8065    0.0000 O   0  0  0  0  0  0  0  0  0
   -2.0813   -7.7202    0.0000 C   0  0  0  0  0  0  0  0  0
   -2.5663   -8.3877    0.0000 C   0  0  0  0  0  0  0  0  0
   -1.0309   -6.3544    0.0000 C   0  0  0  0  0  0  0  0  0
   -0.3923   -3.4490    0.0000 C   0  0  0  0  0  0  0  0  0
   -0.9970   -4.0102    0.0000 C   0  0  0  0  0  0  0  0  0
   -1.7854   -3.7670    0.0000 C   0  0  0  0  0  0  0  0  0
    1.6991   -4.0102    0.0000 C   0  0  0  0  0  0  0  0  0
    2.4874   -3.7670    0.0000 C   0  0  0  0  0  0  0  0  0
    2.6710   -2.9627    0.0000 C   0  0  0  0  0  0  0  0  0
    2.0663   -2.4016    0.0000 C   0  0  0  0  0  0  0  0  0
  1  2  1  0  0  0  0
  2  3  4  0  0  0  0
  2 30  4  0  0  0  0
  3  4  4  0  0  0  0
  4  5  1  0  0  0  0
  4 28  4  0  0  0  0
  5  6  2  0  0  0  0
  6  7  1  0  0  0  0
  6 14  1  0  0  0  0
  7  8  1  0  0  0  0
  7 12  1  0  0  0  0
  8  9  1  0  0  0  0
  9 10  1  0  0  0  0
 10 11  1  0  0  0  0
 10 13  1  0  0  0  0
 11 12  1  0  0  0  0
 14 15  4  0  0  0  0
 14 34  4  0  0  0  0
 15 16  1  0  0  0  0
 15 31  4  0  0  0  0
 16 17  1  0  0  0  0
 16 28  1  0  0  0  0
 17 18  1  0  0  0  0
 18 19  2  0  0  0  0
 18 20  1  0  0  0  0
 20 21  4  0  0  0  0
 20 27  4  0  0  0  0
 21 22  4  0  0  0  0
 22 23  4  0  0  0  0
 23 24  1  0  0  0  0
 23 27  4  0  0  0  0
 24 25  1  0  0  0  0
 25 26  1  0  0  0  0
 28 29  4  0  0  0  0
 29 30  4  0  0  0  0
 31 32  4  0  0  0  0
 32 33  4  0  0  0  0
 33 34  4  0  0  0  0
M  END
>  <Name_Molregno>
357359

>  <DOPAMINE D1>
8

>  <DOPAMINE D2>
6.74

$$$$
357360
  Marvin  02231216192D 0   1.00000     0.00000     0

 37 42  0  0  0  0  0  0  0  0999 V2000
   -3.9720   -2.7601    0.0000 Cl  0  0  0  0  0  0  0  0  0
   -3.1837   -3.0033    0.0000 C   0  0  0  0  0  0  0  0  0
   -2.5789   -2.4421    0.0000 C   0  0  0  0  0  0  0  0  0
   -1.7906   -2.6853    0.0000 C   0  0  0  0  0  0  0  0  0
   -1.2762   -2.0403    0.0000 N   0  0  0  0  0  0  0  0  0
   -0.4512   -2.0403    0.0000 C   0  0  0  0  0  0  0  0  0
   -0.0932   -1.2970    0.0000 N   0  0  0  0  0  0  0  0  0
   -0.5580   -0.6153    0.0000 C   0  0  0  0  0  0  0  0  0
   -0.2000    0.1280    0.0000 C   0  0  0  0  0  0  0  0  0
    0.6227    0.1896    0.0000 N   0  0  0  0  0  0  0  0  0
    1.0874   -0.4920    0.0000 C   0  0  0  0  0  0  0  0  0
    0.7295   -1.2353    0.0000 C   0  0  0  0  0  0  0  0  0
    0.9806    0.9329    0.0000 C   0  0  0  0  0  0  0  0  0
    0.0632   -2.6853    0.0000 C   0  0  0  0  0  0  0  0  0
   -0.1204   -3.4896    0.0000 C   0  0  0  0  0  0  0  0  0
   -0.8637   -3.8476    0.0000 N   0  0  0  0  0  0  0  0  0
   -0.8637   -4.6726    0.0000 N   0  0  0  0  0  0  0  0  0
   -1.5782   -5.0851    0.0000 C   0  0  0  0  0  0  0  0  0
   -2.2926   -4.6726    0.0000 O   0  0  0  0  0  0  0  0  0
   -1.5782   -5.9101    0.0000 C   0  0  0  0  0  0  0  0  0
   -0.9107   -6.3950    0.0000 S   0  0  0  0  0  0  0  0  0
   -1.1657   -7.1796    0.0000 C   0  0  0  0  0  0  0  0  0
   -1.9907   -7.1796    0.0000 C   0  0  0  0  0  0  0  0  0
   -2.2456   -6.3950    0.0000 C   0  0  0  0  0  0  0  0  0
   -3.0302   -6.1400    0.0000 C   0  0  0  0  0  0  0  0  0
   -3.6433   -6.6921    0.0000 C   0  0  0  0  0  0  0  0  0
   -4.4279   -6.4371    0.0000 C   0  0  0  0  0  0  0  0  0
   -4.5995   -5.6302    0.0000 C   0  0  0  0  0  0  0  0  0
   -3.9864   -5.0781    0.0000 C   0  0  0  0  0  0  0  0  0
   -3.2018   -5.3331    0.0000 C   0  0  0  0  0  0  0  0  0
   -1.6070   -3.4896    0.0000 C   0  0  0  0  0  0  0  0  0
   -2.2118   -4.0507    0.0000 C   0  0  0  0  0  0  0  0  0
   -3.0001   -3.8076    0.0000 C   0  0  0  0  0  0  0  0  0
    0.4844   -4.0507    0.0000 C   0  0  0  0  0  0  0  0  0
    1.2727   -3.8076    0.0000 C   0  0  0  0  0  0  0  0  0
    1.4563   -3.0033    0.0000 C   0  0  0  0  0  0  0  0  0
    0.8515   -2.4421    0.0000 C   0  0  0  0  0  0  0  0  0
  1  2  1  0  0  0  0
  2  3  4  0  0  0  0
  2 33  4  0  0  0  0
  3  4  4  0  0  0  0
  4  5  1  0  0  0  0
  4 31  4  0  0  0  0
  5  6  2  0  0  0  0
  6  7  1  0  0  0  0
  6 14  1  0  0  0  0
  7  8  1  0  0  0  0
  7 12  1  0  0  0  0
  8  9  1  0  0  0  0
  9 10  1  0  0  0  0
 10 11  1  0  0  0  0
 10 13  1  0  0  0  0
 11 12  1  0  0  0  0
 14 15  4  0  0  0  0
 14 37  4  0  0  0  0
 15 16  1  0  0  0  0
 15 34  4  0  0  0  0
 16 17  1  0  0  0  0
 16 31  1  0  0  0  0
 17 18  1  0  0  0  0
 18 19  2  0  0  0  0
 18 20  1  0  0  0  0
 20 21  4  0  0  0  0
 20 24  4  0  0  0  0
 21 22  4  0  0  0  0
 22 23  4  0  0  0  0
 23 24  4  0  0  0  0
 24 25  1  0  0  0  0
 25 26  4  0  0  0  0
 25 30  4  0  0  0  0
 26 27  4  0  0  0  0
 27 28  4  0  0  0  0
 28 29  4  0  0  0  0
 29 30  4  0  0  0  0
 31 32  4  0  0  0  0
 32 33  4  0  0  0  0
 34 35  4  0  0  0  0
 35 36  4  0  0  0  0
 36 37  4  0  0  0  0
M  END
>  <Name_Molregno>
357360

>  <DOPAMINE D1>
7.41

>  <DOPAMINE D2>
7.11

$$$$
357387
  Marvin  02231216192D 0   1.00000     0.00000     0

 38 42  0  0  0  0  0  0  0  0999 V2000
    5.4962   -1.5316    0.0000 Cl  0  0  0  0  0  0  0  0  0
    4.7079   -1.7747    0.0000 C   0  0  0  0  0  0  0  0  0
    4.1031   -1.2136    0.0000 C   0  0  0  0  0  0  0  0  0
    3.3148   -1.4568    0.0000 C   0  0  0  0  0  0  0  0  0
    3.1312   -2.2611    0.0000 C   0  0  0  0  0  0  0  0  0
    2.3879   -2.6190    0.0000 N   0  0  0  0  0  0  0  0  0
    2.3879   -3.4440    0.0000 N   0  0  0  0  0  0  0  0  0
    1.6734   -3.8565    0.0000 C   0  0  0  0  0  0  0  0  0
    0.9589   -3.4440    0.0000 O   0  0  0  0  0  0  0  0  0
    1.6734   -4.6815    0.0000 C   0  0  0  0  0  0  0  0  0
    2.3879   -5.0940    0.0000 C   0  0  0  0  0  0  0  0  0
    2.3879   -5.9190    0.0000 C   0  0  0  0  0  0  0  0  0
    3.1024   -6.3315    0.0000 F   0  0  0  0  0  0  0  0  0
    1.6734   -6.3315    0.0000 C   0  0  0  0  0  0  0  0  0
    0.9589   -5.9190    0.0000 C   0  0  0  0  0  0  0  0  0
    0.9589   -5.0940    0.0000 C   0  0  0  0  0  0  0  0  0
    0.2445   -4.6815    0.0000 C   0  0  0  0  0  0  0  0  0
   -0.4700   -4.2690    0.0000 F   0  0  0  0  0  0  0  0  0
   -0.1680   -5.3960    0.0000 F   0  0  0  0  0  0  0  0  0
    0.6570   -3.9671    0.0000 F   0  0  0  0  0  0  0  0  0
    1.6446   -2.2611    0.0000 C   0  0  0  0  0  0  0  0  0
    1.4610   -1.4568    0.0000 C   0  0  0  0  0  0  0  0  0
    1.9754   -0.8117    0.0000 N   0  0  0  0  0  0  0  0  0
    2.8004   -0.8117    0.0000 C   0  0  0  0  0  0  0  0  0
    3.1583   -0.0684    0.0000 N   0  0  0  0  0  0  0  0  0
    2.6936    0.6132    0.0000 C   0  0  0  0  0  0  0  0  0
    3.0516    1.3565    0.0000 C   0  0  0  0  0  0  0  0  0
    3.8742    1.4182    0.0000 N   0  0  0  0  0  0  0  0  0
    4.3390    0.7365    0.0000 C   0  0  0  0  0  0  0  0  0
    3.9810   -0.0068    0.0000 C   0  0  0  0  0  0  0  0  0
    4.2322    2.1615    0.0000 C   0  0  0  0  0  0  0  0  0
    0.6727   -1.2136    0.0000 C   0  0  0  0  0  0  0  0  0
    0.0679   -1.7747    0.0000 C   0  0  0  0  0  0  0  0  0
   -0.7205   -1.5316    0.0000 Cl  0  0  0  0  0  0  0  0  0
    0.2515   -2.5790    0.0000 C   0  0  0  0  0  0  0  0  0
    1.0398   -2.8222    0.0000 C   0  0  0  0  0  0  0  0  0
    3.7359   -2.8222    0.0000 C   0  0  0  0  0  0  0  0  0
    4.5243   -2.5790    0.0000 C   0  0  0  0  0  0  0  0  0
  1  2  1  0  0  0  0
  2  3  4  0  0  0  0
  2 38  4  0  0  0  0
  3  4  4  0  0  0  0
  4  5  4  0  0  0  0
  4 24  1  0  0  0  0
  5  6  1  0  0  0  0
  5 37  4  0  0  0  0
  6  7  1  0  0  0  0
  6 21  1  0  0  0  0
  7  8  1  0  0  0  0
  8  9  2  0  0  0  0
  8 10  1  0  0  0  0
 10 11  4  0  0  0  0
 10 16  4  0  0  0  0
 11 12  4  0  0  0  0
 12 13  1  0  0  0  0
 12 14  4  0  0  0  0
 14 15  4  0  0  0  0
 15 16  4  0  0  0  0
 16 17  1  0  0  0  0
 17 18  1  0  0  0  0
 17 19  1  0  0  0  0
 17 20  1  0  0  0  0
 21 22  4  0  0  0  0
 21 36  4  0  0  0  0
 22 23  1  0  0  0  0
 22 32  4  0  0  0  0
 23 24  2  0  0  0  0
 24 25  1  0  0  0  0
 25 26  1  0  0  0  0
 25 30  1  0  0  0  0
 26 27  1  0  0  0  0
 27 28  1  0  0  0  0
 28 29  1  0  0  0  0
 28 31  1  0  0  0  0
 29 30  1  0  0  0  0
 32 33  4  0  0  0  0
 33 34  1  0  0  0  0
 33 35  4  0  0  0  0
 35 36  4  0  0  0  0
 37 38  4  0  0  0  0
M  END
>  <Name_Molregno>
357387

>  <DOPAMINE D1>
7.62

>  <DOPAMINE D2>
7.16

$$$$
357390
  Marvin  02231216192D 0   1.00000     0.00000     0

 37 41  0  0  0  0  0  0  0  0999 V2000
   -4.7351   -2.6013    0.0000 Cl  0  0  0  0  0  0  0  0  0
   -3.9468   -2.8445    0.0000 C   0  0  0  0  0  0  0  0  0
   -3.3420   -2.2833    0.0000 C   0  0  0  0  0  0  0  0  0
   -2.5537   -2.5265    0.0000 C   0  0  0  0  0  0  0  0  0
   -2.0393   -1.8815    0.0000 N   0  0  0  0  0  0  0  0  0
   -1.2143   -1.8815    0.0000 C   0  0  0  0  0  0  0  0  0
   -0.8563   -1.1382    0.0000 N   0  0  0  0  0  0  0  0  0
   -1.3211   -0.4565    0.0000 C   0  0  0  0  0  0  0  0  0
   -0.9631    0.2868    0.0000 C   0  0  0  0  0  0  0  0  0
   -0.1404    0.3484    0.0000 N   0  0  0  0  0  0  0  0  0
    0.3243   -0.3332    0.0000 C   0  0  0  0  0  0  0  0  0
   -0.0336   -1.0765    0.0000 C   0  0  0  0  0  0  0  0  0
    0.2175    1.0917    0.0000 C   0  0  0  0  0  0  0  0  0
   -0.6999   -2.5265    0.0000 C   0  0  0  0  0  0  0  0  0
   -0.8835   -3.3308    0.0000 C   0  0  0  0  0  0  0  0  0
   -1.6268   -3.6888    0.0000 N   0  0  0  0  0  0  0  0  0
   -1.6268   -4.5138    0.0000 N   0  0  0  0  0  0  0  0  0
   -0.9123   -4.9263    0.0000 C   0  0  0  0  0  0  0  0  0
   -0.1978   -4.5138    0.0000 O   0  0  0  0  0  0  0  0  0
   -0.9123   -5.7513    0.0000 C   0  0  0  0  0  0  0  0  0
   -0.1978   -6.1638    0.0000 C   0  0  0  0  0  0  0  0  0
   -0.1978   -6.9888    0.0000 C   0  0  0  0  0  0  0  0  0
   -0.9123   -7.4013    0.0000 C   0  0  0  0  0  0  0  0  0
   -1.6268   -6.9888    0.0000 C   0  0  0  0  0  0  0  0  0
   -1.6268   -6.1638    0.0000 C   0  0  0  0  0  0  0  0  0
   -2.3412   -5.7513    0.0000 F   0  0  0  0  0  0  0  0  0
    0.5166   -5.7513    0.0000 C   0  0  0  0  0  0  0  0  0
    1.2311   -5.3388    0.0000 F   0  0  0  0  0  0  0  0  0
    0.9291   -6.4657    0.0000 F   0  0  0  0  0  0  0  0  0
    0.1041   -5.0368    0.0000 F   0  0  0  0  0  0  0  0  0
   -2.3701   -3.3308    0.0000 C   0  0  0  0  0  0  0  0  0
   -2.9748   -3.8919    0.0000 C   0  0  0  0  0  0  0  0  0
   -3.7632   -3.6488    0.0000 C   0  0  0  0  0  0  0  0  0
   -0.2787   -3.8919    0.0000 C   0  0  0  0  0  0  0  0  0
    0.5096   -3.6488    0.0000 C   0  0  0  0  0  0  0  0  0
    0.6932   -2.8445    0.0000 C   0  0  0  0  0  0  0  0  0
    0.0885   -2.2833    0.0000 C   0  0  0  0  0  0  0  0  0
  1  2  1  0  0  0  0
  2  3  4  0  0  0  0
  2 33  4  0  0  0  0
  3  4  4  0  0  0  0
  4  5  1  0  0  0  0
  4 31  4  0  0  0  0
  5  6  2  0  0  0  0
  6  7  1  0  0  0  0
  6 14  1  0  0  0  0
  7  8  1  0  0  0  0
  7 12  1  0  0  0  0
  8  9  1  0  0  0  0
  9 10  1  0  0  0  0
 10 11  1  0  0  0  0
 10 13  1  0  0  0  0
 11 12  1  0  0  0  0
 14 15  4  0  0  0  0
 14 37  4  0  0  0  0
 15 16  1  0  0  0  0
 15 34  4  0  0  0  0
 16 17  1  0  0  0  0
 16 31  1  0  0  0  0
 17 18  1  0  0  0  0
 18 19  2  0  0  0  0
 18 20  1  0  0  0  0
 20 21  4  0  0  0  0
 20 25  4  0  0  0  0
 21 22  4  0  0  0  0
 21 27  1  0  0  0  0
 22 23  4  0  0  0  0
 23 24  4  0  0  0  0
 24 25  4  0  0  0  0
 25 26  1  0  0  0  0
 27 28  1  0  0  0  0
 27 29  1  0  0  0  0
 27 30  1  0  0  0  0
 31 32  4  0  0  0  0
 32 33  4  0  0  0  0
 34 35  4  0  0  0  0
 35 36  4  0  0  0  0
 36 37  4  0  0  0  0
M  END
>  <Name_Molregno>
357390

>  <5-HT2A>
8.92

>  <Alpha-2A>
5.7

>  <DOPAMINE D1>
8.6

>  <DOPAMINE D2>
6.42

>  <DOPAMINE D4>
5.7

>  <DOPAMINE D5>
8.15

$$$$
357391
  Marvin  02231216192D 0   1.00000     0.00000     0

 38 43  0  0  0  0  0  0  0  0999 V2000
   -5.3263   -2.2633    0.0000 Cl  0  0  0  0  0  0  0  0  0
   -4.5379   -2.5065    0.0000 C   0  0  0  0  0  0  0  0  0
   -3.9332   -1.9453    0.0000 C   0  0  0  0  0  0  0  0  0
   -3.1448   -2.1885    0.0000 C   0  0  0  0  0  0  0  0  0
   -2.6304   -1.5435    0.0000 N   0  0  0  0  0  0  0  0  0
   -1.8054   -1.5435    0.0000 C   0  0  0  0  0  0  0  0  0
   -1.4475   -0.8002    0.0000 N   0  0  0  0  0  0  0  0  0
   -1.9122   -0.1186    0.0000 C   0  0  0  0  0  0  0  0  0
   -1.5543    0.6247    0.0000 C   0  0  0  0  0  0  0  0  0
   -0.7316    0.6864    0.0000 N   0  0  0  0  0  0  0  0  0
   -0.2668    0.0047    0.0000 C   0  0  0  0  0  0  0  0  0
   -0.6248   -0.7386    0.0000 C   0  0  0  0  0  0  0  0  0
   -0.3736    1.4297    0.0000 C   0  0  0  0  0  0  0  0  0
   -1.2911   -2.1885    0.0000 C   0  0  0  0  0  0  0  0  0
   -1.4746   -2.9928    0.0000 C   0  0  0  0  0  0  0  0  0
   -2.2179   -3.3508    0.0000 N   0  0  0  0  0  0  0  0  0
   -2.2179   -4.1758    0.0000 N   0  0  0  0  0  0  0  0  0
   -1.5035   -4.5883    0.0000 C   0  0  0  0  0  0  0  0  0
   -0.7890   -4.1758    0.0000 O   0  0  0  0  0  0  0  0  0
   -1.5035   -5.4133    0.0000 C   0  0  0  0  0  0  0  0  0
   -2.1709   -5.8982    0.0000 S   0  0  0  0  0  0  0  0  0
   -1.9160   -6.6828    0.0000 C   0  0  0  0  0  0  0  0  0
   -1.0910   -6.6828    0.0000 C   0  0  0  0  0  0  0  0  0
   -0.6785   -7.3973    0.0000 C   0  0  0  0  0  0  0  0  0
   -1.0910   -8.1118    0.0000 C   0  0  0  0  0  0  0  0  0
   -1.9160   -8.1118    0.0000 C   0  0  0  0  0  0  0  0  0
   -2.3285   -7.3973    0.0000 C   0  0  0  0  0  0  0  0  0
   -0.8360   -5.8982    0.0000 C   0  0  0  0  0  0  0  0  0
   -0.0514   -5.6433    0.0000 O   0  0  0  0  0  0  0  0  0
    0.1201   -4.8363    0.0000 C   0  0  0  0  0  0  0  0  0
    0.9047   -4.5814    0.0000 C   0  0  0  0  0  0  0  0  0
   -2.9612   -2.9928    0.0000 C   0  0  0  0  0  0  0  0  0
   -3.5660   -3.5540    0.0000 C   0  0  0  0  0  0  0  0  0
   -4.3544   -3.3108    0.0000 C   0  0  0  0  0  0  0  0  0
   -0.8699   -3.5540    0.0000 C   0  0  0  0  0  0  0  0  0
   -0.0815   -3.3108    0.0000 C   0  0  0  0  0  0  0  0  0
    0.1020   -2.5065    0.0000 C   0  0  0  0  0  0  0  0  0
   -0.5027   -1.9453    0.0000 C   0  0  0  0  0  0  0  0  0
  1  2  1  0  0  0  0
  2  3  4  0  0  0  0
  2 34  4  0  0  0  0
  3  4  4  0  0  0  0
  4  5  1  0  0  0  0
  4 32  4  0  0  0  0
  5  6  2  0  0  0  0
  6  7  1  0  0  0  0
  6 14  1  0  0  0  0
  7  8  1  0  0  0  0
  7 12  1  0  0  0  0
  8  9  1  0  0  0  0
  9 10  1  0  0  0  0
 10 11  1  0  0  0  0
 10 13  1  0  0  0  0
 11 12  1  0  0  0  0
 14 15  4  0  0  0  0
 14 38  4  0  0  0  0
 15 16  1  0  0  0  0
 15 35  4  0  0  0  0
 16 17  1  0  0  0  0
 16 32  1  0  0  0  0
 17 18  1  0  0  0  0
 18 19  2  0  0  0  0
 18 20  1  0  0  0  0
 20 21  4  0  0  0  0
 20 28  4  0  0  0  0
 21 22  4  0  0  0  0
 22 23  4  0  0  0  0
 22 27  4  0  0  0  0
 23 24  4  0  0  0  0
 23 28  4  0  0  0  0
 24 25  4  0  0  0  0
 25 26  4  0  0  0  0
 26 27  4  0  0  0  0
 28 29  1  0  0  0  0
 29 30  1  0  0  0  0
 30 31  1  0  0  0  0
 32 33  4  0  0  0  0
 33 34  4  0  0  0  0
 35 36  4  0  0  0  0
 36 37  4  0  0  0  0
 37 38  4  0  0  0  0
M  END
>  <Name_Molregno>
357391

>  <DOPAMINE D1>
7.55

>  <DOPAMINE D2>
6.71

$$$$
357414
  Marvin  02231216192D 0   1.00000     0.00000     0

 37 41  0  0  0  0  0  0  0  0999 V2000
    4.0767   -2.1030    0.0000 Cl  0  0  0  0  0  0  0  0  0
    3.2884   -2.3462    0.0000 C   0  0  0  0  0  0  0  0  0
    2.6836   -1.7850    0.0000 C   0  0  0  0  0  0  0  0  0
    1.8953   -2.0282    0.0000 C   0  0  0  0  0  0  0  0  0
    1.7117   -2.8325    0.0000 C   0  0  0  0  0  0  0  0  0
    0.9684   -3.1905    0.0000 N   0  0  0  0  0  0  0  0  0
    0.9684   -4.0155    0.0000 N   0  0  0  0  0  0  0  0  0
    0.2539   -4.4280    0.0000 C   0  0  0  0  0  0  0  0  0
   -0.4606   -4.0155    0.0000 O   0  0  0  0  0  0  0  0  0
    0.2539   -5.2530    0.0000 C   0  0  0  0  0  0  0  0  0
    0.9684   -5.6655    0.0000 C   0  0  0  0  0  0  0  0  0
    0.9684   -6.4905    0.0000 C   0  0  0  0  0  0  0  0  0
    1.6828   -6.9030    0.0000 F   0  0  0  0  0  0  0  0  0
    0.2539   -6.9030    0.0000 C   0  0  0  0  0  0  0  0  0
    0.2539   -7.7280    0.0000 F   0  0  0  0  0  0  0  0  0
   -0.4606   -6.4905    0.0000 C   0  0  0  0  0  0  0  0  0
   -1.1750   -6.9030    0.0000 F   0  0  0  0  0  0  0  0  0
   -0.4606   -5.6655    0.0000 C   0  0  0  0  0  0  0  0  0
   -1.1750   -5.2530    0.0000 F   0  0  0  0  0  0  0  0  0
    0.2251   -2.8325    0.0000 C   0  0  0  0  0  0  0  0  0
    0.0415   -2.0282    0.0000 C   0  0  0  0  0  0  0  0  0
    0.5559   -1.3832    0.0000 N   0  0  0  0  0  0  0  0  0
    1.3809   -1.3832    0.0000 C   0  0  0  0  0  0  0  0  0
    1.7388   -0.6399    0.0000 N   0  0  0  0  0  0  0  0  0
    1.2741    0.0417    0.0000 C   0  0  0  0  0  0  0  0  0
    1.6320    0.7850    0.0000 C   0  0  0  0  0  0  0  0  0
    2.4547    0.8467    0.0000 N   0  0  0  0  0  0  0  0  0
    2.9195    0.1650    0.0000 C   0  0  0  0  0  0  0  0  0
    2.5615   -0.5783    0.0000 C   0  0  0  0  0  0  0  0  0
    2.8127    1.5900    0.0000 C   0  0  0  0  0  0  0  0  0
   -0.7469   -1.7850    0.0000 C   0  0  0  0  0  0  0  0  0
   -1.3516   -2.3462    0.0000 C   0  0  0  0  0  0  0  0  0
   -2.1400   -2.1030    0.0000 Cl  0  0  0  0  0  0  0  0  0
   -1.1680   -3.1505    0.0000 C   0  0  0  0  0  0  0  0  0
   -0.3797   -3.3937    0.0000 C   0  0  0  0  0  0  0  0  0
    2.3164   -3.3937    0.0000 C   0  0  0  0  0  0  0  0  0
    3.1048   -3.1505    0.0000 C   0  0  0  0  0  0  0  0  0
  1  2  1  0  0  0  0
  2  3  4  0  0  0  0
  2 37  4  0  0  0  0
  3  4  4  0  0  0  0
  4  5  4  0  0  0  0
  4 23  1  0  0  0  0
  5  6  1  0  0  0  0
  5 36  4  0  0  0  0
  6  7  1  0  0  0  0
  6 20  1  0  0  0  0
  7  8  1  0  0  0  0
  8  9  2  0  0  0  0
  8 10  1  0  0  0  0
 10 11  4  0  0  0  0
 10 18  4  0  0  0  0
 11 12  4  0  0  0  0
 12 13  1  0  0  0  0
 12 14  4  0  0  0  0
 14 15  1  0  0  0  0
 14 16  4  0  0  0  0
 16 17  1  0  0  0  0
 16 18  4  0  0  0  0
 18 19  1  0  0  0  0
 20 21  4  0  0  0  0
 20 35  4  0  0  0  0
 21 22  1  0  0  0  0
 21 31  4  0  0  0  0
 22 23  2  0  0  0  0
 23 24  1  0  0  0  0
 24 25  1  0  0  0  0
 24 29  1  0  0  0  0
 25 26  1  0  0  0  0
 26 27  1  0  0  0  0
 27 28  1  0  0  0  0
 27 30  1  0  0  0  0
 28 29  1  0  0  0  0
 31 32  4  0  0  0  0
 32 33  1  0  0  0  0
 32 34  4  0  0  0  0
 34 35  4  0  0  0  0
 36 37  4  0  0  0  0
M  END
>  <Name_Molregno>
357414

>  <DOPAMINE D1>
7.01

>  <DOPAMINE D2>
6.57

$$$$
357415
  Marvin  02231216192D 0   1.00000     0.00000     0

 36 41  0  0  0  0  0  0  0  0999 V2000
    1.1501   -1.6588    0.0000 Cl  0  0  0  0  0  0  0  0  0
    0.3618   -1.9019    0.0000 C   0  0  0  0  0  0  0  0  0
   -0.2430   -1.3408    0.0000 C   0  0  0  0  0  0  0  0  0
   -1.0314   -1.5840    0.0000 C   0  0  0  0  0  0  0  0  0
   -1.2149   -2.3883    0.0000 C   0  0  0  0  0  0  0  0  0
   -1.9582   -2.7462    0.0000 N   0  0  0  0  0  0  0  0  0
   -1.9582   -3.5712    0.0000 N   0  0  0  0  0  0  0  0  0
   -2.6727   -3.9837    0.0000 C   0  0  0  0  0  0  0  0  0
   -3.3872   -3.5712    0.0000 O   0  0  0  0  0  0  0  0  0
   -2.6727   -4.8087    0.0000 C   0  0  0  0  0  0  0  0  0
   -1.9582   -5.2212    0.0000 C   0  0  0  0  0  0  0  0  0
   -1.9582   -6.0462    0.0000 C   0  0  0  0  0  0  0  0  0
   -1.3451   -6.5983    0.0000 O   0  0  0  0  0  0  0  0  0
   -1.6807   -7.3519    0.0000 C   0  0  0  0  0  0  0  0  0
   -2.5012   -7.2657    0.0000 O   0  0  0  0  0  0  0  0  0
   -2.6727   -6.4587    0.0000 C   0  0  0  0  0  0  0  0  0
   -3.3872   -6.0462    0.0000 C   0  0  0  0  0  0  0  0  0
   -3.3872   -5.2212    0.0000 C   0  0  0  0  0  0  0  0  0
   -2.7015   -2.3883    0.0000 C   0  0  0  0  0  0  0  0  0
   -2.8851   -1.5840    0.0000 C   0  0  0  0  0  0  0  0  0
   -2.3707   -0.9390    0.0000 N   0  0  0  0  0  0  0  0  0
   -1.5457   -0.9390    0.0000 C   0  0  0  0  0  0  0  0  0
   -1.1878   -0.1957    0.0000 N   0  0  0  0  0  0  0  0  0
   -1.6525    0.4860    0.0000 C   0  0  0  0  0  0  0  0  0
   -1.2946    1.2293    0.0000 C   0  0  0  0  0  0  0  0  0
   -0.4719    1.2909    0.0000 N   0  0  0  0  0  0  0  0  0
   -0.0071    0.6093    0.0000 C   0  0  0  0  0  0  0  0  0
   -0.3651   -0.1340    0.0000 C   0  0  0  0  0  0  0  0  0
   -0.1139    2.0342    0.0000 C   0  0  0  0  0  0  0  0  0
   -3.6735   -1.3408    0.0000 C   0  0  0  0  0  0  0  0  0
   -4.2782   -1.9019    0.0000 C   0  0  0  0  0  0  0  0  0
   -5.0666   -1.6588    0.0000 Cl  0  0  0  0  0  0  0  0  0
   -4.0947   -2.7063    0.0000 C   0  0  0  0  0  0  0  0  0
   -3.3063   -2.9494    0.0000 C   0  0  0  0  0  0  0  0  0
   -0.6102   -2.9494    0.0000 C   0  0  0  0  0  0  0  0  0
    0.1782   -2.7063    0.0000 C   0  0  0  0  0  0  0  0  0
  1  2  1  0  0  0  0
  2  3  4  0  0  0  0
  2 36  4  0  0  0  0
  3  4  4  0  0  0  0
  4  5  4  0  0  0  0
  4 22  1  0  0  0  0
  5  6  1  0  0  0  0
  5 35  4  0  0  0  0
  6  7  1  0  0  0  0
  6 19  1  0  0  0  0
  7  8  1  0  0  0  0
  8  9  2  0  0  0  0
  8 10  1  0  0  0  0
 10 11  4  0  0  0  0
 10 18  4  0  0  0  0
 11 12  4  0  0  0  0
 12 13  1  0  0  0  0
 12 16  4  0  0  0  0
 13 14  1  0  0  0  0
 14 15  1  0  0  0  0
 15 16  1  0  0  0  0
 16 17  4  0  0  0  0
 17 18  4  0  0  0  0
 19 20  4  0  0  0  0
 19 34  4  0  0  0  0
 20 21  1  0  0  0  0
 20 30  4  0  0  0  0
 21 22  2  0  0  0  0
 22 23  1  0  0  0  0
 23 24  1  0  0  0  0
 23 28  1  0  0  0  0
 24 25  1  0  0  0  0
 25 26  1  0  0  0  0
 26 27  1  0  0  0  0
 26 29  1  0  0  0  0
 27 28  1  0  0  0  0
 30 31  4  0  0  0  0
 31 32  1  0  0  0  0
 31 33  4  0  0  0  0
 33 34  4  0  0  0  0
 35 36  4  0  0  0  0
M  END
>  <Name_Molregno>
357415

>  <DOPAMINE D1>
6.89

>  <DOPAMINE D2>
6.54

$$$$
357417
  Marvin  02231216192D 0   1.00000     0.00000     0

 33 37  0  0  0  0  0  0  0  0999 V2000
   -3.9894   -2.8022    0.0000 Cl  0  0  0  0  0  0  0  0  0
   -3.2011   -3.0454    0.0000 C   0  0  0  0  0  0  0  0  0
   -2.5963   -2.4843    0.0000 C   0  0  0  0  0  0  0  0  0
   -1.8079   -2.7274    0.0000 C   0  0  0  0  0  0  0  0  0
   -1.2936   -2.0824    0.0000 N   0  0  0  0  0  0  0  0  0
   -0.4686   -2.0824    0.0000 C   0  0  0  0  0  0  0  0  0
   -0.1106   -1.3391    0.0000 N   0  0  0  0  0  0  0  0  0
   -0.5753   -0.6575    0.0000 C   0  0  0  0  0  0  0  0  0
   -0.2174    0.0858    0.0000 C   0  0  0  0  0  0  0  0  0
    0.6053    0.1475    0.0000 N   0  0  0  0  0  0  0  0  0
    1.0700   -0.5342    0.0000 C   0  0  0  0  0  0  0  0  0
    0.7121   -1.2775    0.0000 C   0  0  0  0  0  0  0  0  0
    0.9633    0.8908    0.0000 C   0  0  0  0  0  0  0  0  0
    0.0458   -2.7274    0.0000 C   0  0  0  0  0  0  0  0  0
   -0.1378   -3.5318    0.0000 C   0  0  0  0  0  0  0  0  0
   -0.8811   -3.8897    0.0000 N   0  0  0  0  0  0  0  0  0
   -0.8811   -4.7147    0.0000 N   0  0  0  0  0  0  0  0  0
   -0.1666   -5.1272    0.0000 C   0  0  0  0  0  0  0  0  0
    0.5479   -4.7147    0.0000 O   0  0  0  0  0  0  0  0  0
   -0.1666   -5.9522    0.0000 C   0  0  0  0  0  0  0  0  0
    0.5479   -6.3647    0.0000 C   0  0  0  0  0  0  0  0  0
    0.5479   -7.1897    0.0000 C   0  0  0  0  0  0  0  0  0
   -0.1666   -7.6022    0.0000 C   0  0  0  0  0  0  0  0  0
   -0.8811   -7.1897    0.0000 C   0  0  0  0  0  0  0  0  0
   -0.8811   -6.3647    0.0000 C   0  0  0  0  0  0  0  0  0
   -1.5955   -5.9522    0.0000 F   0  0  0  0  0  0  0  0  0
   -1.6244   -3.5318    0.0000 C   0  0  0  0  0  0  0  0  0
   -2.2291   -4.0929    0.0000 C   0  0  0  0  0  0  0  0  0
   -3.0175   -3.8497    0.0000 C   0  0  0  0  0  0  0  0  0
    0.4670   -4.0929    0.0000 C   0  0  0  0  0  0  0  0  0
    1.2554   -3.8497    0.0000 C   0  0  0  0  0  0  0  0  0
    1.4389   -3.0454    0.0000 C   0  0  0  0  0  0  0  0  0
    0.8342   -2.4843    0.0000 C   0  0  0  0  0  0  0  0  0
  1  2  1  0  0  0  0
  2  3  4  0  0  0  0
  2 29  4  0  0  0  0
  3  4  4  0  0  0  0
  4  5  1  0  0  0  0
  4 27  4  0  0  0  0
  5  6  2  0  0  0  0
  6  7  1  0  0  0  0
  6 14  1  0  0  0  0
  7  8  1  0  0  0  0
  7 12  1  0  0  0  0
  8  9  1  0  0  0  0
  9 10  1  0  0  0  0
 10 11  1  0  0  0  0
 10 13  1  0  0  0  0
 11 12  1  0  0  0  0
 14 15  4  0  0  0  0
 14 33  4  0  0  0  0
 15 16  1  0  0  0  0
 15 30  4  0  0  0  0
 16 17  1  0  0  0  0
 16 27  1  0  0  0  0
 17 18  1  0  0  0  0
 18 19  2  0  0  0  0
 18 20  1  0  0  0  0
 20 21  4  0  0  0  0
 20 25  4  0  0  0  0
 21 22  4  0  0  0  0
 22 23  4  0  0  0  0
 23 24  4  0  0  0  0
 24 25  4  0  0  0  0
 25 26  1  0  0  0  0
 27 28  4  0  0  0  0
 28 29  4  0  0  0  0
 30 31  4  0  0  0  0
 31 32  4  0  0  0  0
 32 33  4  0  0  0  0
M  END
>  <Name_Molregno>
357417

>  <DOPAMINE D1>
7.92

>  <DOPAMINE D2>
6.43

$$$$
357418
  Marvin  02231216192D 0   1.00000     0.00000     0

 34 38  0  0  0  0  0  0  0  0999 V2000
    0.2845    1.3449    0.0000 Cl  0  0  0  0  0  0  0  0  0
    0.9990    1.7574    0.0000 C   0  0  0  0  0  0  0  0  0
    0.9990    2.5824    0.0000 C   0  0  0  0  0  0  0  0  0
    1.7135    2.9949    0.0000 C   0  0  0  0  0  0  0  0  0
    2.4279    2.5824    0.0000 C   0  0  0  0  0  0  0  0  0
    2.4279    1.7574    0.0000 C   0  0  0  0  0  0  0  0  0
    3.1424    1.3449    0.0000 N   0  0  0  0  0  0  0  0  0
    1.7135    1.3449    0.0000 C   0  0  0  0  0  0  0  0  0
    1.7135    0.5199    0.0000 C   0  0  0  0  0  0  0  0  0
    0.9990    0.1074    0.0000 O   0  0  0  0  0  0  0  0  0
    2.4279    0.1074    0.0000 N   0  0  0  0  0  0  0  0  0
    2.4279   -0.7176    0.0000 N   0  0  0  0  0  0  0  0  0
    3.1712   -1.0755    0.0000 C   0  0  0  0  0  0  0  0  0
    3.3548   -1.8798    0.0000 C   0  0  0  0  0  0  0  0  0
    4.1432   -2.1230    0.0000 C   0  0  0  0  0  0  0  0  0
    4.7479   -1.5619    0.0000 C   0  0  0  0  0  0  0  0  0
    4.5644   -0.7576    0.0000 C   0  0  0  0  0  0  0  0  0
    3.7760   -0.5144    0.0000 C   0  0  0  0  0  0  0  0  0
    2.8404   -2.5248    0.0000 C   0  0  0  0  0  0  0  0  0
    2.0154   -2.5248    0.0000 N   0  0  0  0  0  0  0  0  0
    1.5011   -1.8798    0.0000 C   0  0  0  0  0  0  0  0  0
    0.7127   -2.1230    0.0000 C   0  0  0  0  0  0  0  0  0
    0.1080   -1.5619    0.0000 C   0  0  0  0  0  0  0  0  0
   -0.6804   -1.8050    0.0000 Cl  0  0  0  0  0  0  0  0  0
    0.2915   -0.7576    0.0000 C   0  0  0  0  0  0  0  0  0
    1.0799   -0.5144    0.0000 C   0  0  0  0  0  0  0  0  0
    1.6846   -1.0755    0.0000 C   0  0  0  0  0  0  0  0  0
    3.1984   -3.2681    0.0000 N   0  0  0  0  0  0  0  0  0
    4.0211   -3.3298    0.0000 C   0  0  0  0  0  0  0  0  0
    4.3791   -4.0731    0.0000 C   0  0  0  0  0  0  0  0  0
    3.9143   -4.7547    0.0000 N   0  0  0  0  0  0  0  0  0
    3.0916   -4.6931    0.0000 C   0  0  0  0  0  0  0  0  0
    2.7337   -3.9498    0.0000 C   0  0  0  0  0  0  0  0  0
    4.2723   -5.4980    0.0000 C   0  0  0  0  0  0  0  0  0
  1  2  1  0  0  0  0
  2  3  4  0  0  0  0
  2  8  4  0  0  0  0
  3  4  4  0  0  0  0
  4  5  4  0  0  0  0
  5  6  4  0  0  0  0
  6  7  1  0  0  0  0
  6  8  4  0  0  0  0
  8  9  1  0  0  0  0
  9 10  2  0  0  0  0
  9 11  1  0  0  0  0
 11 12  1  0  0  0  0
 12 13  1  0  0  0  0
 12 27  1  0  0  0  0
 13 14  4  0  0  0  0
 13 18  4  0  0  0  0
 14 15  4  0  0  0  0
 14 19  1  0  0  0  0
 15 16  4  0  0  0  0
 16 17  4  0  0  0  0
 17 18  4  0  0  0  0
 19 20  2  0  0  0  0
 19 28  1  0  0  0  0
 20 21  1  0  0  0  0
 21 22  4  0  0  0  0
 21 27  4  0  0  0  0
 22 23  4  0  0  0  0
 23 24  1  0  0  0  0
 23 25  4  0  0  0  0
 25 26  4  0  0  0  0
 26 27  4  0  0  0  0
 28 29  1  0  0  0  0
 28 33  1  0  0  0  0
 29 30  1  0  0  0  0
 30 31  1  0  0  0  0
 31 32  1  0  0  0  0
 31 34  1  0  0  0  0
 32 33  1  0  0  0  0
M  END
>  <Name_Molregno>
357418

>  <5-HT2A>
9.05

>  <Alpha-2A>
6.49

>  <DOPAMINE D1>
8.59

>  <DOPAMINE D2>
6.3

>  <DOPAMINE D4>
6.09

>  <DOPAMINE D5>
7.28

$$$$
357419
  Marvin  02231216192D 0   1.00000     0.00000     0

 34 38  0  0  0  0  0  0  0  0999 V2000
   -4.1474   -2.6924    0.0000 Cl  0  0  0  0  0  0  0  0  0
   -3.3590   -2.9355    0.0000 C   0  0  0  0  0  0  0  0  0
   -2.7543   -2.3744    0.0000 C   0  0  0  0  0  0  0  0  0
   -1.9659   -2.6176    0.0000 C   0  0  0  0  0  0  0  0  0
   -1.4515   -1.9726    0.0000 N   0  0  0  0  0  0  0  0  0
   -0.6265   -1.9726    0.0000 C   0  0  0  0  0  0  0  0  0
   -0.2686   -1.2293    0.0000 N   0  0  0  0  0  0  0  0  0
   -0.7333   -0.5476    0.0000 C   0  0  0  0  0  0  0  0  0
   -0.3754    0.1957    0.0000 C   0  0  0  0  0  0  0  0  0
    0.4473    0.2573    0.0000 N   0  0  0  0  0  0  0  0  0
    0.9121   -0.4243    0.0000 C   0  0  0  0  0  0  0  0  0
    0.5541   -1.1676    0.0000 C   0  0  0  0  0  0  0  0  0
    0.8053    1.0006    0.0000 C   0  0  0  0  0  0  0  0  0
   -0.1122   -2.6176    0.0000 C   0  0  0  0  0  0  0  0  0
   -0.2957   -3.4219    0.0000 C   0  0  0  0  0  0  0  0  0
   -1.0390   -3.7798    0.0000 N   0  0  0  0  0  0  0  0  0
   -1.0390   -4.6048    0.0000 N   0  0  0  0  0  0  0  0  0
   -0.3246   -5.0173    0.0000 C   0  0  0  0  0  0  0  0  0
    0.3899   -4.6048    0.0000 O   0  0  0  0  0  0  0  0  0
   -0.3246   -5.8423    0.0000 C   0  0  0  0  0  0  0  0  0
    0.3899   -6.2548    0.0000 C   0  0  0  0  0  0  0  0  0
    0.3899   -7.0798    0.0000 C   0  0  0  0  0  0  0  0  0
   -0.3246   -7.4923    0.0000 C   0  0  0  0  0  0  0  0  0
   -1.0390   -7.0798    0.0000 C   0  0  0  0  0  0  0  0  0
   -1.0390   -6.2548    0.0000 C   0  0  0  0  0  0  0  0  0
   -1.7535   -5.8423    0.0000 C   0  0  0  0  0  0  0  0  0
    1.1044   -5.8423    0.0000 C   0  0  0  0  0  0  0  0  0
   -1.7823   -3.4219    0.0000 C   0  0  0  0  0  0  0  0  0
   -2.3871   -3.9830    0.0000 C   0  0  0  0  0  0  0  0  0
   -3.1755   -3.7398    0.0000 C   0  0  0  0  0  0  0  0  0
    0.3090   -3.9830    0.0000 C   0  0  0  0  0  0  0  0  0
    1.0974   -3.7398    0.0000 C   0  0  0  0  0  0  0  0  0
    1.2810   -2.9355    0.0000 C   0  0  0  0  0  0  0  0  0
    0.6762   -2.3744    0.0000 C   0  0  0  0  0  0  0  0  0
  1  2  1  0  0  0  0
  2  3  4  0  0  0  0
  2 30  4  0  0  0  0
  3  4  4  0  0  0  0
  4  5  1  0  0  0  0
  4 28  4  0  0  0  0
  5  6  2  0  0  0  0
  6  7  1  0  0  0  0
  6 14  1  0  0  0  0
  7  8  1  0  0  0  0
  7 12  1  0  0  0  0
  8  9  1  0  0  0  0
  9 10  1  0  0  0  0
 10 11  1  0  0  0  0
 10 13  1  0  0  0  0
 11 12  1  0  0  0  0
 14 15  4  0  0  0  0
 14 34  4  0  0  0  0
 15 16  1  0  0  0  0
 15 31  4  0  0  0  0
 16 17  1  0  0  0  0
 16 28  1  0  0  0  0
 17 18  1  0  0  0  0
 18 19  2  0  0  0  0
 18 20  1  0  0  0  0
 20 21  4  0  0  0  0
 20 25  4  0  0  0  0
 21 22  4  0  0  0  0
 21 27  1  0  0  0  0
 22 23  4  0  0  0  0
 23 24  4  0  0  0  0
 24 25  4  0  0  0  0
 25 26  1  0  0  0  0
 28 29  4  0  0  0  0
 29 30  4  0  0  0  0
 31 32  4  0  0  0  0
 32 33  4  0  0  0  0
 33 34  4  0  0  0  0
M  END
>  <Name_Molregno>
357419

>  <5-HT2A>
8.66

>  <Alpha-2A>
6.1

>  <DOPAMINE D1>
8.52

>  <DOPAMINE D2>
6.54

>  <DOPAMINE D4>
5.73

>  <DOPAMINE D5>
7.51

$$$$
357444
  Marvin  02231216192D 0   1.00000     0.00000     0

 39 43  0  0  0  0  0  0  0  0999 V2000
    1.0346   -1.2490    0.0000 Cl  0  0  0  0  0  0  0  0  0
    0.2463   -1.4922    0.0000 C   0  0  0  0  0  0  0  0  0
   -0.3585   -0.9311    0.0000 C   0  0  0  0  0  0  0  0  0
   -1.1468   -1.1742    0.0000 C   0  0  0  0  0  0  0  0  0
   -1.3304   -1.9786    0.0000 C   0  0  0  0  0  0  0  0  0
   -2.0737   -2.3365    0.0000 N   0  0  0  0  0  0  0  0  0
   -2.0737   -3.1615    0.0000 N   0  0  0  0  0  0  0  0  0
   -2.7882   -3.5740    0.0000 C   0  0  0  0  0  0  0  0  0
   -3.5026   -3.1615    0.0000 O   0  0  0  0  0  0  0  0  0
   -2.7882   -4.3990    0.0000 C   0  0  0  0  0  0  0  0  0
   -2.0737   -4.8115    0.0000 C   0  0  0  0  0  0  0  0  0
   -2.0737   -5.6365    0.0000 C   0  0  0  0  0  0  0  0  0
   -1.3592   -6.0490    0.0000 O   0  0  0  0  0  0  0  0  0
   -1.3592   -6.8740    0.0000 C   0  0  0  0  0  0  0  0  0
   -2.7882   -6.0490    0.0000 C   0  0  0  0  0  0  0  0  0
   -2.7882   -6.8740    0.0000 O   0  0  0  0  0  0  0  0  0
   -3.5026   -7.2865    0.0000 C   0  0  0  0  0  0  0  0  0
   -3.5026   -5.6365    0.0000 C   0  0  0  0  0  0  0  0  0
   -4.2171   -6.0490    0.0000 O   0  0  0  0  0  0  0  0  0
   -4.9316   -5.6365    0.0000 C   0  0  0  0  0  0  0  0  0
   -3.5026   -4.8115    0.0000 C   0  0  0  0  0  0  0  0  0
   -2.8170   -1.9786    0.0000 C   0  0  0  0  0  0  0  0  0
   -3.0006   -1.1742    0.0000 C   0  0  0  0  0  0  0  0  0
   -2.4862   -0.5292    0.0000 N   0  0  0  0  0  0  0  0  0
   -1.6612   -0.5292    0.0000 C   0  0  0  0  0  0  0  0  0
   -1.3032    0.2141    0.0000 N   0  0  0  0  0  0  0  0  0
   -1.7680    0.8957    0.0000 C   0  0  0  0  0  0  0  0  0
   -1.4100    1.6390    0.0000 C   0  0  0  0  0  0  0  0  0
   -0.5873    1.7007    0.0000 N   0  0  0  0  0  0  0  0  0
   -0.1226    1.0190    0.0000 C   0  0  0  0  0  0  0  0  0
   -0.4806    0.2757    0.0000 C   0  0  0  0  0  0  0  0  0
   -0.2294    2.4440    0.0000 C   0  0  0  0  0  0  0  0  0
   -3.7889   -0.9311    0.0000 C   0  0  0  0  0  0  0  0  0
   -4.3937   -1.4922    0.0000 C   0  0  0  0  0  0  0  0  0
   -5.1820   -1.2490    0.0000 Cl  0  0  0  0  0  0  0  0  0
   -4.2101   -2.2965    0.0000 C   0  0  0  0  0  0  0  0  0
   -3.4218   -2.5397    0.0000 C   0  0  0  0  0  0  0  0  0
   -0.7256   -2.5397    0.0000 C   0  0  0  0  0  0  0  0  0
    0.0627   -2.2965    0.0000 C   0  0  0  0  0  0  0  0  0
  1  2  1  0  0  0  0
  2  3  4  0  0  0  0
  2 39  4  0  0  0  0
  3  4  4  0  0  0  0
  4  5  4  0  0  0  0
  4 25  1  0  0  0  0
  5  6  1  0  0  0  0
  5 38  4  0  0  0  0
  6  7  1  0  0  0  0
  6 22  1  0  0  0  0
  7  8  1  0  0  0  0
  8  9  2  0  0  0  0
  8 10  1  0  0  0  0
 10 11  4  0  0  0  0
 10 21  4  0  0  0  0
 11 12  4  0  0  0  0
 12 13  1  0  0  0  0
 12 15  4  0  0  0  0
 13 14  1  0  0  0  0
 15 16  1  0  0  0  0
 15 18  4  0  0  0  0
 16 17  1  0  0  0  0
 18 19  1  0  0  0  0
 18 21  4  0  0  0  0
 19 20  1  0  0  0  0
 22 23  4  0  0  0  0
 22 37  4  0  0  0  0
 23 24  1  0  0  0  0
 23 33  4  0  0  0  0
 24 25  2  0  0  0  0
 25 26  1  0  0  0  0
 26 27  1  0  0  0  0
 26 31  1  0  0  0  0
 27 28  1  0  0  0  0
 28 29  1  0  0  0  0
 29 30  1  0  0  0  0
 29 32  1  0  0  0  0
 30 31  1  0  0  0  0
 33 34  4  0  0  0  0
 34 35  1  0  0  0  0
 34 36  4  0  0  0  0
 36 37  4  0  0  0  0
 38 39  4  0  0  0  0
M  END
>  <Name_Molregno>
357444

>  <DOPAMINE D1>
7.8

>  <DOPAMINE D2>
6.57

$$$$
357445
  Marvin  02231216192D 0   1.00000     0.00000     0

 34 38  0  0  0  0  0  0  0  0999 V2000
    5.5698   -1.2268    0.0000 Cl  0  0  0  0  0  0  0  0  0
    4.7815   -1.4700    0.0000 C   0  0  0  0  0  0  0  0  0
    4.1767   -0.9088    0.0000 C   0  0  0  0  0  0  0  0  0
    3.3883   -1.1520    0.0000 C   0  0  0  0  0  0  0  0  0
    3.2048   -1.9563    0.0000 C   0  0  0  0  0  0  0  0  0
    2.4615   -2.3143    0.0000 N   0  0  0  0  0  0  0  0  0
    2.4615   -3.1393    0.0000 N   0  0  0  0  0  0  0  0  0
    1.7470   -3.5518    0.0000 C   0  0  0  0  0  0  0  0  0
    1.0325   -3.1393    0.0000 O   0  0  0  0  0  0  0  0  0
    1.7470   -4.3768    0.0000 C   0  0  0  0  0  0  0  0  0
    2.4615   -4.7893    0.0000 C   0  0  0  0  0  0  0  0  0
    2.4615   -5.6143    0.0000 C   0  0  0  0  0  0  0  0  0
    1.7470   -6.0268    0.0000 C   0  0  0  0  0  0  0  0  0
    1.0325   -5.6143    0.0000 C   0  0  0  0  0  0  0  0  0
    1.0325   -4.7893    0.0000 C   0  0  0  0  0  0  0  0  0
    0.3181   -4.3768    0.0000 C   0  0  0  0  0  0  0  0  0
    1.7182   -1.9563    0.0000 C   0  0  0  0  0  0  0  0  0
    1.5346   -1.1520    0.0000 C   0  0  0  0  0  0  0  0  0
    2.0490   -0.5070    0.0000 N   0  0  0  0  0  0  0  0  0
    2.8740   -0.5070    0.0000 C   0  0  0  0  0  0  0  0  0
    3.2319    0.2363    0.0000 N   0  0  0  0  0  0  0  0  0
    2.7672    0.9180    0.0000 C   0  0  0  0  0  0  0  0  0
    3.1251    1.6613    0.0000 C   0  0  0  0  0  0  0  0  0
    3.9478    1.7229    0.0000 N   0  0  0  0  0  0  0  0  0
    4.4126    1.0413    0.0000 C   0  0  0  0  0  0  0  0  0
    4.0546    0.2980    0.0000 C   0  0  0  0  0  0  0  0  0
    4.3058    2.4662    0.0000 C   0  0  0  0  0  0  0  0  0
    0.7462   -0.9088    0.0000 C   0  0  0  0  0  0  0  0  0
    0.1415   -1.4700    0.0000 C   0  0  0  0  0  0  0  0  0
   -0.6469   -1.2268    0.0000 Cl  0  0  0  0  0  0  0  0  0
    0.3251   -2.2743    0.0000 C   0  0  0  0  0  0  0  0  0
    1.1134   -2.5175    0.0000 C   0  0  0  0  0  0  0  0  0
    3.8095   -2.5175    0.0000 C   0  0  0  0  0  0  0  0  0
    4.5979   -2.2743    0.0000 C   0  0  0  0  0  0  0  0  0
  1  2  1  0  0  0  0
  2  3  4  0  0  0  0
  2 34  4  0  0  0  0
  3  4  4  0  0  0  0
  4  5  4  0  0  0  0
  4 20  1  0  0  0  0
  5  6  1  0  0  0  0
  5 33  4  0  0  0  0
  6  7  1  0  0  0  0
  6 17  1  0  0  0  0
  7  8  1  0  0  0  0
  8  9  2  0  0  0  0
  8 10  1  0  0  0  0
 10 11  4  0  0  0  0
 10 15  4  0  0  0  0
 11 12  4  0  0  0  0
 12 13  4  0  0  0  0
 13 14  4  0  0  0  0
 14 15  4  0  0  0  0
 15 16  1  0  0  0  0
 17 18  4  0  0  0  0
 17 32  4  0  0  0  0
 18 19  1  0  0  0  0
 18 28  4  0  0  0  0
 19 20  2  0  0  0  0
 20 21  1  0  0  0  0
 21 22  1  0  0  0  0
 21 26  1  0  0  0  0
 22 23  1  0  0  0  0
 23 24  1  0  0  0  0
 24 25  1  0  0  0  0
 24 27  1  0  0  0  0
 25 26  1  0  0  0  0
 28 29  4  0  0  0  0
 29 30  1  0  0  0  0
 29 31  4  0  0  0  0
 31 32  4  0  0  0  0
 33 34  4  0  0  0  0
M  END
>  <Name_Molregno>
357445

>  <DOPAMINE D1>
8.7

>  <DOPAMINE D2>
6.76

$$$$
357446
  Marvin  02231216192D 0   1.00000     0.00000     0

 34 38  0  0  0  0  0  0  0  0999 V2000
    5.0602    3.7104    0.0000 Cl  0  0  0  0  0  0  0  0  0
    4.3458    3.2979    0.0000 C   0  0  0  0  0  0  0  0  0
    4.3458    2.4729    0.0000 C   0  0  0  0  0  0  0  0  0
    3.6313    2.0604    0.0000 C   0  0  0  0  0  0  0  0  0
    2.9168    2.4729    0.0000 C   0  0  0  0  0  0  0  0  0
    2.9168    3.2979    0.0000 C   0  0  0  0  0  0  0  0  0
    3.6313    3.7104    0.0000 C   0  0  0  0  0  0  0  0  0
    3.6313    4.5354    0.0000 Cl  0  0  0  0  0  0  0  0  0
    3.6313    1.2354    0.0000 C   0  0  0  0  0  0  0  0  0
    2.9168    0.8229    0.0000 O   0  0  0  0  0  0  0  0  0
    4.3458    0.8229    0.0000 N   0  0  0  0  0  0  0  0  0
    4.3458   -0.0021    0.0000 N   0  0  0  0  0  0  0  0  0
    5.0891   -0.3601    0.0000 C   0  0  0  0  0  0  0  0  0
    5.2726   -1.1644    0.0000 C   0  0  0  0  0  0  0  0  0
    6.0610   -1.4076    0.0000 C   0  0  0  0  0  0  0  0  0
    6.6657   -0.8464    0.0000 C   0  0  0  0  0  0  0  0  0
    6.4822   -0.0421    0.0000 C   0  0  0  0  0  0  0  0  0
    5.6938    0.2011    0.0000 C   0  0  0  0  0  0  0  0  0
    4.7583   -1.8094    0.0000 C   0  0  0  0  0  0  0  0  0
    3.9333   -1.8094    0.0000 N   0  0  0  0  0  0  0  0  0
    3.4189   -1.1644    0.0000 C   0  0  0  0  0  0  0  0  0
    2.6305   -1.4076    0.0000 C   0  0  0  0  0  0  0  0  0
    2.0258   -0.8464    0.0000 C   0  0  0  0  0  0  0  0  0
    1.2374   -1.0896    0.0000 Cl  0  0  0  0  0  0  0  0  0
    2.2093   -0.0421    0.0000 C   0  0  0  0  0  0  0  0  0
    2.9977    0.2011    0.0000 C   0  0  0  0  0  0  0  0  0
    3.6025   -0.3601    0.0000 C   0  0  0  0  0  0  0  0  0
    5.1162   -2.5527    0.0000 N   0  0  0  0  0  0  0  0  0
    5.9389   -2.6144    0.0000 C   0  0  0  0  0  0  0  0  0
    6.2969   -3.3577    0.0000 C   0  0  0  0  0  0  0  0  0
    5.8321   -4.0393    0.0000 N   0  0  0  0  0  0  0  0  0
    5.0094   -3.9777    0.0000 C   0  0  0  0  0  0  0  0  0
    4.6515   -3.2344    0.0000 C   0  0  0  0  0  0  0  0  0
    6.1901   -4.7826    0.0000 C   0  0  0  0  0  0  0  0  0
  1  2  1  0  0  0  0
  2  3  4  0  0  0  0
  2  7  4  0  0  0  0
  3  4  4  0  0  0  0
  4  5  4  0  0  0  0
  4  9  1  0  0  0  0
  5  6  4  0  0  0  0
  6  7  4  0  0  0  0
  7  8  1  0  0  0  0
  9 10  2  0  0  0  0
  9 11  1  0  0  0  0
 11 12  1  0  0  0  0
 12 13  1  0  0  0  0
 12 27  1  0  0  0  0
 13 14  4  0  0  0  0
 13 18  4  0  0  0  0
 14 15  4  0  0  0  0
 14 19  1  0  0  0  0
 15 16  4  0  0  0  0
 16 17  4  0  0  0  0
 17 18  4  0  0  0  0
 19 20  2  0  0  0  0
 19 28  1  0  0  0  0
 20 21  1  0  0  0  0
 21 22  4  0  0  0  0
 21 27  4  0  0  0  0
 22 23  4  0  0  0  0
 23 24  1  0  0  0  0
 23 25  4  0  0  0  0
 25 26  4  0  0  0  0
 26 27  4  0  0  0  0
 28 29  1  0  0  0  0
 28 33  1  0  0  0  0
 29 30  1  0  0  0  0
 30 31  1  0  0  0  0
 31 32  1  0  0  0  0
 31 34  1  0  0  0  0
 32 33  1  0  0  0  0
M  END
>  <Name_Molregno>
357446

>  <DOPAMINE D1>
7.92

>  <DOPAMINE D2>
5.19

$$$$
357447
  Marvin  02231216192D 0   1.00000     0.00000     0

 34 38  0  0  0  0  0  0  0  0999 V2000
   -4.1474   -2.6924    0.0000 Cl  0  0  0  0  0  0  0  0  0
   -3.3590   -2.9355    0.0000 C   0  0  0  0  0  0  0  0  0
   -2.7543   -2.3744    0.0000 C   0  0  0  0  0  0  0  0  0
   -1.9659   -2.6176    0.0000 C   0  0  0  0  0  0  0  0  0
   -1.4515   -1.9726    0.0000 N   0  0  0  0  0  0  0  0  0
   -0.6265   -1.9726    0.0000 C   0  0  0  0  0  0  0  0  0
   -0.2686   -1.2293    0.0000 N   0  0  0  0  0  0  0  0  0
   -0.7333   -0.5476    0.0000 C   0  0  0  0  0  0  0  0  0
   -0.3754    0.1957    0.0000 C   0  0  0  0  0  0  0  0  0
    0.4473    0.2573    0.0000 N   0  0  0  0  0  0  0  0  0
    0.9121   -0.4243    0.0000 C   0  0  0  0  0  0  0  0  0
    0.5541   -1.1676    0.0000 C   0  0  0  0  0  0  0  0  0
    0.8053    1.0006    0.0000 C   0  0  0  0  0  0  0  0  0
   -0.1122   -2.6176    0.0000 C   0  0  0  0  0  0  0  0  0
   -0.2957   -3.4219    0.0000 C   0  0  0  0  0  0  0  0  0
   -1.0390   -3.7798    0.0000 N   0  0  0  0  0  0  0  0  0
   -1.0390   -4.6048    0.0000 N   0  0  0  0  0  0  0  0  0
   -0.3246   -5.0173    0.0000 C   0  0  0  0  0  0  0  0  0
    0.3899   -4.6048    0.0000 O   0  0  0  0  0  0  0  0  0
   -0.3246   -5.8423    0.0000 C   0  0  0  0  0  0  0  0  0
    0.3899   -6.2548    0.0000 C   0  0  0  0  0  0  0  0  0
    0.3899   -7.0798    0.0000 C   0  0  0  0  0  0  0  0  0
   -0.3246   -7.4923    0.0000 C   0  0  0  0  0  0  0  0  0
   -1.0390   -7.0798    0.0000 C   0  0  0  0  0  0  0  0  0
   -1.0390   -6.2548    0.0000 C   0  0  0  0  0  0  0  0  0
   -1.7535   -5.8423    0.0000 N   0  0  0  0  0  0  0  0  0
    1.1044   -5.8423    0.0000 C   0  0  0  0  0  0  0  0  0
   -1.7823   -3.4219    0.0000 C   0  0  0  0  0  0  0  0  0
   -2.3871   -3.9830    0.0000 C   0  0  0  0  0  0  0  0  0
   -3.1755   -3.7398    0.0000 C   0  0  0  0  0  0  0  0  0
    0.3090   -3.9830    0.0000 C   0  0  0  0  0  0  0  0  0
    1.0974   -3.7398    0.0000 C   0  0  0  0  0  0  0  0  0
    1.2810   -2.9355    0.0000 C   0  0  0  0  0  0  0  0  0
    0.6762   -2.3744    0.0000 C   0  0  0  0  0  0  0  0  0
  1  2  1  0  0  0  0
  2  3  4  0  0  0  0
  2 30  4  0  0  0  0
  3  4  4  0  0  0  0
  4  5  1  0  0  0  0
  4 28  4  0  0  0  0
  5  6  2  0  0  0  0
  6  7  1  0  0  0  0
  6 14  1  0  0  0  0
  7  8  1  0  0  0  0
  7 12  1  0  0  0  0
  8  9  1  0  0  0  0
  9 10  1  0  0  0  0
 10 11  1  0  0  0  0
 10 13  1  0  0  0  0
 11 12  1  0  0  0  0
 14 15  4  0  0  0  0
 14 34  4  0  0  0  0
 15 16  1  0  0  0  0
 15 31  4  0  0  0  0
 16 17  1  0  0  0  0
 16 28  1  0  0  0  0
 17 18  1  0  0  0  0
 18 19  2  0  0  0  0
 18 20  1  0  0  0  0
 20 21  4  0  0  0  0
 20 25  4  0  0  0  0
 21 22  4  0  0  0  0
 21 27  1  0  0  0  0
 22 23  4  0  0  0  0
 23 24  4  0  0  0  0
 24 25  4  0  0  0  0
 25 26  1  0  0  0  0
 28 29  4  0  0  0  0
 29 30  4  0  0  0  0
 31 32  4  0  0  0  0
 32 33  4  0  0  0  0
 33 34  4  0  0  0  0
M  END
>  <Name_Molregno>
357447

>  <5-HT2A>
8.54

>  <Alpha-2A>
6.34

>  <DOPAMINE D1>
8.49

>  <DOPAMINE D2>
5.99

>  <DOPAMINE D4>
5.31

>  <DOPAMINE D5>
7.24

$$$$
357448
  Marvin  02231216192D 0   1.00000     0.00000     0

 37 41  0  0  0  0  0  0  0  0999 V2000
   -4.7351   -2.6013    0.0000 Cl  0  0  0  0  0  0  0  0  0
   -3.9468   -2.8445    0.0000 C   0  0  0  0  0  0  0  0  0
   -3.3420   -2.2833    0.0000 C   0  0  0  0  0  0  0  0  0
   -2.5537   -2.5265    0.0000 C   0  0  0  0  0  0  0  0  0
   -2.0393   -1.8815    0.0000 N   0  0  0  0  0  0  0  0  0
   -1.2143   -1.8815    0.0000 C   0  0  0  0  0  0  0  0  0
   -0.8563   -1.1382    0.0000 N   0  0  0  0  0  0  0  0  0
   -1.3211   -0.4565    0.0000 C   0  0  0  0  0  0  0  0  0
   -0.9631    0.2868    0.0000 C   0  0  0  0  0  0  0  0  0
   -0.1404    0.3484    0.0000 N   0  0  0  0  0  0  0  0  0
    0.3243   -0.3332    0.0000 C   0  0  0  0  0  0  0  0  0
   -0.0336   -1.0765    0.0000 C   0  0  0  0  0  0  0  0  0
    0.2175    1.0917    0.0000 C   0  0  0  0  0  0  0  0  0
   -0.6999   -2.5265    0.0000 C   0  0  0  0  0  0  0  0  0
   -0.8835   -3.3308    0.0000 C   0  0  0  0  0  0  0  0  0
   -1.6268   -3.6888    0.0000 N   0  0  0  0  0  0  0  0  0
   -1.6268   -4.5138    0.0000 N   0  0  0  0  0  0  0  0  0
   -0.9123   -4.9263    0.0000 C   0  0  0  0  0  0  0  0  0
   -0.1978   -4.5138    0.0000 O   0  0  0  0  0  0  0  0  0
   -0.9123   -5.7513    0.0000 C   0  0  0  0  0  0  0  0  0
   -0.1978   -6.1638    0.0000 C   0  0  0  0  0  0  0  0  0
   -0.1978   -6.9888    0.0000 C   0  0  0  0  0  0  0  0  0
   -0.9123   -7.4013    0.0000 C   0  0  0  0  0  0  0  0  0
   -1.6268   -6.9888    0.0000 C   0  0  0  0  0  0  0  0  0
   -1.6268   -6.1638    0.0000 C   0  0  0  0  0  0  0  0  0
   -2.3412   -5.7513    0.0000 N   0  0  0  0  0  0  0  0  0
    0.5166   -5.7513    0.0000 C   0  0  0  0  0  0  0  0  0
    1.2311   -5.3388    0.0000 F   0  0  0  0  0  0  0  0  0
    0.9291   -6.4657    0.0000 F   0  0  0  0  0  0  0  0  0
    0.1041   -5.0368    0.0000 F   0  0  0  0  0  0  0  0  0
   -2.3701   -3.3308    0.0000 C   0  0  0  0  0  0  0  0  0
   -2.9748   -3.8919    0.0000 C   0  0  0  0  0  0  0  0  0
   -3.7632   -3.6488    0.0000 C   0  0  0  0  0  0  0  0  0
   -0.2787   -3.8919    0.0000 C   0  0  0  0  0  0  0  0  0
    0.5096   -3.6488    0.0000 C   0  0  0  0  0  0  0  0  0
    0.6932   -2.8445    0.0000 C   0  0  0  0  0  0  0  0  0
    0.0885   -2.2833    0.0000 C   0  0  0  0  0  0  0  0  0
  1  2  1  0  0  0  0
  2  3  4  0  0  0  0
  2 33  4  0  0  0  0
  3  4  4  0  0  0  0
  4  5  1  0  0  0  0
  4 31  4  0  0  0  0
  5  6  2  0  0  0  0
  6  7  1  0  0  0  0
  6 14  1  0  0  0  0
  7  8  1  0  0  0  0
  7 12  1  0  0  0  0
  8  9  1  0  0  0  0
  9 10  1  0  0  0  0
 10 11  1  0  0  0  0
 10 13  1  0  0  0  0
 11 12  1  0  0  0  0
 14 15  4  0  0  0  0
 14 37  4  0  0  0  0
 15 16  1  0  0  0  0
 15 34  4  0  0  0  0
 16 17  1  0  0  0  0
 16 31  1  0  0  0  0
 17 18  1  0  0  0  0
 18 19  2  0  0  0  0
 18 20  1  0  0  0  0
 20 21  4  0  0  0  0
 20 25  4  0  0  0  0
 21 22  4  0  0  0  0
 21 27  1  0  0  0  0
 22 23  4  0  0  0  0
 23 24  4  0  0  0  0
 24 25  4  0  0  0  0
 25 26  1  0  0  0  0
 27 28  1  0  0  0  0
 27 29  1  0  0  0  0
 27 30  1  0  0  0  0
 31 32  4  0  0  0  0
 32 33  4  0  0  0  0
 34 35  4  0  0  0  0
 35 36  4  0  0  0  0
 36 37  4  0  0  0  0
M  END
>  <Name_Molregno>
357448

>  <DOPAMINE D1>
8.15

>  <DOPAMINE D2>
7.04

$$$$
357475
  Marvin  02231216192D 0   1.00000     0.00000     0

 34 38  0  0  0  0  0  0  0  0999 V2000
    1.0213    1.9393    0.0000 I   0  0  0  0  0  0  0  0  0
    1.7358    2.3518    0.0000 C   0  0  0  0  0  0  0  0  0
    1.7358    3.1768    0.0000 C   0  0  0  0  0  0  0  0  0
    2.4503    3.5893    0.0000 C   0  0  0  0  0  0  0  0  0
    3.1648    3.1768    0.0000 C   0  0  0  0  0  0  0  0  0
    3.1648    2.3518    0.0000 C   0  0  0  0  0  0  0  0  0
    2.4503    1.9393    0.0000 C   0  0  0  0  0  0  0  0  0
    2.4503    1.1143    0.0000 C   0  0  0  0  0  0  0  0  0
    1.7358    0.7018    0.0000 O   0  0  0  0  0  0  0  0  0
    3.1648    0.7018    0.0000 N   0  0  0  0  0  0  0  0  0
    3.1648   -0.1232    0.0000 N   0  0  0  0  0  0  0  0  0
    3.9081   -0.4811    0.0000 C   0  0  0  0  0  0  0  0  0
    4.0916   -1.2854    0.0000 C   0  0  0  0  0  0  0  0  0
    4.8800   -1.5286    0.0000 C   0  0  0  0  0  0  0  0  0
    5.4847   -0.9675    0.0000 C   0  0  0  0  0  0  0  0  0
    6.2731   -1.2106    0.0000 Cl  0  0  0  0  0  0  0  0  0
    5.3012   -0.1631    0.0000 C   0  0  0  0  0  0  0  0  0
    4.5128    0.0800    0.0000 C   0  0  0  0  0  0  0  0  0
    3.5773   -1.9304    0.0000 C   0  0  0  0  0  0  0  0  0
    2.7523   -1.9304    0.0000 N   0  0  0  0  0  0  0  0  0
    2.2379   -1.2854    0.0000 C   0  0  0  0  0  0  0  0  0
    1.4495   -1.5286    0.0000 C   0  0  0  0  0  0  0  0  0
    0.8448   -0.9675    0.0000 C   0  0  0  0  0  0  0  0  0
    0.0564   -1.2106    0.0000 Cl  0  0  0  0  0  0  0  0  0
    1.0283   -0.1631    0.0000 C   0  0  0  0  0  0  0  0  0
    1.8167    0.0800    0.0000 C   0  0  0  0  0  0  0  0  0
    2.4215   -0.4811    0.0000 C   0  0  0  0  0  0  0  0  0
    3.9352   -2.6737    0.0000 N   0  0  0  0  0  0  0  0  0
    4.7579   -2.7354    0.0000 C   0  0  0  0  0  0  0  0  0
    5.1159   -3.4787    0.0000 C   0  0  0  0  0  0  0  0  0
    4.6511   -4.1603    0.0000 N   0  0  0  0  0  0  0  0  0
    3.8284   -4.0987    0.0000 C   0  0  0  0  0  0  0  0  0
    3.4705   -3.3554    0.0000 C   0  0  0  0  0  0  0  0  0
    5.0091   -4.9036    0.0000 C   0  0  0  0  0  0  0  0  0
  1  2  1  0  0  0  0
  2  3  4  0  0  0  0
  2  7  4  0  0  0  0
  3  4  4  0  0  0  0
  4  5  4  0  0  0  0
  5  6  4  0  0  0  0
  6  7  4  0  0  0  0
  7  8  1  0  0  0  0
  8  9  2  0  0  0  0
  8 10  1  0  0  0  0
 10 11  1  0  0  0  0
 11 12  1  0  0  0  0
 11 27  1  0  0  0  0
 12 13  4  0  0  0  0
 12 18  4  0  0  0  0
 13 14  4  0  0  0  0
 13 19  1  0  0  0  0
 14 15  4  0  0  0  0
 15 16  1  0  0  0  0
 15 17  4  0  0  0  0
 17 18  4  0  0  0  0
 19 20  2  0  0  0  0
 19 28  1  0  0  0  0
 20 21  1  0  0  0  0
 21 22  4  0  0  0  0
 21 27  4  0  0  0  0
 22 23  4  0  0  0  0
 23 24  1  0  0  0  0
 23 25  4  0  0  0  0
 25 26  4  0  0  0  0
 26 27  4  0  0  0  0
 28 29  1  0  0  0  0
 28 33  1  0  0  0  0
 29 30  1  0  0  0  0
 30 31  1  0  0  0  0
 31 32  1  0  0  0  0
 31 34  1  0  0  0  0
 32 33  1  0  0  0  0
M  END
>  <Name_Molregno>
357475

>  <DOPAMINE D1>
7.92

>  <DOPAMINE D2>
7.44

$$$$
357477
  Marvin  02231216192D 0   1.00000     0.00000     0

 34 38  0  0  0  0  0  0  0  0999 V2000
    0.2845    1.3449    0.0000 Cl  0  0  0  0  0  0  0  0  0
    0.9990    1.7574    0.0000 C   0  0  0  0  0  0  0  0  0
    0.9990    2.5824    0.0000 C   0  0  0  0  0  0  0  0  0
    1.7135    2.9949    0.0000 C   0  0  0  0  0  0  0  0  0
    2.4279    2.5824    0.0000 C   0  0  0  0  0  0  0  0  0
    2.4279    1.7574    0.0000 C   0  0  0  0  0  0  0  0  0
    3.1424    1.3449    0.0000 Cl  0  0  0  0  0  0  0  0  0
    1.7135    1.3449    0.0000 C   0  0  0  0  0  0  0  0  0
    1.7135    0.5199    0.0000 C   0  0  0  0  0  0  0  0  0
    0.9990    0.1074    0.0000 O   0  0  0  0  0  0  0  0  0
    2.4279    0.1074    0.0000 N   0  0  0  0  0  0  0  0  0
    2.4279   -0.7176    0.0000 N   0  0  0  0  0  0  0  0  0
    3.1712   -1.0755    0.0000 C   0  0  0  0  0  0  0  0  0
    3.3548   -1.8798    0.0000 C   0  0  0  0  0  0  0  0  0
    4.1432   -2.1230    0.0000 C   0  0  0  0  0  0  0  0  0
    4.7479   -1.5619    0.0000 C   0  0  0  0  0  0  0  0  0
    4.5644   -0.7576    0.0000 C   0  0  0  0  0  0  0  0  0
    3.7760   -0.5144    0.0000 C   0  0  0  0  0  0  0  0  0
    2.8404   -2.5248    0.0000 C   0  0  0  0  0  0  0  0  0
    2.0154   -2.5248    0.0000 N   0  0  0  0  0  0  0  0  0
    1.5011   -1.8798    0.0000 C   0  0  0  0  0  0  0  0  0
    0.7127   -2.1230    0.0000 C   0  0  0  0  0  0  0  0  0
    0.1080   -1.5619    0.0000 C   0  0  0  0  0  0  0  0  0
   -0.6804   -1.8050    0.0000 Cl  0  0  0  0  0  0  0  0  0
    0.2915   -0.7576    0.0000 C   0  0  0  0  0  0  0  0  0
    1.0799   -0.5144    0.0000 C   0  0  0  0  0  0  0  0  0
    1.6846   -1.0755    0.0000 C   0  0  0  0  0  0  0  0  0
    3.1984   -3.2681    0.0000 N   0  0  0  0  0  0  0  0  0
    4.0211   -3.3298    0.0000 C   0  0  0  0  0  0  0  0  0
    4.3791   -4.0731    0.0000 C   0  0  0  0  0  0  0  0  0
    3.9143   -4.7547    0.0000 N   0  0  0  0  0  0  0  0  0
    3.0916   -4.6931    0.0000 C   0  0  0  0  0  0  0  0  0
    2.7337   -3.9498    0.0000 C   0  0  0  0  0  0  0  0  0
    4.2723   -5.4980    0.0000 C   0  0  0  0  0  0  0  0  0
  1  2  1  0  0  0  0
  2  3  4  0  0  0  0
  2  8  4  0  0  0  0
  3  4  4  0  0  0  0
  4  5  4  0  0  0  0
  5  6  4  0  0  0  0
  6  7  1  0  0  0  0
  6  8  4  0  0  0  0
  8  9  1  0  0  0  0
  9 10  2  0  0  0  0
  9 11  1  0  0  0  0
 11 12  1  0  0  0  0
 12 13  1  0  0  0  0
 12 27  1  0  0  0  0
 13 14  4  0  0  0  0
 13 18  4  0  0  0  0
 14 15  4  0  0  0  0
 14 19  1  0  0  0  0
 15 16  4  0  0  0  0
 16 17  4  0  0  0  0
 17 18  4  0  0  0  0
 19 20  2  0  0  0  0
 19 28  1  0  0  0  0
 20 21  1  0  0  0  0
 21 22  4  0  0  0  0
 21 27  4  0  0  0  0
 22 23  4  0  0  0  0
 23 24  1  0  0  0  0
 23 25  4  0  0  0  0
 25 26  4  0  0  0  0
 26 27  4  0  0  0  0
 28 29  1  0  0  0  0
 28 33  1  0  0  0  0
 29 30  1  0  0  0  0
 30 31  1  0  0  0  0
 31 32  1  0  0  0  0
 31 34  1  0  0  0  0
 32 33  1  0  0  0  0
M  END
>  <Name_Molregno>
357477

>  <DOPAMINE D1>
8.47

>  <DOPAMINE D2>
6.62

$$$$
357478
  Marvin  02231216192D 0   1.00000     0.00000     0

 35 39  0  0  0  0  0  0  0  0999 V2000
    0.4115    2.4409    0.0000 Cl  0  0  0  0  0  0  0  0  0
    1.1259    2.8534    0.0000 C   0  0  0  0  0  0  0  0  0
    1.1259    3.6784    0.0000 C   0  0  0  0  0  0  0  0  0
    1.8404    4.0909    0.0000 C   0  0  0  0  0  0  0  0  0
    1.8404    4.9159    0.0000 Cl  0  0  0  0  0  0  0  0  0
    2.5549    3.6784    0.0000 C   0  0  0  0  0  0  0  0  0
    2.5549    2.8534    0.0000 C   0  0  0  0  0  0  0  0  0
    3.2693    2.4409    0.0000 Cl  0  0  0  0  0  0  0  0  0
    1.8404    2.4409    0.0000 C   0  0  0  0  0  0  0  0  0
    1.8404    1.6159    0.0000 C   0  0  0  0  0  0  0  0  0
    1.1259    1.2034    0.0000 O   0  0  0  0  0  0  0  0  0
    2.5549    1.2034    0.0000 N   0  0  0  0  0  0  0  0  0
    2.5549    0.3784    0.0000 N   0  0  0  0  0  0  0  0  0
    3.2982    0.0205    0.0000 C   0  0  0  0  0  0  0  0  0
    3.4818   -0.7839    0.0000 C   0  0  0  0  0  0  0  0  0
    4.2701   -1.0270    0.0000 C   0  0  0  0  0  0  0  0  0
    4.8749   -0.4659    0.0000 C   0  0  0  0  0  0  0  0  0
    4.6913    0.3384    0.0000 C   0  0  0  0  0  0  0  0  0
    3.9029    0.5816    0.0000 C   0  0  0  0  0  0  0  0  0
    2.9674   -1.4289    0.0000 C   0  0  0  0  0  0  0  0  0
    2.1424   -1.4289    0.0000 N   0  0  0  0  0  0  0  0  0
    1.6280   -0.7839    0.0000 C   0  0  0  0  0  0  0  0  0
    0.8396   -1.0270    0.0000 C   0  0  0  0  0  0  0  0  0
    0.2349   -0.4659    0.0000 C   0  0  0  0  0  0  0  0  0
   -0.5535   -0.7091    0.0000 Cl  0  0  0  0  0  0  0  0  0
    0.4185    0.3384    0.0000 C   0  0  0  0  0  0  0  0  0
    1.2068    0.5816    0.0000 C   0  0  0  0  0  0  0  0  0
    1.8116    0.0205    0.0000 C   0  0  0  0  0  0  0  0  0
    3.3253   -2.1722    0.0000 N   0  0  0  0  0  0  0  0  0
    4.1480   -2.2338    0.0000 C   0  0  0  0  0  0  0  0  0
    4.5060   -2.9771    0.0000 C   0  0  0  0  0  0  0  0  0
    4.0412   -3.6588    0.0000 N   0  0  0  0  0  0  0  0  0
    3.2185   -3.5971    0.0000 C   0  0  0  0  0  0  0  0  0
    2.8606   -2.8538    0.0000 C   0  0  0  0  0  0  0  0  0
    4.3992   -4.4021    0.0000 C   0  0  0  0  0  0  0  0  0
  1  2  1  0  0  0  0
  2  3  4  0  0  0  0
  2  9  4  0  0  0  0
  3  4  4  0  0  0  0
  4  5  1  0  0  0  0
  4  6  4  0  0  0  0
  6  7  4  0  0  0  0
  7  8  1  0  0  0  0
  7  9  4  0  0  0  0
  9 10  1  0  0  0  0
 10 11  2  0  0  0  0
 10 12  1  0  0  0  0
 12 13  1  0  0  0  0
 13 14  1  0  0  0  0
 13 28  1  0  0  0  0
 14 15  4  0  0  0  0
 14 19  4  0  0  0  0
 15 16  4  0  0  0  0
 15 20  1  0  0  0  0
 16 17  4  0  0  0  0
 17 18  4  0  0  0  0
 18 19  4  0  0  0  0
 20 21  2  0  0  0  0
 20 29  1  0  0  0  0
 21 22  1  0  0  0  0
 22 23  4  0  0  0  0
 22 28  4  0  0  0  0
 23 24  4  0  0  0  0
 24 25  1  0  0  0  0
 24 26  4  0  0  0  0
 26 27  4  0  0  0  0
 27 28  4  0  0  0  0
 29 30  1  0  0  0  0
 29 34  1  0  0  0  0
 30 31  1  0  0  0  0
 31 32  1  0  0  0  0
 32 33  1  0  0  0  0
 32 35  1  0  0  0  0
 33 34  1  0  0  0  0
M  END
>  <Name_Molregno>
357478

>  <DOPAMINE D1>
8.4

>  <DOPAMINE D2>
6.41

$$$$
357496
  Marvin  02231216192D 0   1.00000     0.00000     0

 34 38  0  0  0  0  0  0  0  0999 V2000
    4.5719    3.2256    0.0000 Cl  0  0  0  0  0  0  0  0  0
    3.8574    2.8131    0.0000 C   0  0  0  0  0  0  0  0  0
    3.8574    1.9881    0.0000 C   0  0  0  0  0  0  0  0  0
    3.1429    1.5756    0.0000 C   0  0  0  0  0  0  0  0  0
    3.1429    0.7506    0.0000 N   0  0  0  0  0  0  0  0  0
    3.8574    0.3381    0.0000 C   0  0  0  0  0  0  0  0  0
    4.5719    0.7506    0.0000 O   0  0  0  0  0  0  0  0  0
    3.8574   -0.4869    0.0000 N   0  0  0  0  0  0  0  0  0
    4.6007   -0.8449    0.0000 C   0  0  0  0  0  0  0  0  0
    4.7843   -1.6492    0.0000 C   0  0  0  0  0  0  0  0  0
    5.5726   -1.8924    0.0000 C   0  0  0  0  0  0  0  0  0
    6.1774   -1.3312    0.0000 C   0  0  0  0  0  0  0  0  0
    5.9938   -0.5269    0.0000 C   0  0  0  0  0  0  0  0  0
    5.2055   -0.2837    0.0000 C   0  0  0  0  0  0  0  0  0
    4.2699   -2.2942    0.0000 C   0  0  0  0  0  0  0  0  0
    3.4449   -2.2942    0.0000 N   0  0  0  0  0  0  0  0  0
    2.9305   -1.6492    0.0000 C   0  0  0  0  0  0  0  0  0
    2.1422   -1.8924    0.0000 C   0  0  0  0  0  0  0  0  0
    1.5374   -1.3312    0.0000 C   0  0  0  0  0  0  0  0  0
    0.7490   -1.5744    0.0000 Cl  0  0  0  0  0  0  0  0  0
    1.7210   -0.5269    0.0000 C   0  0  0  0  0  0  0  0  0
    2.5093   -0.2837    0.0000 C   0  0  0  0  0  0  0  0  0
    3.1141   -0.8449    0.0000 C   0  0  0  0  0  0  0  0  0
    4.6278   -3.0375    0.0000 N   0  0  0  0  0  0  0  0  0
    5.4505   -3.0991    0.0000 C   0  0  0  0  0  0  0  0  0
    5.8085   -3.8424    0.0000 C   0  0  0  0  0  0  0  0  0
    5.3438   -4.5241    0.0000 N   0  0  0  0  0  0  0  0  0
    4.5211   -4.4624    0.0000 C   0  0  0  0  0  0  0  0  0
    4.1631   -3.7191    0.0000 C   0  0  0  0  0  0  0  0  0
    5.7017   -5.2674    0.0000 C   0  0  0  0  0  0  0  0  0
    2.4284    1.9881    0.0000 C   0  0  0  0  0  0  0  0  0
    2.4284    2.8131    0.0000 C   0  0  0  0  0  0  0  0  0
    1.7140    3.2256    0.0000 Cl  0  0  0  0  0  0  0  0  0
    3.1429    3.2256    0.0000 C   0  0  0  0  0  0  0  0  0
  1  2  1  0  0  0  0
  2  3  4  0  0  0  0
  2 34  4  0  0  0  0
  3  4  4  0  0  0  0
  4  5  1  0  0  0  0
  4 31  4  0  0  0  0
  5  6  1  0  0  0  0
  6  7  2  0  0  0  0
  6  8  1  0  0  0  0
  8  9  1  0  0  0  0
  8 23  1  0  0  0  0
  9 10  4  0  0  0  0
  9 14  4  0  0  0  0
 10 11  4  0  0  0  0
 10 15  1  0  0  0  0
 11 12  4  0  0  0  0
 12 13  4  0  0  0  0
 13 14  4  0  0  0  0
 15 16  2  0  0  0  0
 15 24  1  0  0  0  0
 16 17  1  0  0  0  0
 17 18  4  0  0  0  0
 17 23  4  0  0  0  0
 18 19  4  0  0  0  0
 19 20  1  0  0  0  0
 19 21  4  0  0  0  0
 21 22  4  0  0  0  0
 22 23  4  0  0  0  0
 24 25  1  0  0  0  0
 24 29  1  0  0  0  0
 25 26  1  0  0  0  0
 26 27  1  0  0  0  0
 27 28  1  0  0  0  0
 27 30  1  0  0  0  0
 28 29  1  0  0  0  0
 31 32  4  0  0  0  0
 32 33  1  0  0  0  0
 32 34  4  0  0  0  0
M  END
>  <Name_Molregno>
357496

>  <DOPAMINE D1>
6.76

>  <DOPAMINE D2>
5.41

$$$$
357504
  Marvin  02231216192D 0   1.00000     0.00000     0

 31 35  0  0  0  0  0  0  0  0999 V2000
   -3.3362   -5.0464    0.0000 Cl  0  0  0  0  0  0  0  0  0
   -2.5478   -5.2896    0.0000 C   0  0  0  0  0  0  0  0  0
   -1.9430   -4.7285    0.0000 C   0  0  0  0  0  0  0  0  0
   -1.1547   -4.9716    0.0000 C   0  0  0  0  0  0  0  0  0
   -0.6403   -4.3266    0.0000 N   0  0  0  0  0  0  0  0  0
    0.1847   -4.3266    0.0000 C   0  0  0  0  0  0  0  0  0
    0.5426   -3.5833    0.0000 N   0  0  0  0  0  0  0  0  0
    0.0779   -2.9017    0.0000 C   0  0  0  0  0  0  0  0  0
    0.4359   -2.1584    0.0000 C   0  0  0  0  0  0  0  0  0
    1.2586   -2.0967    0.0000 N   0  0  0  0  0  0  0  0  0
    1.7233   -2.7784    0.0000 C   0  0  0  0  0  0  0  0  0
    1.3653   -3.5217    0.0000 C   0  0  0  0  0  0  0  0  0
    1.6165   -1.3534    0.0000 C   0  0  0  0  0  0  0  0  0
    2.4392   -1.2918    0.0000 C   0  0  0  0  0  0  0  0  0
    2.7972   -0.5485    0.0000 C   0  0  0  0  0  0  0  0  0
    3.6198   -0.4868    0.0000 C   0  0  0  0  0  0  0  0  0
    4.0846   -1.1685    0.0000 C   0  0  0  0  0  0  0  0  0
    4.9073   -1.1068    0.0000 F   0  0  0  0  0  0  0  0  0
    3.7266   -1.9118    0.0000 C   0  0  0  0  0  0  0  0  0
    2.9039   -1.9734    0.0000 C   0  0  0  0  0  0  0  0  0
    2.5460   -2.7167    0.0000 F   0  0  0  0  0  0  0  0  0
    0.6991   -4.9716    0.0000 C   0  0  0  0  0  0  0  0  0
    0.5155   -5.7759    0.0000 C   0  0  0  0  0  0  0  0  0
   -0.2278   -6.1339    0.0000 N   0  0  0  0  0  0  0  0  0
   -0.9711   -5.7759    0.0000 C   0  0  0  0  0  0  0  0  0
   -1.5759   -6.3371    0.0000 C   0  0  0  0  0  0  0  0  0
   -2.3642   -6.0939    0.0000 C   0  0  0  0  0  0  0  0  0
    1.1203   -6.3371    0.0000 C   0  0  0  0  0  0  0  0  0
    1.9086   -6.0939    0.0000 C   0  0  0  0  0  0  0  0  0
    2.0922   -5.2896    0.0000 C   0  0  0  0  0  0  0  0  0
    1.4874   -4.7285    0.0000 C   0  0  0  0  0  0  0  0  0
  1  2  1  0  0  0  0
  2  3  4  0  0  0  0
  2 27  4  0  0  0  0
  3  4  4  0  0  0  0
  4  5  1  0  0  0  0
  4 25  4  0  0  0  0
  5  6  2  0  0  0  0
  6  7  1  0  0  0  0
  6 22  1  0  0  0  0
  7  8  1  0  0  0  0
  7 12  1  0  0  0  0
  8  9  1  0  0  0  0
  9 10  1  0  0  0  0
 10 11  1  0  0  0  0
 10 13  1  0  0  0  0
 11 12  1  0  0  0  0
 13 14  1  0  0  0  0
 14 15  4  0  0  0  0
 14 20  4  0  0  0  0
 15 16  4  0  0  0  0
 16 17  4  0  0  0  0
 17 18  1  0  0  0  0
 17 19  4  0  0  0  0
 19 20  4  0  0  0  0
 20 21  1  0  0  0  0
 22 23  4  0  0  0  0
 22 31  4  0  0  0  0
 23 24  1  0  0  0  0
 23 28  4  0  0  0  0
 24 25  1  0  0  0  0
 25 26  4  0  0  0  0
 26 27  4  0  0  0  0
 28 29  4  0  0  0  0
 29 30  4  0  0  0  0
 30 31  4  0  0  0  0
M  END
>  <Name_Molregno>
357504

>  <DOPAMINE D1>
6.08

>  <DOPAMINE D2>
6.75

$$$$
357505
  Marvin  02231216192D 0   1.00000     0.00000     0

 34 38  0  0  0  0  0  0  0  0999 V2000
    4.7571   -1.5832    0.0000 Cl  0  0  0  0  0  0  0  0  0
    3.9687   -1.8264    0.0000 C   0  0  0  0  0  0  0  0  0
    3.3640   -1.2652    0.0000 C   0  0  0  0  0  0  0  0  0
    2.5756   -1.5084    0.0000 C   0  0  0  0  0  0  0  0  0
    2.3920   -2.3127    0.0000 C   0  0  0  0  0  0  0  0  0
    1.6487   -2.6707    0.0000 N   0  0  0  0  0  0  0  0  0
    1.6487   -3.4957    0.0000 N   0  0  0  0  0  0  0  0  0
    0.9343   -3.9082    0.0000 C   0  0  0  0  0  0  0  0  0
    0.2198   -3.4957    0.0000 O   0  0  0  0  0  0  0  0  0
    0.9343   -4.7332    0.0000 C   0  0  0  0  0  0  0  0  0
    1.6487   -5.1457    0.0000 C   0  0  0  0  0  0  0  0  0
    1.6487   -5.9707    0.0000 C   0  0  0  0  0  0  0  0  0
    0.9343   -6.3832    0.0000 C   0  0  0  0  0  0  0  0  0
    0.2198   -5.9707    0.0000 C   0  0  0  0  0  0  0  0  0
    0.2198   -5.1457    0.0000 C   0  0  0  0  0  0  0  0  0
    0.9343   -7.2082    0.0000 C   0  0  0  0  0  0  0  0  0
    0.9343   -8.0332    0.0000 N   0  0  0  0  0  0  0  0  0
    0.9054   -2.3127    0.0000 C   0  0  0  0  0  0  0  0  0
    0.7219   -1.5084    0.0000 C   0  0  0  0  0  0  0  0  0
    1.2362   -0.8634    0.0000 N   0  0  0  0  0  0  0  0  0
    2.0612   -0.8634    0.0000 C   0  0  0  0  0  0  0  0  0
    2.4192   -0.1201    0.0000 N   0  0  0  0  0  0  0  0  0
    1.9545    0.5616    0.0000 C   0  0  0  0  0  0  0  0  0
    2.3124    1.3049    0.0000 C   0  0  0  0  0  0  0  0  0
    3.1351    1.3665    0.0000 N   0  0  0  0  0  0  0  0  0
    3.5998    0.6849    0.0000 C   0  0  0  0  0  0  0  0  0
    3.2419   -0.0584    0.0000 C   0  0  0  0  0  0  0  0  0
    3.4931    2.1098    0.0000 C   0  0  0  0  0  0  0  0  0
   -0.0665   -1.2652    0.0000 C   0  0  0  0  0  0  0  0  0
   -0.6712   -1.8264    0.0000 C   0  0  0  0  0  0  0  0  0
   -0.4877   -2.6307    0.0000 C   0  0  0  0  0  0  0  0  0
    0.3007   -2.8738    0.0000 C   0  0  0  0  0  0  0  0  0
    2.9968   -2.8738    0.0000 C   0  0  0  0  0  0  0  0  0
    3.7852   -2.6307    0.0000 C   0  0  0  0  0  0  0  0  0
  1  2  1  0  0  0  0
  2  3  4  0  0  0  0
  2 34  4  0  0  0  0
  3  4  4  0  0  0  0
  4  5  4  0  0  0  0
  4 21  1  0  0  0  0
  5  6  1  0  0  0  0
  5 33  4  0  0  0  0
  6  7  1  0  0  0  0
  6 18  1  0  0  0  0
  7  8  1  0  0  0  0
  8  9  2  0  0  0  0
  8 10  1  0  0  0  0
 10 11  4  0  0  0  0
 10 15  4  0  0  0  0
 11 12  4  0  0  0  0
 12 13  4  0  0  0  0
 13 14  4  0  0  0  0
 13 16  1  0  0  0  0
 14 15  4  0  0  0  0
 16 17  3  0  0  0  0
 18 19  4  0  0  0  0
 18 32  4  0  0  0  0
 19 20  1  0  0  0  0
 19 29  4  0  0  0  0
 20 21  2  0  0  0  0
 21 22  1  0  0  0  0
 22 23  1  0  0  0  0
 22 27  1  0  0  0  0
 23 24  1  0  0  0  0
 24 25  1  0  0  0  0
 25 26  1  0  0  0  0
 25 28  1  0  0  0  0
 26 27  1  0  0  0  0
 29 30  4  0  0  0  0
 30 31  4  0  0  0  0
 31 32  4  0  0  0  0
 33 34  4  0  0  0  0
M  END
>  <Name_Molregno>
357505

>  <DOPAMINE D1>
7.19

>  <DOPAMINE D2>
5.71

$$$$
357511
  Marvin  02231216192D 0   1.00000     0.00000     0

 34 38  0  0  0  0  0  0  0  0999 V2000
    3.7734    1.4002    0.0000 Cl  0  0  0  0  0  0  0  0  0
    3.0589    0.9877    0.0000 C   0  0  0  0  0  0  0  0  0
    3.0589    0.1627    0.0000 C   0  0  0  0  0  0  0  0  0
    2.3444   -0.2498    0.0000 C   0  0  0  0  0  0  0  0  0
    1.6300    0.1627    0.0000 C   0  0  0  0  0  0  0  0  0
    1.6300    0.9877    0.0000 C   0  0  0  0  0  0  0  0  0
    0.9155    1.4002    0.0000 Cl  0  0  0  0  0  0  0  0  0
    2.3444    1.4002    0.0000 C   0  0  0  0  0  0  0  0  0
    2.3444   -1.0748    0.0000 C   0  0  0  0  0  0  0  0  0
    1.6300   -1.4873    0.0000 O   0  0  0  0  0  0  0  0  0
    3.0589   -1.4873    0.0000 N   0  0  0  0  0  0  0  0  0
    3.0589   -2.3123    0.0000 N   0  0  0  0  0  0  0  0  0
    3.8022   -2.6703    0.0000 C   0  0  0  0  0  0  0  0  0
    3.9858   -3.4746    0.0000 C   0  0  0  0  0  0  0  0  0
    4.7741   -3.7178    0.0000 C   0  0  0  0  0  0  0  0  0
    5.3789   -3.1566    0.0000 C   0  0  0  0  0  0  0  0  0
    5.1953   -2.3523    0.0000 C   0  0  0  0  0  0  0  0  0
    4.4070   -2.1091    0.0000 C   0  0  0  0  0  0  0  0  0
    3.4714   -4.1196    0.0000 C   0  0  0  0  0  0  0  0  0
    2.6464   -4.1196    0.0000 N   0  0  0  0  0  0  0  0  0
    2.1320   -3.4746    0.0000 C   0  0  0  0  0  0  0  0  0
    1.3437   -3.7178    0.0000 C   0  0  0  0  0  0  0  0  0
    0.7389   -3.1566    0.0000 C   0  0  0  0  0  0  0  0  0
   -0.0494   -3.3998    0.0000 Cl  0  0  0  0  0  0  0  0  0
    0.9225   -2.3523    0.0000 C   0  0  0  0  0  0  0  0  0
    1.7108   -2.1091    0.0000 C   0  0  0  0  0  0  0  0  0
    2.3156   -2.6703    0.0000 C   0  0  0  0  0  0  0  0  0
    3.8294   -4.8629    0.0000 N   0  0  0  0  0  0  0  0  0
    4.6521   -4.9245    0.0000 C   0  0  0  0  0  0  0  0  0
    5.0100   -5.6678    0.0000 C   0  0  0  0  0  0  0  0  0
    4.5453   -6.3495    0.0000 N   0  0  0  0  0  0  0  0  0
    3.7226   -6.2878    0.0000 C   0  0  0  0  0  0  0  0  0
    3.3646   -5.5445    0.0000 C   0  0  0  0  0  0  0  0  0
    4.9032   -7.0928    0.0000 C   0  0  0  0  0  0  0  0  0
  1  2  1  0  0  0  0
  2  3  4  0  0  0  0
  2  8  4  0  0  0  0
  3  4  4  0  0  0  0
  4  5  4  0  0  0  0
  4  9  1  0  0  0  0
  5  6  4  0  0  0  0
  6  7  1  0  0  0  0
  6  8  4  0  0  0  0
  9 10  2  0  0  0  0
  9 11  1  0  0  0  0
 11 12  1  0  0  0  0
 12 13  1  0  0  0  0
 12 27  1  0  0  0  0
 13 14  4  0  0  0  0
 13 18  4  0  0  0  0
 14 15  4  0  0  0  0
 14 19  1  0  0  0  0
 15 16  4  0  0  0  0
 16 17  4  0  0  0  0
 17 18  4  0  0  0  0
 19 20  2  0  0  0  0
 19 28  1  0  0  0  0
 20 21  1  0  0  0  0
 21 22  4  0  0  0  0
 21 27  4  0  0  0  0
 22 23  4  0  0  0  0
 23 24  1  0  0  0  0
 23 25  4  0  0  0  0
 25 26  4  0  0  0  0
 26 27  4  0  0  0  0
 28 29  1  0  0  0  0
 28 33  1  0  0  0  0
 29 30  1  0  0  0  0
 30 31  1  0  0  0  0
 31 32  1  0  0  0  0
 31 34  1  0  0  0  0
 32 33  1  0  0  0  0
M  END
>  <Name_Molregno>
357511

>  <DOPAMINE D1>
7.62

>  <DOPAMINE D2>
6.22

$$$$
357532
  Marvin  02231216192D 0   1.00000     0.00000     0

 36 40  0  0  0  0  0  0  0  0999 V2000
    1.3630    2.5239    0.0000 Cl  0  0  0  0  0  0  0  0  0
    2.0775    2.9364    0.0000 C   0  0  0  0  0  0  0  0  0
    2.0775    3.7614    0.0000 C   0  0  0  0  0  0  0  0  0
    2.7919    4.1739    0.0000 C   0  0  0  0  0  0  0  0  0
    3.5064    3.7614    0.0000 C   0  0  0  0  0  0  0  0  0
    3.5064    2.9364    0.0000 C   0  0  0  0  0  0  0  0  0
    2.7919    2.5239    0.0000 C   0  0  0  0  0  0  0  0  0
    2.7919    1.6989    0.0000 C   0  0  0  0  0  0  0  0  0
    2.0775    1.2864    0.0000 O   0  0  0  0  0  0  0  0  0
    3.5064    1.2864    0.0000 N   0  0  0  0  0  0  0  0  0
    3.5064    0.4614    0.0000 N   0  0  0  0  0  0  0  0  0
    4.2497    0.1035    0.0000 C   0  0  0  0  0  0  0  0  0
    4.4333   -0.7008    0.0000 C   0  0  0  0  0  0  0  0  0
    5.2216   -0.9440    0.0000 C   0  0  0  0  0  0  0  0  0
    5.8264   -0.3829    0.0000 C   0  0  0  0  0  0  0  0  0
    5.6428    0.4215    0.0000 C   0  0  0  0  0  0  0  0  0
    4.8545    0.6646    0.0000 C   0  0  0  0  0  0  0  0  0
    3.9189   -1.3458    0.0000 C   0  0  0  0  0  0  0  0  0
    3.0939   -1.3458    0.0000 N   0  0  0  0  0  0  0  0  0
    2.5795   -0.7008    0.0000 C   0  0  0  0  0  0  0  0  0
    1.7912   -0.9440    0.0000 C   0  0  0  0  0  0  0  0  0
    1.1864   -0.3829    0.0000 C   0  0  0  0  0  0  0  0  0
    0.3981   -0.6260    0.0000 Cl  0  0  0  0  0  0  0  0  0
    1.3700    0.4215    0.0000 C   0  0  0  0  0  0  0  0  0
    2.1583    0.6646    0.0000 C   0  0  0  0  0  0  0  0  0
    2.7631    0.1035    0.0000 C   0  0  0  0  0  0  0  0  0
    4.2769   -2.0891    0.0000 N   0  0  0  0  0  0  0  0  0
    5.0996   -2.1508    0.0000 C   0  0  0  0  0  0  0  0  0
    5.4575   -2.8941    0.0000 C   0  0  0  0  0  0  0  0  0
    4.9928   -3.5757    0.0000 N   0  0  0  0  0  0  0  0  0
    4.1701   -3.5141    0.0000 C   0  0  0  0  0  0  0  0  0
    3.8121   -2.7708    0.0000 C   0  0  0  0  0  0  0  0  0
    5.3507   -4.3190    0.0000 C   0  0  0  0  0  0  0  0  0
    4.8860   -5.0007    0.0000 C   0  0  0  0  0  0  0  0  0
    5.2439   -5.7440    0.0000 C   0  0  0  0  0  0  0  0  0
    4.0633   -4.9390    0.0000 C   0  0  0  0  0  0  0  0  0
  1  2  1  0  0  0  0
  2  3  4  0  0  0  0
  2  7  4  0  0  0  0
  3  4  4  0  0  0  0
  4  5  4  0  0  0  0
  5  6  4  0  0  0  0
  6  7  4  0  0  0  0
  7  8  1  0  0  0  0
  8  9  2  0  0  0  0
  8 10  1  0  0  0  0
 10 11  1  0  0  0  0
 11 12  1  0  0  0  0
 11 26  1  0  0  0  0
 12 13  4  0  0  0  0
 12 17  4  0  0  0  0
 13 14  4  0  0  0  0
 13 18  1  0  0  0  0
 14 15  4  0  0  0  0
 15 16  4  0  0  0  0
 16 17  4  0  0  0  0
 18 19  2  0  0  0  0
 18 27  1  0  0  0  0
 19 20  1  0  0  0  0
 20 21  4  0  0  0  0
 20 26  4  0  0  0  0
 21 22  4  0  0  0  0
 22 23  1  0  0  0  0
 22 24  4  0  0  0  0
 24 25  4  0  0  0  0
 25 26  4  0  0  0  0
 27 28  1  0  0  0  0
 27 32  1  0  0  0  0
 28 29  1  0  0  0  0
 29 30  1  0  0  0  0
 30 31  1  0  0  0  0
 30 33  1  0  0  0  0
 31 32  1  0  0  0  0
 33 34  1  0  0  0  0
 34 35  1  0  0  0  0
 34 36  1  0  0  0  0
M  END
>  <Name_Molregno>
357532

>  <DOPAMINE D1>
7.09

>  <DOPAMINE D2>
5.52

$$$$
357533
  Marvin  02231216192D 0   1.00000     0.00000     0

 37 41  0  0  0  0  0  0  0  0999 V2000
   -6.0257    2.6024    0.0000 Cl  0  0  0  0  0  0  0  0  0
   -5.3112    3.0149    0.0000 C   0  0  0  0  0  0  0  0  0
   -5.3112    3.8399    0.0000 C   0  0  0  0  0  0  0  0  0
   -4.5967    4.2524    0.0000 C   0  0  0  0  0  0  0  0  0
   -3.8823    3.8399    0.0000 C   0  0  0  0  0  0  0  0  0
   -3.8823    3.0149    0.0000 C   0  0  0  0  0  0  0  0  0
   -4.5967    2.6024    0.0000 C   0  0  0  0  0  0  0  0  0
   -4.5967    1.7774    0.0000 C   0  0  0  0  0  0  0  0  0
   -5.3112    1.3649    0.0000 O   0  0  0  0  0  0  0  0  0
   -3.8823    1.3649    0.0000 N   0  0  0  0  0  0  0  0  0
   -3.8823    0.5399    0.0000 N   0  0  0  0  0  0  0  0  0
   -3.1390    0.1820    0.0000 C   0  0  0  0  0  0  0  0  0
   -2.9554   -0.6224    0.0000 C   0  0  0  0  0  0  0  0  0
   -2.1670   -0.8655    0.0000 C   0  0  0  0  0  0  0  0  0
   -1.5623   -0.3044    0.0000 C   0  0  0  0  0  0  0  0  0
   -1.7458    0.4999    0.0000 C   0  0  0  0  0  0  0  0  0
   -2.5342    0.7431    0.0000 C   0  0  0  0  0  0  0  0  0
   -3.4698   -1.2674    0.0000 C   0  0  0  0  0  0  0  0  0
   -4.2948   -1.2674    0.0000 N   0  0  0  0  0  0  0  0  0
   -4.8091   -0.6224    0.0000 C   0  0  0  0  0  0  0  0  0
   -5.5975   -0.8655    0.0000 C   0  0  0  0  0  0  0  0  0
   -6.2023   -0.3044    0.0000 C   0  0  0  0  0  0  0  0  0
   -6.9906   -0.5476    0.0000 Cl  0  0  0  0  0  0  0  0  0
   -6.0187    0.4999    0.0000 C   0  0  0  0  0  0  0  0  0
   -5.2303    0.7431    0.0000 C   0  0  0  0  0  0  0  0  0
   -4.6256    0.1820    0.0000 C   0  0  0  0  0  0  0  0  0
   -3.1118   -2.0107    0.0000 N   0  0  0  0  0  0  0  0  0
   -2.2891   -2.0723    0.0000 C   0  0  0  0  0  0  0  0  0
   -1.9312   -2.8156    0.0000 C   0  0  0  0  0  0  0  0  0
   -2.3959   -3.4973    0.0000 N   0  0  0  0  0  0  0  0  0
   -3.2186   -3.4356    0.0000 C   0  0  0  0  0  0  0  0  0
   -3.5765   -2.6923    0.0000 C   0  0  0  0  0  0  0  0  0
   -2.0379   -4.2406    0.0000 C   0  0  0  0  0  0  0  0  0
   -1.2153   -4.3022    0.0000 C   0  0  0  0  0  0  0  0  0
   -0.3926   -4.3639    0.0000 C   0  0  0  0  0  0  0  0  0
   -1.2769   -5.1249    0.0000 C   0  0  0  0  0  0  0  0  0
   -1.1536   -3.4795    0.0000 C   0  0  0  0  0  0  0  0  0
  1  2  1  0  0  0  0
  2  3  4  0  0  0  0
  2  7  4  0  0  0  0
  3  4  4  0  0  0  0
  4  5  4  0  0  0  0
  5  6  4  0  0  0  0
  6  7  4  0  0  0  0
  7  8  1  0  0  0  0
  8  9  2  0  0  0  0
  8 10  1  0  0  0  0
 10 11  1  0  0  0  0
 11 12  1  0  0  0  0
 11 26  1  0  0  0  0
 12 13  4  0  0  0  0
 12 17  4  0  0  0  0
 13 14  4  0  0  0  0
 13 18  1  0  0  0  0
 14 15  4  0  0  0  0
 15 16  4  0  0  0  0
 16 17  4  0  0  0  0
 18 19  2  0  0  0  0
 18 27  1  0  0  0  0
 19 20  1  0  0  0  0
 20 21  4  0  0  0  0
 20 26  4  0  0  0  0
 21 22  4  0  0  0  0
 22 23  1  0  0  0  0
 22 24  4  0  0  0  0
 24 25  4  0  0  0  0
 25 26  4  0  0  0  0
 27 28  1  0  0  0  0
 27 32  1  0  0  0  0
 28 29  1  0  0  0  0
 29 30  1  0  0  0  0
 30 31  1  0  0  0  0
 30 33  1  0  0  0  0
 31 32  1  0  0  0  0
 33 34  1  0  0  0  0
 34 35  1  0  0  0  0
 34 36  1  0  0  0  0
 34 37  1  0  0  0  0
M  END
>  <Name_Molregno>
357533

>  <DOPAMINE D1>
6.35

>  <DOPAMINE D2>
5.52

$$$$
357534
  Marvin  02231216192D 0   1.00000     0.00000     0

 32 37  0  0  0  0  0  0  0  0999 V2000
   -0.4025   -2.7059    0.0000 Cl  0  0  0  0  0  0  0  0  0
    0.3858   -2.9490    0.0000 C   0  0  0  0  0  0  0  0  0
    0.9906   -2.3879    0.0000 C   0  0  0  0  0  0  0  0  0
    1.7789   -2.6311    0.0000 C   0  0  0  0  0  0  0  0  0
    2.2933   -1.9860    0.0000 N   0  0  0  0  0  0  0  0  0
    3.1183   -1.9860    0.0000 C   0  0  0  0  0  0  0  0  0
    3.4763   -1.2427    0.0000 N   0  0  0  0  0  0  0  0  0
    3.0115   -0.5611    0.0000 C   0  0  0  0  0  0  0  0  0
    3.3695    0.1822    0.0000 C   0  0  0  0  0  0  0  0  0
    4.1922    0.2439    0.0000 N   0  0  0  0  0  0  0  0  0
    4.6569   -0.4378    0.0000 C   0  0  0  0  0  0  0  0  0
    4.2990   -1.1811    0.0000 C   0  0  0  0  0  0  0  0  0
    4.5501    0.9872    0.0000 C   0  0  0  0  0  0  0  0  0
    5.3728    1.0488    0.0000 C   0  0  0  0  0  0  0  0  0
    5.7308    1.7921    0.0000 C   0  0  0  0  0  0  0  0  0
    5.4179    2.5555    0.0000 O   0  0  0  0  0  0  0  0  0
    6.0473    3.0889    0.0000 C   0  0  0  0  0  0  0  0  0
    6.7491    2.6552    0.0000 O   0  0  0  0  0  0  0  0  0
    6.5535    1.8538    0.0000 C   0  0  0  0  0  0  0  0  0
    7.0182    1.1721    0.0000 C   0  0  0  0  0  0  0  0  0
    6.6603    0.4288    0.0000 C   0  0  0  0  0  0  0  0  0
    5.8376    0.3672    0.0000 C   0  0  0  0  0  0  0  0  0
    3.6327   -2.6311    0.0000 C   0  0  0  0  0  0  0  0  0
    3.4491   -3.4354    0.0000 C   0  0  0  0  0  0  0  0  0
    2.7058   -3.7933    0.0000 N   0  0  0  0  0  0  0  0  0
    1.9625   -3.4354    0.0000 C   0  0  0  0  0  0  0  0  0
    1.3577   -3.9965    0.0000 C   0  0  0  0  0  0  0  0  0
    0.5694   -3.7533    0.0000 C   0  0  0  0  0  0  0  0  0
    4.0539   -3.9965    0.0000 C   0  0  0  0  0  0  0  0  0
    4.8422   -3.7533    0.0000 C   0  0  0  0  0  0  0  0  0
    5.0258   -2.9490    0.0000 C   0  0  0  0  0  0  0  0  0
    4.4210   -2.3879    0.0000 C   0  0  0  0  0  0  0  0  0
  1  2  1  0  0  0  0
  2  3  4  0  0  0  0
  2 28  4  0  0  0  0
  3  4  4  0  0  0  0
  4  5  1  0  0  0  0
  4 26  4  0  0  0  0
  5  6  2  0  0  0  0
  6  7  1  0  0  0  0
  6 23  1  0  0  0  0
  7  8  1  0  0  0  0
  7 12  1  0  0  0  0
  8  9  1  0  0  0  0
  9 10  1  0  0  0  0
 10 11  1  0  0  0  0
 10 13  1  0  0  0  0
 11 12  1  0  0  0  0
 13 14  1  0  0  0  0
 14 15  4  0  0  0  0
 14 22  4  0  0  0  0
 15 16  1  0  0  0  0
 15 19  4  0  0  0  0
 16 17  1  0  0  0  0
 17 18  1  0  0  0  0
 18 19  1  0  0  0  0
 19 20  4  0  0  0  0
 20 21  4  0  0  0  0
 21 22  4  0  0  0  0
 23 24  4  0  0  0  0
 23 32  4  0  0  0  0
 24 25  1  0  0  0  0
 24 29  4  0  0  0  0
 25 26  1  0  0  0  0
 26 27  4  0  0  0  0
 27 28  4  0  0  0  0
 29 30  4  0  0  0  0
 30 31  4  0  0  0  0
 31 32  4  0  0  0  0
M  END
>  <Name_Molregno>
357534

>  <DOPAMINE D1>
6.2

>  <DOPAMINE D2>
7.1

$$$$
357571
  Marvin  02231216192D 0   1.00000     0.00000     0

 38 42  0  0  0  0  0  0  0  0999 V2000
    1.2924    2.7489    0.0000 Cl  0  0  0  0  0  0  0  0  0
    2.0069    3.1614    0.0000 C   0  0  0  0  0  0  0  0  0
    2.0069    3.9864    0.0000 C   0  0  0  0  0  0  0  0  0
    2.7214    4.3989    0.0000 C   0  0  0  0  0  0  0  0  0
    3.4359    3.9864    0.0000 C   0  0  0  0  0  0  0  0  0
    3.4359    3.1614    0.0000 C   0  0  0  0  0  0  0  0  0
    2.7214    2.7489    0.0000 C   0  0  0  0  0  0  0  0  0
    2.7214    1.9239    0.0000 C   0  0  0  0  0  0  0  0  0
    2.0069    1.5114    0.0000 O   0  0  0  0  0  0  0  0  0
    3.4359    1.5114    0.0000 N   0  0  0  0  0  0  0  0  0
    3.4359    0.6864    0.0000 N   0  0  0  0  0  0  0  0  0
    4.1792    0.3284    0.0000 C   0  0  0  0  0  0  0  0  0
    4.3627   -0.4759    0.0000 C   0  0  0  0  0  0  0  0  0
    5.1511   -0.7191    0.0000 C   0  0  0  0  0  0  0  0  0
    5.7558   -0.1579    0.0000 C   0  0  0  0  0  0  0  0  0
    5.5723    0.6464    0.0000 C   0  0  0  0  0  0  0  0  0
    4.7839    0.8896    0.0000 C   0  0  0  0  0  0  0  0  0
    3.8484   -1.1209    0.0000 C   0  0  0  0  0  0  0  0  0
    3.0234   -1.1209    0.0000 N   0  0  0  0  0  0  0  0  0
    2.5090   -0.4759    0.0000 C   0  0  0  0  0  0  0  0  0
    1.7206   -0.7191    0.0000 C   0  0  0  0  0  0  0  0  0
    1.1159   -0.1579    0.0000 C   0  0  0  0  0  0  0  0  0
    0.3275   -0.4011    0.0000 Cl  0  0  0  0  0  0  0  0  0
    1.2994    0.6464    0.0000 C   0  0  0  0  0  0  0  0  0
    2.0878    0.8896    0.0000 C   0  0  0  0  0  0  0  0  0
    2.6926    0.3284    0.0000 C   0  0  0  0  0  0  0  0  0
    4.2063   -1.8642    0.0000 N   0  0  0  0  0  0  0  0  0
    5.0290   -1.9259    0.0000 C   0  0  0  0  0  0  0  0  0
    5.3870   -2.6692    0.0000 C   0  0  0  0  0  0  0  0  0
    4.9222   -3.3508    0.0000 N   0  0  0  0  0  0  0  0  0
    4.0995   -3.2892    0.0000 C   0  0  0  0  0  0  0  0  0
    3.7416   -2.5459    0.0000 C   0  0  0  0  0  0  0  0  0
    5.2802   -4.0941    0.0000 C   0  0  0  0  0  0  0  0  0
    6.1029   -4.1558    0.0000 C   0  0  0  0  0  0  0  0  0
    6.4608   -4.8991    0.0000 C   0  0  0  0  0  0  0  0  0
    7.2835   -4.9607    0.0000 C   0  0  0  0  0  0  0  0  0
    6.5676   -3.4741    0.0000 C   0  0  0  0  0  0  0  0  0
    7.3903   -3.5358    0.0000 C   0  0  0  0  0  0  0  0  0
  1  2  1  0  0  0  0
  2  3  4  0  0  0  0
  2  7  4  0  0  0  0
  3  4  4  0  0  0  0
  4  5  4  0  0  0  0
  5  6  4  0  0  0  0
  6  7  4  0  0  0  0
  7  8  1  0  0  0  0
  8  9  2  0  0  0  0
  8 10  1  0  0  0  0
 10 11  1  0  0  0  0
 11 12  1  0  0  0  0
 11 26  1  0  0  0  0
 12 13  4  0  0  0  0
 12 17  4  0  0  0  0
 13 14  4  0  0  0  0
 13 18  1  0  0  0  0
 14 15  4  0  0  0  0
 15 16  4  0  0  0  0
 16 17  4  0  0  0  0
 18 19  2  0  0  0  0
 18 27  1  0  0  0  0
 19 20  1  0  0  0  0
 20 21  4  0  0  0  0
 20 26  4  0  0  0  0
 21 22  4  0  0  0  0
 22 23  1  0  0  0  0
 22 24  4  0  0  0  0
 24 25  4  0  0  0  0
 25 26  4  0  0  0  0
 27 28  1  0  0  0  0
 27 32  1  0  0  0  0
 28 29  1  0  0  0  0
 29 30  1  0  0  0  0
 30 31  1  0  0  0  0
 30 33  1  0  0  0  0
 31 32  1  0  0  0  0
 33 34  1  0  0  0  0
 34 35  1  0  0  0  0
 34 37  1  0  0  0  0
 35 36  1  0  0  0  0
 37 38  1  0  0  0  0
M  END
>  <Name_Molregno>
357571

>  <DOPAMINE D1>
6.3

>  <DOPAMINE D2>
5.52

$$$$
357572
  Marvin  02231216192D 0   1.00000     0.00000     0

 31 35  0  0  0  0  0  0  0  0999 V2000
   -3.3362   -5.0464    0.0000 Cl  0  0  0  0  0  0  0  0  0
   -2.5478   -5.2896    0.0000 C   0  0  0  0  0  0  0  0  0
   -1.9430   -4.7285    0.0000 C   0  0  0  0  0  0  0  0  0
   -1.1547   -4.9716    0.0000 C   0  0  0  0  0  0  0  0  0
   -0.6403   -4.3266    0.0000 N   0  0  0  0  0  0  0  0  0
    0.1847   -4.3266    0.0000 C   0  0  0  0  0  0  0  0  0
    0.5426   -3.5833    0.0000 N   0  0  0  0  0  0  0  0  0
    0.0779   -2.9017    0.0000 C   0  0  0  0  0  0  0  0  0
    0.4359   -2.1584    0.0000 C   0  0  0  0  0  0  0  0  0
    1.2586   -2.0967    0.0000 N   0  0  0  0  0  0  0  0  0
    1.7233   -2.7784    0.0000 C   0  0  0  0  0  0  0  0  0
    1.3653   -3.5217    0.0000 C   0  0  0  0  0  0  0  0  0
    1.6165   -1.3534    0.0000 C   0  0  0  0  0  0  0  0  0
    2.4392   -1.2918    0.0000 C   0  0  0  0  0  0  0  0  0
    2.7972   -0.5485    0.0000 C   0  0  0  0  0  0  0  0  0
    3.6198   -0.4868    0.0000 C   0  0  0  0  0  0  0  0  0
    4.0846   -1.1685    0.0000 C   0  0  0  0  0  0  0  0  0
    3.7266   -1.9118    0.0000 C   0  0  0  0  0  0  0  0  0
    2.9039   -1.9734    0.0000 C   0  0  0  0  0  0  0  0  0
    2.5460   -2.7167    0.0000 C   0  0  0  0  0  0  0  0  0
    4.9073   -1.1068    0.0000 C   0  0  0  0  0  0  0  0  0
    0.6991   -4.9716    0.0000 C   0  0  0  0  0  0  0  0  0
    0.5155   -5.7759    0.0000 C   0  0  0  0  0  0  0  0  0
   -0.2278   -6.1339    0.0000 N   0  0  0  0  0  0  0  0  0
   -0.9711   -5.7759    0.0000 C   0  0  0  0  0  0  0  0  0
   -1.5759   -6.3371    0.0000 C   0  0  0  0  0  0  0  0  0
   -2.3642   -6.0939    0.0000 C   0  0  0  0  0  0  0  0  0
    1.1203   -6.3371    0.0000 C   0  0  0  0  0  0  0  0  0
    1.9086   -6.0939    0.0000 C   0  0  0  0  0  0  0  0  0
    2.0922   -5.2896    0.0000 C   0  0  0  0  0  0  0  0  0
    1.4874   -4.7285    0.0000 C   0  0  0  0  0  0  0  0  0
  1  2  1  0  0  0  0
  2  3  4  0  0  0  0
  2 27  4  0  0  0  0
  3  4  4  0  0  0  0
  4  5  1  0  0  0  0
  4 25  4  0  0  0  0
  5  6  2  0  0  0  0
  6  7  1  0  0  0  0
  6 22  1  0  0  0  0
  7  8  1  0  0  0  0
  7 12  1  0  0  0  0
  8  9  1  0  0  0  0
  9 10  1  0  0  0  0
 10 11  1  0  0  0  0
 10 13  1  0  0  0  0
 11 12  1  0  0  0  0
 13 14  1  0  0  0  0
 14 15  4  0  0  0  0
 14 19  4  0  0  0  0
 15 16  4  0  0  0  0
 16 17  4  0  0  0  0
 17 18  4  0  0  0  0
 17 21  1  0  0  0  0
 18 19  4  0  0  0  0
 19 20  1  0  0  0  0
 22 23  4  0  0  0  0
 22 31  4  0  0  0  0
 23 24  1  0  0  0  0
 23 28  4  0  0  0  0
 24 25  1  0  0  0  0
 25 26  4  0  0  0  0
 26 27  4  0  0  0  0
 28 29  4  0  0  0  0
 29 30  4  0  0  0  0
 30 31  4  0  0  0  0
M  END
>  <Name_Molregno>
357572

>  <DOPAMINE D1>
6.32

>  <DOPAMINE D2>
7.19

$$$$
357597
  Marvin  02231216192D 0   1.00000     0.00000     0

 35 40  0  0  0  0  0  0  0  0999 V2000
   -4.9652   -2.3515    0.0000 Cl  0  0  0  0  0  0  0  0  0
   -4.1769   -2.5947    0.0000 C   0  0  0  0  0  0  0  0  0
   -3.5721   -2.0336    0.0000 C   0  0  0  0  0  0  0  0  0
   -2.7838   -2.2767    0.0000 C   0  0  0  0  0  0  0  0  0
   -2.2694   -1.6317    0.0000 N   0  0  0  0  0  0  0  0  0
   -1.4444   -1.6317    0.0000 C   0  0  0  0  0  0  0  0  0
   -1.0865   -0.8884    0.0000 N   0  0  0  0  0  0  0  0  0
   -1.5512   -0.2068    0.0000 C   0  0  0  0  0  0  0  0  0
   -1.1932    0.5365    0.0000 C   0  0  0  0  0  0  0  0  0
   -0.3705    0.5982    0.0000 N   0  0  0  0  0  0  0  0  0
    0.0942   -0.0835    0.0000 C   0  0  0  0  0  0  0  0  0
   -0.2638   -0.8268    0.0000 C   0  0  0  0  0  0  0  0  0
   -0.0126    1.3415    0.0000 C   0  0  0  0  0  0  0  0  0
   -0.9300   -2.2767    0.0000 C   0  0  0  0  0  0  0  0  0
   -1.1136   -3.0811    0.0000 C   0  0  0  0  0  0  0  0  0
   -1.8569   -3.4390    0.0000 N   0  0  0  0  0  0  0  0  0
   -1.8569   -4.2640    0.0000 N   0  0  0  0  0  0  0  0  0
   -1.1424   -4.6765    0.0000 C   0  0  0  0  0  0  0  0  0
   -0.4280   -4.2640    0.0000 O   0  0  0  0  0  0  0  0  0
   -1.1424   -5.5015    0.0000 C   0  0  0  0  0  0  0  0  0
   -0.4280   -5.9140    0.0000 C   0  0  0  0  0  0  0  0  0
   -0.4280   -6.7390    0.0000 C   0  0  0  0  0  0  0  0  0
    0.1851   -7.2910    0.0000 O   0  0  0  0  0  0  0  0  0
   -0.1504   -8.0447    0.0000 C   0  0  0  0  0  0  0  0  0
   -0.9709   -7.9585    0.0000 O   0  0  0  0  0  0  0  0  0
   -1.1424   -7.1515    0.0000 C   0  0  0  0  0  0  0  0  0
   -1.8569   -6.7390    0.0000 C   0  0  0  0  0  0  0  0  0
   -1.8569   -5.9140    0.0000 C   0  0  0  0  0  0  0  0  0
   -2.6002   -3.0811    0.0000 C   0  0  0  0  0  0  0  0  0
   -3.2050   -3.6422    0.0000 C   0  0  0  0  0  0  0  0  0
   -3.9933   -3.3990    0.0000 C   0  0  0  0  0  0  0  0  0
   -0.5088   -3.6422    0.0000 C   0  0  0  0  0  0  0  0  0
    0.2795   -3.3990    0.0000 C   0  0  0  0  0  0  0  0  0
    0.4631   -2.5947    0.0000 C   0  0  0  0  0  0  0  0  0
   -0.1417   -2.0336    0.0000 C   0  0  0  0  0  0  0  0  0
  1  2  1  0  0  0  0
  2  3  4  0  0  0  0
  2 31  4  0  0  0  0
  3  4  4  0  0  0  0
  4  5  1  0  0  0  0
  4 29  4  0  0  0  0
  5  6  2  0  0  0  0
  6  7  1  0  0  0  0
  6 14  1  0  0  0  0
  7  8  1  0  0  0  0
  7 12  1  0  0  0  0
  8  9  1  0  0  0  0
  9 10  1  0  0  0  0
 10 11  1  0  0  0  0
 10 13  1  0  0  0  0
 11 12  1  0  0  0  0
 14 15  4  0  0  0  0
 14 35  4  0  0  0  0
 15 16  1  0  0  0  0
 15 32  4  0  0  0  0
 16 17  1  0  0  0  0
 16 29  1  0  0  0  0
 17 18  1  0  0  0  0
 18 19  2  0  0  0  0
 18 20  1  0  0  0  0
 20 21  4  0  0  0  0
 20 28  4  0  0  0  0
 21 22  4  0  0  0  0
 22 23  1  0  0  0  0
 22 26  4  0  0  0  0
 23 24  1  0  0  0  0
 24 25  1  0  0  0  0
 25 26  1  0  0  0  0
 26 27  4  0  0  0  0
 27 28  4  0  0  0  0
 29 30  4  0  0  0  0
 30 31  4  0  0  0  0
 32 33  4  0  0  0  0
 33 34  4  0  0  0  0
 34 35  4  0  0  0  0
M  END
>  <Name_Molregno>
357597

>  <DOPAMINE D1>
7.25

>  <DOPAMINE D2>
6.08

$$$$
357599
  Marvin  02231216192D 0   1.00000     0.00000     0

 32 36  0  0  0  0  0  0  0  0999 V2000
   -3.9655   -2.8233    0.0000 Cl  0  0  0  0  0  0  0  0  0
   -3.1771   -3.0665    0.0000 C   0  0  0  0  0  0  0  0  0
   -2.5724   -2.5053    0.0000 C   0  0  0  0  0  0  0  0  0
   -1.7840   -2.7485    0.0000 C   0  0  0  0  0  0  0  0  0
   -1.2696   -2.1035    0.0000 N   0  0  0  0  0  0  0  0  0
   -0.4446   -2.1035    0.0000 C   0  0  0  0  0  0  0  0  0
   -0.0867   -1.3602    0.0000 N   0  0  0  0  0  0  0  0  0
   -0.5514   -0.6785    0.0000 C   0  0  0  0  0  0  0  0  0
   -0.1935    0.0648    0.0000 C   0  0  0  0  0  0  0  0  0
    0.6292    0.1264    0.0000 N   0  0  0  0  0  0  0  0  0
    1.0940   -0.5552    0.0000 C   0  0  0  0  0  0  0  0  0
    0.7360   -1.2985    0.0000 C   0  0  0  0  0  0  0  0  0
    0.9872    0.8697    0.0000 C   0  0  0  0  0  0  0  0  0
    0.0697   -2.7485    0.0000 C   0  0  0  0  0  0  0  0  0
   -0.1138   -3.5528    0.0000 C   0  0  0  0  0  0  0  0  0
   -0.8571   -3.9108    0.0000 N   0  0  0  0  0  0  0  0  0
   -0.8571   -4.7358    0.0000 N   0  0  0  0  0  0  0  0  0
   -0.1427   -5.1483    0.0000 C   0  0  0  0  0  0  0  0  0
    0.5718   -4.7358    0.0000 O   0  0  0  0  0  0  0  0  0
   -0.1427   -5.9733    0.0000 C   0  0  0  0  0  0  0  0  0
    0.5718   -6.3858    0.0000 C   0  0  0  0  0  0  0  0  0
    0.5718   -7.2108    0.0000 C   0  0  0  0  0  0  0  0  0
   -0.1427   -7.6233    0.0000 C   0  0  0  0  0  0  0  0  0
   -0.8571   -7.2108    0.0000 N   0  0  0  0  0  0  0  0  0
   -0.8571   -6.3858    0.0000 C   0  0  0  0  0  0  0  0  0
   -1.6004   -3.5528    0.0000 C   0  0  0  0  0  0  0  0  0
   -2.2052   -4.1139    0.0000 C   0  0  0  0  0  0  0  0  0
   -2.9936   -3.8708    0.0000 C   0  0  0  0  0  0  0  0  0
    0.4909   -4.1139    0.0000 C   0  0  0  0  0  0  0  0  0
    1.2793   -3.8708    0.0000 C   0  0  0  0  0  0  0  0  0
    1.4629   -3.0665    0.0000 C   0  0  0  0  0  0  0  0  0
    0.8581   -2.5053    0.0000 C   0  0  0  0  0  0  0  0  0
  1  2  1  0  0  0  0
  2  3  4  0  0  0  0
  2 28  4  0  0  0  0
  3  4  4  0  0  0  0
  4  5  1  0  0  0  0
  4 26  4  0  0  0  0
  5  6  2  0  0  0  0
  6  7  1  0  0  0  0
  6 14  1  0  0  0  0
  7  8  1  0  0  0  0
  7 12  1  0  0  0  0
  8  9  1  0  0  0  0
  9 10  1  0  0  0  0
 10 11  1  0  0  0  0
 10 13  1  0  0  0  0
 11 12  1  0  0  0  0
 14 15  4  0  0  0  0
 14 32  4  0  0  0  0
 15 16  1  0  0  0  0
 15 29  4  0  0  0  0
 16 17  1  0  0  0  0
 16 26  1  0  0  0  0
 17 18  1  0  0  0  0
 18 19  2  0  0  0  0
 18 20  1  0  0  0  0
 20 21  4  0  0  0  0
 20 25  4  0  0  0  0
 21 22  4  0  0  0  0
 22 23  4  0  0  0  0
 23 24  4  0  0  0  0
 24 25  4  0  0  0  0
 26 27  4  0  0  0  0
 27 28  4  0  0  0  0
 29 30  4  0  0  0  0
 30 31  4  0  0  0  0
 31 32  4  0  0  0  0
M  END
>  <Name_Molregno>
357599

>  <DOPAMINE D1>
7.07

>  <DOPAMINE D2>
4.9

$$$$
357600
  Marvin  02231216192D 0   1.00000     0.00000     0

 39 44  0  0  0  0  0  0  0  0999 V2000
   -5.4795    1.2070    0.0000 Cl  0  0  0  0  0  0  0  0  0
   -4.7650    1.6195    0.0000 C   0  0  0  0  0  0  0  0  0
   -4.7650    2.4445    0.0000 C   0  0  0  0  0  0  0  0  0
   -4.0505    2.8570    0.0000 C   0  0  0  0  0  0  0  0  0
   -3.3361    2.4445    0.0000 C   0  0  0  0  0  0  0  0  0
   -3.3361    1.6195    0.0000 C   0  0  0  0  0  0  0  0  0
   -4.0505    1.2070    0.0000 C   0  0  0  0  0  0  0  0  0
   -4.0505    0.3820    0.0000 C   0  0  0  0  0  0  0  0  0
   -4.7650   -0.0305    0.0000 O   0  0  0  0  0  0  0  0  0
   -3.3361   -0.0305    0.0000 N   0  0  0  0  0  0  0  0  0
   -3.3361   -0.8555    0.0000 N   0  0  0  0  0  0  0  0  0
   -2.5928   -1.2134    0.0000 C   0  0  0  0  0  0  0  0  0
   -2.4092   -2.0177    0.0000 C   0  0  0  0  0  0  0  0  0
   -1.6208   -2.2609    0.0000 C   0  0  0  0  0  0  0  0  0
   -1.0161   -1.6998    0.0000 C   0  0  0  0  0  0  0  0  0
   -1.1996   -0.8954    0.0000 C   0  0  0  0  0  0  0  0  0
   -1.9880   -0.6523    0.0000 C   0  0  0  0  0  0  0  0  0
   -2.9236   -2.6627    0.0000 C   0  0  0  0  0  0  0  0  0
   -3.7486   -2.6627    0.0000 N   0  0  0  0  0  0  0  0  0
   -4.2629   -2.0177    0.0000 C   0  0  0  0  0  0  0  0  0
   -5.0513   -2.2609    0.0000 C   0  0  0  0  0  0  0  0  0
   -5.6560   -1.6998    0.0000 C   0  0  0  0  0  0  0  0  0
   -6.4444   -1.9429    0.0000 Cl  0  0  0  0  0  0  0  0  0
   -5.4725   -0.8954    0.0000 C   0  0  0  0  0  0  0  0  0
   -4.6841   -0.6523    0.0000 C   0  0  0  0  0  0  0  0  0
   -4.0794   -1.2134    0.0000 C   0  0  0  0  0  0  0  0  0
   -2.5656   -3.4060    0.0000 N   0  0  0  0  0  0  0  0  0
   -1.7429   -3.4677    0.0000 C   0  0  0  0  0  0  0  0  0
   -1.3850   -4.2110    0.0000 C   0  0  0  0  0  0  0  0  0
   -1.8497   -4.8926    0.0000 N   0  0  0  0  0  0  0  0  0
   -2.6724   -4.8310    0.0000 C   0  0  0  0  0  0  0  0  0
   -3.0303   -4.0877    0.0000 C   0  0  0  0  0  0  0  0  0
   -1.4917   -5.6359    0.0000 C   0  0  0  0  0  0  0  0  0
   -1.9565   -6.3176    0.0000 C   0  0  0  0  0  0  0  0  0
   -1.5985   -7.0609    0.0000 C   0  0  0  0  0  0  0  0  0
   -2.0633   -7.7425    0.0000 C   0  0  0  0  0  0  0  0  0
   -2.8860   -7.6809    0.0000 C   0  0  0  0  0  0  0  0  0
   -3.2439   -6.9376    0.0000 C   0  0  0  0  0  0  0  0  0
   -2.7792   -6.2559    0.0000 C   0  0  0  0  0  0  0  0  0
  1  2  1  0  0  0  0
  2  3  4  0  0  0  0
  2  7  4  0  0  0  0
  3  4  4  0  0  0  0
  4  5  4  0  0  0  0
  5  6  4  0  0  0  0
  6  7  4  0  0  0  0
  7  8  1  0  0  0  0
  8  9  2  0  0  0  0
  8 10  1  0  0  0  0
 10 11  1  0  0  0  0
 11 12  1  0  0  0  0
 11 26  1  0  0  0  0
 12 13  4  0  0  0  0
 12 17  4  0  0  0  0
 13 14  4  0  0  0  0
 13 18  1  0  0  0  0
 14 15  4  0  0  0  0
 15 16  4  0  0  0  0
 16 17  4  0  0  0  0
 18 19  2  0  0  0  0
 18 27  1  0  0  0  0
 19 20  1  0  0  0  0
 20 21  4  0  0  0  0
 20 26  4  0  0  0  0
 21 22  4  0  0  0  0
 22 23  1  0  0  0  0
 22 24  4  0  0  0  0
 24 25  4  0  0  0  0
 25 26  4  0  0  0  0
 27 28  1  0  0  0  0
 27 32  1  0  0  0  0
 28 29  1  0  0  0  0
 29 30  1  0  0  0  0
 30 31  1  0  0  0  0
 30 33  1  0  0  0  0
 31 32  1  0  0  0  0
 33 34  1  0  0  0  0
 34 35  1  0  0  0  0
 34 39  1  0  0  0  0
 35 36  1  0  0  0  0
 36 37  1  0  0  0  0
 37 38  1  0  0  0  0
 38 39  1  0  0  0  0
M  END
>  <Name_Molregno>
357600

>  <DOPAMINE D1>
6.53

>  <DOPAMINE D2>
5.52

$$$$
357606
  Marvin  02231216192D 0   1.00000     0.00000     0

 33 37  0  0  0  0  0  0  0  0999 V2000
    5.4298   -1.1252    0.0000 Cl  0  0  0  0  0  0  0  0  0
    4.6415   -1.3684    0.0000 C   0  0  0  0  0  0  0  0  0
    4.0367   -0.8073    0.0000 C   0  0  0  0  0  0  0  0  0
    3.2484   -1.0504    0.0000 C   0  0  0  0  0  0  0  0  0
    3.0648   -1.8547    0.0000 C   0  0  0  0  0  0  0  0  0
    2.3215   -2.2127    0.0000 N   0  0  0  0  0  0  0  0  0
    2.3215   -3.0377    0.0000 N   0  0  0  0  0  0  0  0  0
    1.6070   -3.4502    0.0000 C   0  0  0  0  0  0  0  0  0
    0.8925   -3.0377    0.0000 O   0  0  0  0  0  0  0  0  0
    1.6070   -4.2752    0.0000 C   0  0  0  0  0  0  0  0  0
    2.3215   -4.6877    0.0000 C   0  0  0  0  0  0  0  0  0
    2.3215   -5.5127    0.0000 C   0  0  0  0  0  0  0  0  0
    1.6070   -5.9252    0.0000 C   0  0  0  0  0  0  0  0  0
    0.8925   -5.5127    0.0000 C   0  0  0  0  0  0  0  0  0
    0.8925   -4.6877    0.0000 C   0  0  0  0  0  0  0  0  0
    0.1781   -4.2752    0.0000 C   0  0  0  0  0  0  0  0  0
    1.5782   -1.8547    0.0000 C   0  0  0  0  0  0  0  0  0
    1.3946   -1.0504    0.0000 C   0  0  0  0  0  0  0  0  0
    1.9090   -0.4054    0.0000 N   0  0  0  0  0  0  0  0  0
    2.7340   -0.4054    0.0000 C   0  0  0  0  0  0  0  0  0
    3.0919    0.3379    0.0000 N   0  0  0  0  0  0  0  0  0
    2.6272    1.0195    0.0000 C   0  0  0  0  0  0  0  0  0
    2.9851    1.7628    0.0000 C   0  0  0  0  0  0  0  0  0
    3.8078    1.8245    0.0000 N   0  0  0  0  0  0  0  0  0
    4.2726    1.1428    0.0000 C   0  0  0  0  0  0  0  0  0
    3.9146    0.3995    0.0000 C   0  0  0  0  0  0  0  0  0
    4.1658    2.5678    0.0000 C   0  0  0  0  0  0  0  0  0
    0.6063   -0.8073    0.0000 C   0  0  0  0  0  0  0  0  0
    0.0015   -1.3684    0.0000 C   0  0  0  0  0  0  0  0  0
    0.1851   -2.1727    0.0000 C   0  0  0  0  0  0  0  0  0
    0.9734   -2.4159    0.0000 C   0  0  0  0  0  0  0  0  0
    3.6695   -2.4159    0.0000 C   0  0  0  0  0  0  0  0  0
    4.4579   -2.1727    0.0000 C   0  0  0  0  0  0  0  0  0
  1  2  1  0  0  0  0
  2  3  4  0  0  0  0
  2 33  4  0  0  0  0
  3  4  4  0  0  0  0
  4  5  4  0  0  0  0
  4 20  1  0  0  0  0
  5  6  1  0  0  0  0
  5 32  4  0  0  0  0
  6  7  1  0  0  0  0
  6 17  1  0  0  0  0
  7  8  1  0  0  0  0
  8  9  2  0  0  0  0
  8 10  1  0  0  0  0
 10 11  4  0  0  0  0
 10 15  4  0  0  0  0
 11 12  4  0  0  0  0
 12 13  4  0  0  0  0
 13 14  4  0  0  0  0
 14 15  4  0  0  0  0
 15 16  1  0  0  0  0
 17 18  4  0  0  0  0
 17 31  4  0  0  0  0
 18 19  1  0  0  0  0
 18 28  4  0  0  0  0
 19 20  2  0  0  0  0
 20 21  1  0  0  0  0
 21 22  1  0  0  0  0
 21 26  1  0  0  0  0
 22 23  1  0  0  0  0
 23 24  1  0  0  0  0
 24 25  1  0  0  0  0
 24 27  1  0  0  0  0
 25 26  1  0  0  0  0
 28 29  4  0  0  0  0
 29 30  4  0  0  0  0
 30 31  4  0  0  0  0
 32 33  4  0  0  0  0
M  END
>  <Name_Molregno>
357606

>  <DOPAMINE D1>
7.32

>  <DOPAMINE D2>
5.8

$$$$
357626
  Marvin  02231216192D 0   1.00000     0.00000     0

 37 41  0  0  0  0  0  0  0  0999 V2000
   -4.6157   -2.5270    0.0000 Cl  0  0  0  0  0  0  0  0  0
   -3.8274   -2.7702    0.0000 C   0  0  0  0  0  0  0  0  0
   -3.2226   -2.2090    0.0000 C   0  0  0  0  0  0  0  0  0
   -2.4342   -2.4522    0.0000 C   0  0  0  0  0  0  0  0  0
   -1.9199   -1.8072    0.0000 N   0  0  0  0  0  0  0  0  0
   -1.0949   -1.8072    0.0000 C   0  0  0  0  0  0  0  0  0
   -0.7369   -1.0639    0.0000 N   0  0  0  0  0  0  0  0  0
   -1.2017   -0.3823    0.0000 C   0  0  0  0  0  0  0  0  0
   -0.8437    0.3610    0.0000 C   0  0  0  0  0  0  0  0  0
   -0.0210    0.4227    0.0000 N   0  0  0  0  0  0  0  0  0
    0.4437   -0.2590    0.0000 C   0  0  0  0  0  0  0  0  0
    0.0858   -1.0023    0.0000 C   0  0  0  0  0  0  0  0  0
    0.3369    1.1660    0.0000 C   0  0  0  0  0  0  0  0  0
   -0.5805   -2.4522    0.0000 C   0  0  0  0  0  0  0  0  0
   -0.7641   -3.2565    0.0000 C   0  0  0  0  0  0  0  0  0
   -1.5074   -3.6145    0.0000 N   0  0  0  0  0  0  0  0  0
   -1.5074   -4.4395    0.0000 N   0  0  0  0  0  0  0  0  0
   -0.7929   -4.8520    0.0000 C   0  0  0  0  0  0  0  0  0
   -0.0784   -4.4395    0.0000 O   0  0  0  0  0  0  0  0  0
   -0.7929   -5.6770    0.0000 C   0  0  0  0  0  0  0  0  0
   -0.0784   -6.0895    0.0000 C   0  0  0  0  0  0  0  0  0
   -0.0784   -6.9145    0.0000 C   0  0  0  0  0  0  0  0  0
   -0.7929   -7.3270    0.0000 C   0  0  0  0  0  0  0  0  0
   -0.7929   -8.1520    0.0000 F   0  0  0  0  0  0  0  0  0
   -1.5074   -6.9145    0.0000 C   0  0  0  0  0  0  0  0  0
   -1.5074   -6.0895    0.0000 C   0  0  0  0  0  0  0  0  0
   -2.2218   -5.6770    0.0000 C   0  0  0  0  0  0  0  0  0
   -2.9363   -5.2645    0.0000 F   0  0  0  0  0  0  0  0  0
   -2.6343   -6.3915    0.0000 F   0  0  0  0  0  0  0  0  0
   -1.8093   -4.9625    0.0000 F   0  0  0  0  0  0  0  0  0
   -2.2507   -3.2565    0.0000 C   0  0  0  0  0  0  0  0  0
   -2.8554   -3.8177    0.0000 C   0  0  0  0  0  0  0  0  0
   -3.6438   -3.5745    0.0000 C   0  0  0  0  0  0  0  0  0
   -0.1593   -3.8177    0.0000 C   0  0  0  0  0  0  0  0  0
    0.6290   -3.5745    0.0000 C   0  0  0  0  0  0  0  0  0
    0.8126   -2.7702    0.0000 C   0  0  0  0  0  0  0  0  0
    0.2079   -2.2090    0.0000 C   0  0  0  0  0  0  0  0  0
  1  2  1  0  0  0  0
  2  3  4  0  0  0  0
  2 33  4  0  0  0  0
  3  4  4  0  0  0  0
  4  5  1  0  0  0  0
  4 31  4  0  0  0  0
  5  6  2  0  0  0  0
  6  7  1  0  0  0  0
  6 14  1  0  0  0  0
  7  8  1  0  0  0  0
  7 12  1  0  0  0  0
  8  9  1  0  0  0  0
  9 10  1  0  0  0  0
 10 11  1  0  0  0  0
 10 13  1  0  0  0  0
 11 12  1  0  0  0  0
 14 15  4  0  0  0  0
 14 37  4  0  0  0  0
 15 16  1  0  0  0  0
 15 34  4  0  0  0  0
 16 17  1  0  0  0  0
 16 31  1  0  0  0  0
 17 18  1  0  0  0  0
 18 19  2  0  0  0  0
 18 20  1  0  0  0  0
 20 21  4  0  0  0  0
 20 26  4  0  0  0  0
 21 22  4  0  0  0  0
 22 23  4  0  0  0  0
 23 24  1  0  0  0  0
 23 25  4  0  0  0  0
 25 26  4  0  0  0  0
 26 27  1  0  0  0  0
 27 28  1  0  0  0  0
 27 29  1  0  0  0  0
 27 30  1  0  0  0  0
 31 32  4  0  0  0  0
 32 33  4  0  0  0  0
 34 35  4  0  0  0  0
 35 36  4  0  0  0  0
 36 37  4  0  0  0  0
M  END
>  <Name_Molregno>
357626

>  <DOPAMINE D1>
7.31

>  <DOPAMINE D2>
5.79

$$$$
357627
  Marvin  02231216192D 0   1.00000     0.00000     0

 32 36  0  0  0  0  0  0  0  0999 V2000
   -3.9655   -2.8233    0.0000 Cl  0  0  0  0  0  0  0  0  0
   -3.1771   -3.0665    0.0000 C   0  0  0  0  0  0  0  0  0
   -2.5724   -2.5053    0.0000 C   0  0  0  0  0  0  0  0  0
   -1.7840   -2.7485    0.0000 C   0  0  0  0  0  0  0  0  0
   -1.2696   -2.1035    0.0000 N   0  0  0  0  0  0  0  0  0
   -0.4446   -2.1035    0.0000 C   0  0  0  0  0  0  0  0  0
   -0.0867   -1.3602    0.0000 N   0  0  0  0  0  0  0  0  0
   -0.5514   -0.6785    0.0000 C   0  0  0  0  0  0  0  0  0
   -0.1935    0.0648    0.0000 C   0  0  0  0  0  0  0  0  0
    0.6292    0.1264    0.0000 N   0  0  0  0  0  0  0  0  0
    1.0940   -0.5552    0.0000 C   0  0  0  0  0  0  0  0  0
    0.7360   -1.2985    0.0000 C   0  0  0  0  0  0  0  0  0
    0.9872    0.8697    0.0000 C   0  0  0  0  0  0  0  0  0
    0.0697   -2.7485    0.0000 C   0  0  0  0  0  0  0  0  0
   -0.1138   -3.5528    0.0000 C   0  0  0  0  0  0  0  0  0
   -0.8571   -3.9108    0.0000 N   0  0  0  0  0  0  0  0  0
   -0.8571   -4.7358    0.0000 N   0  0  0  0  0  0  0  0  0
   -0.1427   -5.1483    0.0000 C   0  0  0  0  0  0  0  0  0
    0.5718   -4.7358    0.0000 O   0  0  0  0  0  0  0  0  0
   -0.1427   -5.9733    0.0000 C   0  0  0  0  0  0  0  0  0
    0.5718   -6.3858    0.0000 C   0  0  0  0  0  0  0  0  0
    0.5718   -7.2108    0.0000 C   0  0  0  0  0  0  0  0  0
   -0.1427   -7.6233    0.0000 N   0  0  0  0  0  0  0  0  0
   -0.8571   -7.2108    0.0000 C   0  0  0  0  0  0  0  0  0
   -0.8571   -6.3858    0.0000 C   0  0  0  0  0  0  0  0  0
   -1.6004   -3.5528    0.0000 C   0  0  0  0  0  0  0  0  0
   -2.2052   -4.1139    0.0000 C   0  0  0  0  0  0  0  0  0
   -2.9936   -3.8708    0.0000 C   0  0  0  0  0  0  0  0  0
    0.4909   -4.1139    0.0000 C   0  0  0  0  0  0  0  0  0
    1.2793   -3.8708    0.0000 C   0  0  0  0  0  0  0  0  0
    1.4629   -3.0665    0.0000 C   0  0  0  0  0  0  0  0  0
    0.8581   -2.5053    0.0000 C   0  0  0  0  0  0  0  0  0
  1  2  1  0  0  0  0
  2  3  4  0  0  0  0
  2 28  4  0  0  0  0
  3  4  4  0  0  0  0
  4  5  1  0  0  0  0
  4 26  4  0  0  0  0
  5  6  2  0  0  0  0
  6  7  1  0  0  0  0
  6 14  1  0  0  0  0
  7  8  1  0  0  0  0
  7 12  1  0  0  0  0
  8  9  1  0  0  0  0
  9 10  1  0  0  0  0
 10 11  1  0  0  0  0
 10 13  1  0  0  0  0
 11 12  1  0  0  0  0
 14 15  4  0  0  0  0
 14 32  4  0  0  0  0
 15 16  1  0  0  0  0
 15 29  4  0  0  0  0
 16 17  1  0  0  0  0
 16 26  1  0  0  0  0
 17 18  1  0  0  0  0
 18 19  2  0  0  0  0
 18 20  1  0  0  0  0
 20 21  4  0  0  0  0
 20 25  4  0  0  0  0
 21 22  4  0  0  0  0
 22 23  4  0  0  0  0
 23 24  4  0  0  0  0
 24 25  4  0  0  0  0
 26 27  4  0  0  0  0
 27 28  4  0  0  0  0
 29 30  4  0  0  0  0
 30 31  4  0  0  0  0
 31 32  4  0  0  0  0
M  END
>  <Name_Molregno>
357627

>  <DOPAMINE D1>
7.07

>  <DOPAMINE D2>
4.55

$$$$
357628
  Marvin  02231216192D 0   1.00000     0.00000     0

 34 38  0  0  0  0  0  0  0  0999 V2000
    1.1154    2.1401    0.0000 Cl  0  0  0  0  0  0  0  0  0
    1.8299    2.5526    0.0000 C   0  0  0  0  0  0  0  0  0
    1.8299    3.3776    0.0000 C   0  0  0  0  0  0  0  0  0
    2.5443    3.7901    0.0000 C   0  0  0  0  0  0  0  0  0
    3.2588    3.3776    0.0000 C   0  0  0  0  0  0  0  0  0
    3.2588    2.5526    0.0000 C   0  0  0  0  0  0  0  0  0
    2.5443    2.1401    0.0000 C   0  0  0  0  0  0  0  0  0
    2.5443    1.3151    0.0000 C   0  0  0  0  0  0  0  0  0
    1.8299    0.9026    0.0000 O   0  0  0  0  0  0  0  0  0
    3.2588    0.9026    0.0000 N   0  0  0  0  0  0  0  0  0
    3.2588    0.0776    0.0000 N   0  0  0  0  0  0  0  0  0
    4.0021   -0.2804    0.0000 C   0  0  0  0  0  0  0  0  0
    4.1857   -1.0847    0.0000 C   0  0  0  0  0  0  0  0  0
    4.9740   -1.3279    0.0000 C   0  0  0  0  0  0  0  0  0
    5.5788   -0.7667    0.0000 C   0  0  0  0  0  0  0  0  0
    5.3952    0.0376    0.0000 C   0  0  0  0  0  0  0  0  0
    4.6069    0.2808    0.0000 C   0  0  0  0  0  0  0  0  0
    3.6713   -1.7297    0.0000 C   0  0  0  0  0  0  0  0  0
    2.8463   -1.7297    0.0000 N   0  0  0  0  0  0  0  0  0
    2.3319   -1.0847    0.0000 C   0  0  0  0  0  0  0  0  0
    1.5436   -1.3279    0.0000 C   0  0  0  0  0  0  0  0  0
    0.9388   -0.7667    0.0000 C   0  0  0  0  0  0  0  0  0
    0.1505   -1.0099    0.0000 Cl  0  0  0  0  0  0  0  0  0
    1.1224    0.0376    0.0000 C   0  0  0  0  0  0  0  0  0
    1.9107    0.2808    0.0000 C   0  0  0  0  0  0  0  0  0
    2.5155   -0.2804    0.0000 C   0  0  0  0  0  0  0  0  0
    4.0293   -2.4730    0.0000 N   0  0  0  0  0  0  0  0  0
    4.8520   -2.5347    0.0000 C   0  0  0  0  0  0  0  0  0
    5.2099   -3.2780    0.0000 C   0  0  0  0  0  0  0  0  0
    4.7452   -3.9596    0.0000 N   0  0  0  0  0  0  0  0  0
    3.9225   -3.8980    0.0000 C   0  0  0  0  0  0  0  0  0
    3.5645   -3.1547    0.0000 C   0  0  0  0  0  0  0  0  0
    5.1031   -4.7029    0.0000 C   0  0  0  0  0  0  0  0  0
    5.9258   -4.7646    0.0000 C   0  0  0  0  0  0  0  0  0
  1  2  1  0  0  0  0
  2  3  4  0  0  0  0
  2  7  4  0  0  0  0
  3  4  4  0  0  0  0
  4  5  4  0  0  0  0
  5  6  4  0  0  0  0
  6  7  4  0  0  0  0
  7  8  1  0  0  0  0
  8  9  2  0  0  0  0
  8 10  1  0  0  0  0
 10 11  1  0  0  0  0
 11 12  1  0  0  0  0
 11 26  1  0  0  0  0
 12 13  4  0  0  0  0
 12 17  4  0  0  0  0
 13 14  4  0  0  0  0
 13 18  1  0  0  0  0
 14 15  4  0  0  0  0
 15 16  4  0  0  0  0
 16 17  4  0  0  0  0
 18 19  2  0  0  0  0
 18 27  1  0  0  0  0
 19 20  1  0  0  0  0
 20 21  4  0  0  0  0
 20 26  4  0  0  0  0
 21 22  4  0  0  0  0
 22 23  1  0  0  0  0
 22 24  4  0  0  0  0
 24 25  4  0  0  0  0
 25 26  4  0  0  0  0
 27 28  1  0  0  0  0
 27 32  1  0  0  0  0
 28 29  1  0  0  0  0
 29 30  1  0  0  0  0
 30 31  1  0  0  0  0
 30 33  1  0  0  0  0
 31 32  1  0  0  0  0
 33 34  1  0  0  0  0
M  END
>  <Name_Molregno>
357628

>  <DOPAMINE D1>
7.27

>  <DOPAMINE D2>
6.15

$$$$
357629
  Marvin  02231216192D 0   1.00000     0.00000     0

 40 45  0  0  0  0  0  0  0  0999 V2000
   -6.2614    3.2245    0.0000 Cl  0  0  0  0  0  0  0  0  0
   -5.5469    3.6370    0.0000 C   0  0  0  0  0  0  0  0  0
   -5.5469    4.4620    0.0000 C   0  0  0  0  0  0  0  0  0
   -4.8325    4.8745    0.0000 C   0  0  0  0  0  0  0  0  0
   -4.1180    4.4620    0.0000 C   0  0  0  0  0  0  0  0  0
   -4.1180    3.6370    0.0000 C   0  0  0  0  0  0  0  0  0
   -4.8325    3.2245    0.0000 C   0  0  0  0  0  0  0  0  0
   -4.8325    2.3995    0.0000 C   0  0  0  0  0  0  0  0  0
   -5.5469    1.9870    0.0000 O   0  0  0  0  0  0  0  0  0
   -4.1180    1.9870    0.0000 N   0  0  0  0  0  0  0  0  0
   -4.1180    1.1620    0.0000 N   0  0  0  0  0  0  0  0  0
   -3.3747    0.8041    0.0000 C   0  0  0  0  0  0  0  0  0
   -3.1911   -0.0002    0.0000 C   0  0  0  0  0  0  0  0  0
   -2.4028   -0.2434    0.0000 C   0  0  0  0  0  0  0  0  0
   -1.7980    0.3177    0.0000 C   0  0  0  0  0  0  0  0  0
   -1.9816    1.1221    0.0000 C   0  0  0  0  0  0  0  0  0
   -2.7699    1.3652    0.0000 C   0  0  0  0  0  0  0  0  0
   -3.7055   -0.6452    0.0000 C   0  0  0  0  0  0  0  0  0
   -4.5305   -0.6452    0.0000 N   0  0  0  0  0  0  0  0  0
   -5.0449   -0.0002    0.0000 C   0  0  0  0  0  0  0  0  0
   -5.8332   -0.2434    0.0000 C   0  0  0  0  0  0  0  0  0
   -6.4380    0.3177    0.0000 C   0  0  0  0  0  0  0  0  0
   -7.2263    0.0746    0.0000 Cl  0  0  0  0  0  0  0  0  0
   -6.2544    1.1221    0.0000 C   0  0  0  0  0  0  0  0  0
   -5.4661    1.3652    0.0000 C   0  0  0  0  0  0  0  0  0
   -4.8613    0.8041    0.0000 C   0  0  0  0  0  0  0  0  0
   -3.3475   -1.3885    0.0000 N   0  0  0  0  0  0  0  0  0
   -2.5248   -1.4502    0.0000 C   0  0  0  0  0  0  0  0  0
   -2.1669   -2.1935    0.0000 C   0  0  0  0  0  0  0  0  0
   -2.6316   -2.8751    0.0000 N   0  0  0  0  0  0  0  0  0
   -3.4543   -2.8135    0.0000 C   0  0  0  0  0  0  0  0  0
   -3.8123   -2.0702    0.0000 C   0  0  0  0  0  0  0  0  0
   -2.2737   -3.6184    0.0000 C   0  0  0  0  0  0  0  0  0
   -2.7384   -4.3001    0.0000 C   0  0  0  0  0  0  0  0  0
   -2.3805   -5.0434    0.0000 C   0  0  0  0  0  0  0  0  0
   -2.8452   -5.7250    0.0000 C   0  0  0  0  0  0  0  0  0
   -3.6679   -5.6634    0.0000 C   0  0  0  0  0  0  0  0  0
   -4.0259   -4.9201    0.0000 C   0  0  0  0  0  0  0  0  0
   -3.5611   -4.2384    0.0000 C   0  0  0  0  0  0  0  0  0
   -3.9191   -3.4951    0.0000 F   0  0  0  0  0  0  0  0  0
  1  2  1  0  0  0  0
  2  3  4  0  0  0  0
  2  7  4  0  0  0  0
  3  4  4  0  0  0  0
  4  5  4  0  0  0  0
  5  6  4  0  0  0  0
  6  7  4  0  0  0  0
  7  8  1  0  0  0  0
  8  9  2  0  0  0  0
  8 10  1  0  0  0  0
 10 11  1  0  0  0  0
 11 12  1  0  0  0  0
 11 26  1  0  0  0  0
 12 13  4  0  0  0  0
 12 17  4  0  0  0  0
 13 14  4  0  0  0  0
 13 18  1  0  0  0  0
 14 15  4  0  0  0  0
 15 16  4  0  0  0  0
 16 17  4  0  0  0  0
 18 19  2  0  0  0  0
 18 27  1  0  0  0  0
 19 20  1  0  0  0  0
 20 21  4  0  0  0  0
 20 26  4  0  0  0  0
 21 22  4  0  0  0  0
 22 23  1  0  0  0  0
 22 24  4  0  0  0  0
 24 25  4  0  0  0  0
 25 26  4  0  0  0  0
 27 28  1  0  0  0  0
 27 32  1  0  0  0  0
 28 29  1  0  0  0  0
 29 30  1  0  0  0  0
 30 31  1  0  0  0  0
 30 33  1  0  0  0  0
 31 32  1  0  0  0  0
 33 34  1  0  0  0  0
 34 35  4  0  0  0  0
 34 39  4  0  0  0  0
 35 36  4  0  0  0  0
 36 37  4  0  0  0  0
 37 38  4  0  0  0  0
 38 39  4  0  0  0  0
 39 40  1  0  0  0  0
M  END
>  <Name_Molregno>
357629

>  <DOPAMINE D1>
6.3

>  <DOPAMINE D2>
5.7

$$$$
357634
  Marvin  02231216192D 0   1.00000     0.00000     0

 33 37  0  0  0  0  0  0  0  0999 V2000
   -5.4350    1.8322    0.0000 I   0  0  0  0  0  0  0  0  0
   -4.7205    2.2447    0.0000 C   0  0  0  0  0  0  0  0  0
   -4.7205    3.0697    0.0000 C   0  0  0  0  0  0  0  0  0
   -4.0060    3.4822    0.0000 C   0  0  0  0  0  0  0  0  0
   -3.2915    3.0697    0.0000 C   0  0  0  0  0  0  0  0  0
   -3.2915    2.2447    0.0000 C   0  0  0  0  0  0  0  0  0
   -4.0060    1.8322    0.0000 C   0  0  0  0  0  0  0  0  0
   -4.0060    1.0072    0.0000 C   0  0  0  0  0  0  0  0  0
   -4.7205    0.5947    0.0000 O   0  0  0  0  0  0  0  0  0
   -3.2915    0.5947    0.0000 N   0  0  0  0  0  0  0  0  0
   -3.2915   -0.2303    0.0000 N   0  0  0  0  0  0  0  0  0
   -2.5482   -0.5882    0.0000 C   0  0  0  0  0  0  0  0  0
   -2.3647   -1.3926    0.0000 C   0  0  0  0  0  0  0  0  0
   -1.5763   -1.6357    0.0000 C   0  0  0  0  0  0  0  0  0
   -0.9715   -1.0746    0.0000 C   0  0  0  0  0  0  0  0  0
   -0.1832   -1.3178    0.0000 Cl  0  0  0  0  0  0  0  0  0
   -1.1551   -0.2703    0.0000 C   0  0  0  0  0  0  0  0  0
   -1.9435   -0.0271    0.0000 C   0  0  0  0  0  0  0  0  0
   -2.8790   -2.0376    0.0000 C   0  0  0  0  0  0  0  0  0
   -3.7040   -2.0376    0.0000 N   0  0  0  0  0  0  0  0  0
   -4.2184   -1.3926    0.0000 C   0  0  0  0  0  0  0  0  0
   -4.0348   -0.5882    0.0000 C   0  0  0  0  0  0  0  0  0
   -4.6396   -0.0271    0.0000 C   0  0  0  0  0  0  0  0  0
   -5.4280   -0.2703    0.0000 C   0  0  0  0  0  0  0  0  0
   -5.6115   -1.0746    0.0000 C   0  0  0  0  0  0  0  0  0
   -5.0068   -1.6357    0.0000 C   0  0  0  0  0  0  0  0  0
   -2.5211   -2.7809    0.0000 N   0  0  0  0  0  0  0  0  0
   -1.6984   -2.8425    0.0000 C   0  0  0  0  0  0  0  0  0
   -1.3404   -3.5858    0.0000 C   0  0  0  0  0  0  0  0  0
   -1.8052   -4.2675    0.0000 N   0  0  0  0  0  0  0  0  0
   -2.6279   -4.2058    0.0000 C   0  0  0  0  0  0  0  0  0
   -2.9858   -3.4625    0.0000 C   0  0  0  0  0  0  0  0  0
   -1.4472   -5.0108    0.0000 C   0  0  0  0  0  0  0  0  0
  1  2  1  0  0  0  0
  2  3  4  0  0  0  0
  2  7  4  0  0  0  0
  3  4  4  0  0  0  0
  4  5  4  0  0  0  0
  5  6  4  0  0  0  0
  6  7  4  0  0  0  0
  7  8  1  0  0  0  0
  8  9  2  0  0  0  0
  8 10  1  0  0  0  0
 10 11  1  0  0  0  0
 11 12  1  0  0  0  0
 11 22  1  0  0  0  0
 12 13  4  0  0  0  0
 12 18  4  0  0  0  0
 13 14  4  0  0  0  0
 13 19  1  0  0  0  0
 14 15  4  0  0  0  0
 15 16  1  0  0  0  0
 15 17  4  0  0  0  0
 17 18  4  0  0  0  0
 19 20  2  0  0  0  0
 19 27  1  0  0  0  0
 20 21  1  0  0  0  0
 21 22  4  0  0  0  0
 21 26  4  0  0  0  0
 22 23  4  0  0  0  0
 23 24  4  0  0  0  0
 24 25  4  0  0  0  0
 25 26  4  0  0  0  0
 27 28  1  0  0  0  0
 27 32  1  0  0  0  0
 28 29  1  0  0  0  0
 29 30  1  0  0  0  0
 30 31  1  0  0  0  0
 30 33  1  0  0  0  0
 31 32  1  0  0  0  0
M  END
>  <Name_Molregno>
357634

>  <DOPAMINE D1>
8.15

>  <DOPAMINE D2>
6.64

$$$$
357635
  Marvin  02231216192D 0   1.00000     0.00000     0

 36 40  0  0  0  0  0  0  0  0999 V2000
    5.3271   -1.1832    0.0000 Cl  0  0  0  0  0  0  0  0  0
    4.5387   -1.4264    0.0000 C   0  0  0  0  0  0  0  0  0
    3.9340   -0.8652    0.0000 C   0  0  0  0  0  0  0  0  0
    3.1456   -1.1084    0.0000 C   0  0  0  0  0  0  0  0  0
    2.9620   -1.9127    0.0000 C   0  0  0  0  0  0  0  0  0
    2.2187   -2.2707    0.0000 N   0  0  0  0  0  0  0  0  0
    2.2187   -3.0957    0.0000 N   0  0  0  0  0  0  0  0  0
    1.5043   -3.5082    0.0000 C   0  0  0  0  0  0  0  0  0
    0.7898   -3.0957    0.0000 O   0  0  0  0  0  0  0  0  0
    1.5043   -4.3332    0.0000 C   0  0  0  0  0  0  0  0  0
    2.2187   -4.7457    0.0000 C   0  0  0  0  0  0  0  0  0
    2.9332   -4.3332    0.0000 O   0  0  0  0  0  0  0  0  0
    3.6477   -4.7457    0.0000 C   0  0  0  0  0  0  0  0  0
    2.2187   -5.5707    0.0000 C   0  0  0  0  0  0  0  0  0
    1.5043   -5.9832    0.0000 C   0  0  0  0  0  0  0  0  0
    0.7898   -5.5707    0.0000 C   0  0  0  0  0  0  0  0  0
    0.7898   -4.7457    0.0000 C   0  0  0  0  0  0  0  0  0
    0.0753   -4.3332    0.0000 O   0  0  0  0  0  0  0  0  0
   -0.6391   -4.7457    0.0000 C   0  0  0  0  0  0  0  0  0
    1.4754   -1.9127    0.0000 C   0  0  0  0  0  0  0  0  0
    1.2919   -1.1084    0.0000 C   0  0  0  0  0  0  0  0  0
    1.8062   -0.4634    0.0000 N   0  0  0  0  0  0  0  0  0
    2.6312   -0.4634    0.0000 C   0  0  0  0  0  0  0  0  0
    2.9892    0.2799    0.0000 N   0  0  0  0  0  0  0  0  0
    2.5245    0.9616    0.0000 C   0  0  0  0  0  0  0  0  0
    2.8824    1.7049    0.0000 C   0  0  0  0  0  0  0  0  0
    3.7051    1.7665    0.0000 N   0  0  0  0  0  0  0  0  0
    4.1698    1.0849    0.0000 C   0  0  0  0  0  0  0  0  0
    3.8119    0.3416    0.0000 C   0  0  0  0  0  0  0  0  0
    4.0631    2.5098    0.0000 C   0  0  0  0  0  0  0  0  0
    0.5035   -0.8652    0.0000 C   0  0  0  0  0  0  0  0  0
   -0.1012   -1.4264    0.0000 C   0  0  0  0  0  0  0  0  0
    0.0823   -2.2307    0.0000 C   0  0  0  0  0  0  0  0  0
    0.8707   -2.4739    0.0000 C   0  0  0  0  0  0  0  0  0
    3.5668   -2.4739    0.0000 C   0  0  0  0  0  0  0  0  0
    4.3552   -2.2307    0.0000 C   0  0  0  0  0  0  0  0  0
  1  2  1  0  0  0  0
  2  3  4  0  0  0  0
  2 36  4  0  0  0  0
  3  4  4  0  0  0  0
  4  5  4  0  0  0  0
  4 23  1  0  0  0  0
  5  6  1  0  0  0  0
  5 35  4  0  0  0  0
  6  7  1  0  0  0  0
  6 20  1  0  0  0  0
  7  8  1  0  0  0  0
  8  9  2  0  0  0  0
  8 10  1  0  0  0  0
 10 11  4  0  0  0  0
 10 17  4  0  0  0  0
 11 12  1  0  0  0  0
 11 14  4  0  0  0  0
 12 13  1  0  0  0  0
 14 15  4  0  0  0  0
 15 16  4  0  0  0  0
 16 17  4  0  0  0  0
 17 18  1  0  0  0  0
 18 19  1  0  0  0  0
 20 21  4  0  0  0  0
 20 34  4  0  0  0  0
 21 22  1  0  0  0  0
 21 31  4  0  0  0  0
 22 23  2  0  0  0  0
 23 24  1  0  0  0  0
 24 25  1  0  0  0  0
 24 29  1  0  0  0  0
 25 26  1  0  0  0  0
 26 27  1  0  0  0  0
 27 28  1  0  0  0  0
 27 30  1  0  0  0  0
 28 29  1  0  0  0  0
 31 32  4  0  0  0  0
 32 33  4  0  0  0  0
 33 34  4  0  0  0  0
 35 36  4  0  0  0  0
M  END
>  <Name_Molregno>
357635

>  <DOPAMINE D1>
8.22

>  <DOPAMINE D2>
6.71

$$$$
357653
  Marvin  02231216192D 0   1.00000     0.00000     0

 38 42  0  0  0  0  0  0  0  0999 V2000
   -5.2050   -1.9667    0.0000 Cl  0  0  0  0  0  0  0  0  0
   -4.4167   -2.2099    0.0000 C   0  0  0  0  0  0  0  0  0
   -3.8119   -1.6488    0.0000 C   0  0  0  0  0  0  0  0  0
   -3.0235   -1.8919    0.0000 C   0  0  0  0  0  0  0  0  0
   -2.5092   -1.2469    0.0000 N   0  0  0  0  0  0  0  0  0
   -1.6842   -1.2469    0.0000 C   0  0  0  0  0  0  0  0  0
   -1.3262   -0.5036    0.0000 N   0  0  0  0  0  0  0  0  0
   -1.7910    0.1780    0.0000 C   0  0  0  0  0  0  0  0  0
   -1.4330    0.9213    0.0000 C   0  0  0  0  0  0  0  0  0
   -0.6103    0.9830    0.0000 N   0  0  0  0  0  0  0  0  0
   -0.1456    0.3013    0.0000 C   0  0  0  0  0  0  0  0  0
   -0.5035   -0.4420    0.0000 C   0  0  0  0  0  0  0  0  0
   -0.2524    1.7263    0.0000 C   0  0  0  0  0  0  0  0  0
   -1.1698   -1.8919    0.0000 C   0  0  0  0  0  0  0  0  0
   -1.3534   -2.6962    0.0000 C   0  0  0  0  0  0  0  0  0
   -2.0967   -3.0542    0.0000 N   0  0  0  0  0  0  0  0  0
   -2.0967   -3.8792    0.0000 N   0  0  0  0  0  0  0  0  0
   -1.3822   -4.2917    0.0000 C   0  0  0  0  0  0  0  0  0
   -0.6677   -3.8792    0.0000 O   0  0  0  0  0  0  0  0  0
   -1.3822   -5.1167    0.0000 C   0  0  0  0  0  0  0  0  0
   -0.6677   -5.5292    0.0000 C   0  0  0  0  0  0  0  0  0
   -0.6677   -6.3542    0.0000 C   0  0  0  0  0  0  0  0  0
    0.0467   -6.7667    0.0000 O   0  0  0  0  0  0  0  0  0
    0.0467   -7.5917    0.0000 C   0  0  0  0  0  0  0  0  0
   -1.3822   -6.7667    0.0000 C   0  0  0  0  0  0  0  0  0
   -1.3822   -7.5917    0.0000 O   0  0  0  0  0  0  0  0  0
   -0.6677   -8.0042    0.0000 C   0  0  0  0  0  0  0  0  0
   -2.0967   -6.3542    0.0000 C   0  0  0  0  0  0  0  0  0
   -2.8111   -6.7667    0.0000 O   0  0  0  0  0  0  0  0  0
   -3.5256   -6.3542    0.0000 C   0  0  0  0  0  0  0  0  0
   -2.0967   -5.5292    0.0000 C   0  0  0  0  0  0  0  0  0
   -2.8400   -2.6962    0.0000 C   0  0  0  0  0  0  0  0  0
   -3.4447   -3.2574    0.0000 C   0  0  0  0  0  0  0  0  0
   -4.2331   -3.0142    0.0000 C   0  0  0  0  0  0  0  0  0
   -0.7486   -3.2574    0.0000 C   0  0  0  0  0  0  0  0  0
    0.0397   -3.0142    0.0000 C   0  0  0  0  0  0  0  0  0
    0.2233   -2.2099    0.0000 C   0  0  0  0  0  0  0  0  0
   -0.3814   -1.6488    0.0000 C   0  0  0  0  0  0  0  0  0
  1  2  1  0  0  0  0
  2  3  4  0  0  0  0
  2 34  4  0  0  0  0
  3  4  4  0  0  0  0
  4  5  1  0  0  0  0
  4 32  4  0  0  0  0
  5  6  2  0  0  0  0
  6  7  1  0  0  0  0
  6 14  1  0  0  0  0
  7  8  1  0  0  0  0
  7 12  1  0  0  0  0
  8  9  1  0  0  0  0
  9 10  1  0  0  0  0
 10 11  1  0  0  0  0
 10 13  1  0  0  0  0
 11 12  1  0  0  0  0
 14 15  4  0  0  0  0
 14 38  4  0  0  0  0
 15 16  1  0  0  0  0
 15 35  4  0  0  0  0
 16 17  1  0  0  0  0
 16 32  1  0  0  0  0
 17 18  1  0  0  0  0
 18 19  2  0  0  0  0
 18 20  1  0  0  0  0
 20 21  4  0  0  0  0
 20 31  4  0  0  0  0
 21 22  4  0  0  0  0
 22 23  1  0  0  0  0
 22 25  4  0  0  0  0
 23 24  1  0  0  0  0
 25 26  1  0  0  0  0
 25 28  4  0  0  0  0
 26 27  1  0  0  0  0
 28 29  1  0  0  0  0
 28 31  4  0  0  0  0
 29 30  1  0  0  0  0
 32 33  4  0  0  0  0
 33 34  4  0  0  0  0
 35 36  4  0  0  0  0
 36 37  4  0  0  0  0
 37 38  4  0  0  0  0
M  END
>  <Name_Molregno>
357653

>  <DOPAMINE D1>
7.51

>  <DOPAMINE D2>
5.25

$$$$
357654
  Marvin  02231216192D 0   1.00000     0.00000     0

 35 39  0  0  0  0  0  0  0  0999 V2000
   -5.5543    2.3685    0.0000 Cl  0  0  0  0  0  0  0  0  0
   -4.8398    2.7810    0.0000 C   0  0  0  0  0  0  0  0  0
   -4.8398    3.6060    0.0000 C   0  0  0  0  0  0  0  0  0
   -4.1254    4.0185    0.0000 C   0  0  0  0  0  0  0  0  0
   -3.4109    3.6060    0.0000 C   0  0  0  0  0  0  0  0  0
   -3.4109    2.7810    0.0000 C   0  0  0  0  0  0  0  0  0
   -4.1254    2.3685    0.0000 C   0  0  0  0  0  0  0  0  0
   -4.1254    1.5435    0.0000 C   0  0  0  0  0  0  0  0  0
   -4.8398    1.1310    0.0000 O   0  0  0  0  0  0  0  0  0
   -3.4109    1.1310    0.0000 N   0  0  0  0  0  0  0  0  0
   -3.4109    0.3060    0.0000 N   0  0  0  0  0  0  0  0  0
   -2.6676   -0.0519    0.0000 C   0  0  0  0  0  0  0  0  0
   -2.4840   -0.8562    0.0000 C   0  0  0  0  0  0  0  0  0
   -1.6957   -1.0994    0.0000 C   0  0  0  0  0  0  0  0  0
   -1.0909   -0.5383    0.0000 C   0  0  0  0  0  0  0  0  0
   -1.2745    0.2661    0.0000 C   0  0  0  0  0  0  0  0  0
   -2.0628    0.5092    0.0000 C   0  0  0  0  0  0  0  0  0
   -2.9984   -1.5012    0.0000 C   0  0  0  0  0  0  0  0  0
   -3.8234   -1.5012    0.0000 N   0  0  0  0  0  0  0  0  0
   -4.3378   -0.8562    0.0000 C   0  0  0  0  0  0  0  0  0
   -5.1261   -1.0994    0.0000 C   0  0  0  0  0  0  0  0  0
   -5.7309   -0.5383    0.0000 C   0  0  0  0  0  0  0  0  0
   -6.5192   -0.7814    0.0000 Cl  0  0  0  0  0  0  0  0  0
   -5.5473    0.2661    0.0000 C   0  0  0  0  0  0  0  0  0
   -4.7590    0.5092    0.0000 C   0  0  0  0  0  0  0  0  0
   -4.1542   -0.0519    0.0000 C   0  0  0  0  0  0  0  0  0
   -2.6404   -2.2445    0.0000 N   0  0  0  0  0  0  0  0  0
   -1.8177   -2.3062    0.0000 C   0  0  0  0  0  0  0  0  0
   -1.4598   -3.0495    0.0000 C   0  0  0  0  0  0  0  0  0
   -1.9245   -3.7311    0.0000 N   0  0  0  0  0  0  0  0  0
   -2.7472   -3.6695    0.0000 C   0  0  0  0  0  0  0  0  0
   -3.1052   -2.9262    0.0000 C   0  0  0  0  0  0  0  0  0
   -1.5666   -4.4744    0.0000 C   0  0  0  0  0  0  0  0  0
   -2.0313   -5.1561    0.0000 C   0  0  0  0  0  0  0  0  0
   -1.6734   -5.8994    0.0000 C   0  0  0  0  0  0  0  0  0
  1  2  1  0  0  0  0
  2  3  4  0  0  0  0
  2  7  4  0  0  0  0
  3  4  4  0  0  0  0
  4  5  4  0  0  0  0
  5  6  4  0  0  0  0
  6  7  4  0  0  0  0
  7  8  1  0  0  0  0
  8  9  2  0  0  0  0
  8 10  1  0  0  0  0
 10 11  1  0  0  0  0
 11 12  1  0  0  0  0
 11 26  1  0  0  0  0
 12 13  4  0  0  0  0
 12 17  4  0  0  0  0
 13 14  4  0  0  0  0
 13 18  1  0  0  0  0
 14 15  4  0  0  0  0
 15 16  4  0  0  0  0
 16 17  4  0  0  0  0
 18 19  2  0  0  0  0
 18 27  1  0  0  0  0
 19 20  1  0  0  0  0
 20 21  4  0  0  0  0
 20 26  4  0  0  0  0
 21 22  4  0  0  0  0
 22 23  1  0  0  0  0
 22 24  4  0  0  0  0
 24 25  4  0  0  0  0
 25 26  4  0  0  0  0
 27 28  1  0  0  0  0
 27 32  1  0  0  0  0
 28 29  1  0  0  0  0
 29 30  1  0  0  0  0
 30 31  1  0  0  0  0
 30 33  1  0  0  0  0
 31 32  1  0  0  0  0
 33 34  1  0  0  0  0
 34 35  1  0  0  0  0
M  END
>  <Name_Molregno>
357654

>  <DOPAMINE D1>
7.59

>  <DOPAMINE D2>
6.39

$$$$
357655
  Marvin  02231216192D 0   1.00000     0.00000     0

 35 39  0  0  0  0  0  0  0  0999 V2000
    1.2196    2.2979    0.0000 Cl  0  0  0  0  0  0  0  0  0
    1.9341    2.7104    0.0000 C   0  0  0  0  0  0  0  0  0
    1.9341    3.5354    0.0000 C   0  0  0  0  0  0  0  0  0
    2.6486    3.9479    0.0000 C   0  0  0  0  0  0  0  0  0
    3.3631    3.5354    0.0000 C   0  0  0  0  0  0  0  0  0
    3.3631    2.7104    0.0000 C   0  0  0  0  0  0  0  0  0
    2.6486    2.2979    0.0000 C   0  0  0  0  0  0  0  0  0
    2.6486    1.4729    0.0000 C   0  0  0  0  0  0  0  0  0
    1.9341    1.0604    0.0000 O   0  0  0  0  0  0  0  0  0
    3.3631    1.0604    0.0000 N   0  0  0  0  0  0  0  0  0
    3.3631    0.2354    0.0000 N   0  0  0  0  0  0  0  0  0
    4.1064   -0.1225    0.0000 C   0  0  0  0  0  0  0  0  0
    4.2899   -0.9269    0.0000 C   0  0  0  0  0  0  0  0  0
    5.0783   -1.1700    0.0000 C   0  0  0  0  0  0  0  0  0
    5.6831   -0.6089    0.0000 C   0  0  0  0  0  0  0  0  0
    5.4995    0.1954    0.0000 C   0  0  0  0  0  0  0  0  0
    4.7111    0.4386    0.0000 C   0  0  0  0  0  0  0  0  0
    3.7756   -1.5719    0.0000 C   0  0  0  0  0  0  0  0  0
    2.9506   -1.5719    0.0000 N   0  0  0  0  0  0  0  0  0
    2.4362   -0.9269    0.0000 C   0  0  0  0  0  0  0  0  0
    1.6478   -1.1700    0.0000 C   0  0  0  0  0  0  0  0  0
    1.0431   -0.6089    0.0000 C   0  0  0  0  0  0  0  0  0
    0.2547   -0.8521    0.0000 Cl  0  0  0  0  0  0  0  0  0
    1.2266    0.1954    0.0000 C   0  0  0  0  0  0  0  0  0
    2.0150    0.4386    0.0000 C   0  0  0  0  0  0  0  0  0
    2.6198   -0.1225    0.0000 C   0  0  0  0  0  0  0  0  0
    4.1335   -2.3152    0.0000 N   0  0  0  0  0  0  0  0  0
    4.9562   -2.3768    0.0000 C   0  0  0  0  0  0  0  0  0
    5.3142   -3.1201    0.0000 C   0  0  0  0  0  0  0  0  0
    4.8494   -3.8018    0.0000 N   0  0  0  0  0  0  0  0  0
    4.0267   -3.7401    0.0000 C   0  0  0  0  0  0  0  0  0
    3.6688   -2.9968    0.0000 C   0  0  0  0  0  0  0  0  0
    5.2074   -4.5451    0.0000 C   0  0  0  0  0  0  0  0  0
    6.0301   -4.6067    0.0000 C   0  0  0  0  0  0  0  0  0
    4.7426   -5.2267    0.0000 C   0  0  0  0  0  0  0  0  0
  1  2  1  0  0  0  0
  2  3  4  0  0  0  0
  2  7  4  0  0  0  0
  3  4  4  0  0  0  0
  4  5  4  0  0  0  0
  5  6  4  0  0  0  0
  6  7  4  0  0  0  0
  7  8  1  0  0  0  0
  8  9  2  0  0  0  0
  8 10  1  0  0  0  0
 10 11  1  0  0  0  0
 11 12  1  0  0  0  0
 11 26  1  0  0  0  0
 12 13  4  0  0  0  0
 12 17  4  0  0  0  0
 13 14  4  0  0  0  0
 13 18  1  0  0  0  0
 14 15  4  0  0  0  0
 15 16  4  0  0  0  0
 16 17  4  0  0  0  0
 18 19  2  0  0  0  0
 18 27  1  0  0  0  0
 19 20  1  0  0  0  0
 20 21  4  0  0  0  0
 20 26  4  0  0  0  0
 21 22  4  0  0  0  0
 22 23  1  0  0  0  0
 22 24  4  0  0  0  0
 24 25  4  0  0  0  0
 25 26  4  0  0  0  0
 27 28  1  0  0  0  0
 27 32  1  0  0  0  0
 28 29  1  0  0  0  0
 29 30  1  0  0  0  0
 30 31  1  0  0  0  0
 30 33  1  0  0  0  0
 31 32  1  0  0  0  0
 33 34  1  0  0  0  0
 33 35  1  0  0  0  0
M  END
>  <Name_Molregno>
357655

>  <DOPAMINE D1>
6.72

>  <DOPAMINE D2>
6

$$$$
357661
  Marvin  02231216192D 0   1.00000     0.00000     0

 35 39  0  0  0  0  0  0  0  0999 V2000
    4.8624   -1.6961    0.0000 Cl  0  0  0  0  0  0  0  0  0
    4.0741   -1.9392    0.0000 C   0  0  0  0  0  0  0  0  0
    3.4693   -1.3781    0.0000 C   0  0  0  0  0  0  0  0  0
    2.6810   -1.6213    0.0000 C   0  0  0  0  0  0  0  0  0
    2.4974   -2.4256    0.0000 C   0  0  0  0  0  0  0  0  0
    1.7541   -2.7835    0.0000 N   0  0  0  0  0  0  0  0  0
    1.7541   -3.6085    0.0000 N   0  0  0  0  0  0  0  0  0
    1.0396   -4.0210    0.0000 C   0  0  0  0  0  0  0  0  0
    0.3252   -3.6085    0.0000 O   0  0  0  0  0  0  0  0  0
    1.0396   -4.8460    0.0000 C   0  0  0  0  0  0  0  0  0
    1.7541   -5.2585    0.0000 C   0  0  0  0  0  0  0  0  0
    1.7541   -6.0835    0.0000 C   0  0  0  0  0  0  0  0  0
    1.0396   -6.4960    0.0000 C   0  0  0  0  0  0  0  0  0
    0.3252   -6.0835    0.0000 C   0  0  0  0  0  0  0  0  0
    0.3252   -5.2585    0.0000 C   0  0  0  0  0  0  0  0  0
    1.0396   -7.3210    0.0000 C   0  0  0  0  0  0  0  0  0
    1.0396   -8.1460    0.0000 N   0  0  0  0  0  0  0  0  0
    1.0108   -2.4256    0.0000 C   0  0  0  0  0  0  0  0  0
    0.8272   -1.6213    0.0000 C   0  0  0  0  0  0  0  0  0
    1.3416   -0.9763    0.0000 N   0  0  0  0  0  0  0  0  0
    2.1666   -0.9763    0.0000 C   0  0  0  0  0  0  0  0  0
    2.5246   -0.2330    0.0000 N   0  0  0  0  0  0  0  0  0
    2.0598    0.4487    0.0000 C   0  0  0  0  0  0  0  0  0
    2.4178    1.1920    0.0000 C   0  0  0  0  0  0  0  0  0
    3.2405    1.2536    0.0000 N   0  0  0  0  0  0  0  0  0
    3.7052    0.5720    0.0000 C   0  0  0  0  0  0  0  0  0
    3.3473   -0.1713    0.0000 C   0  0  0  0  0  0  0  0  0
    3.5984    1.9969    0.0000 C   0  0  0  0  0  0  0  0  0
    0.0389   -1.3781    0.0000 C   0  0  0  0  0  0  0  0  0
   -0.5659   -1.9392    0.0000 C   0  0  0  0  0  0  0  0  0
   -1.3542   -1.6961    0.0000 Cl  0  0  0  0  0  0  0  0  0
   -0.3823   -2.7435    0.0000 C   0  0  0  0  0  0  0  0  0
    0.4060   -2.9867    0.0000 C   0  0  0  0  0  0  0  0  0
    3.1022   -2.9867    0.0000 C   0  0  0  0  0  0  0  0  0
    3.8905   -2.7435    0.0000 C   0  0  0  0  0  0  0  0  0
  1  2  1  0  0  0  0
  2  3  4  0  0  0  0
  2 35  4  0  0  0  0
  3  4  4  0  0  0  0
  4  5  4  0  0  0  0
  4 21  1  0  0  0  0
  5  6  1  0  0  0  0
  5 34  4  0  0  0  0
  6  7  1  0  0  0  0
  6 18  1  0  0  0  0
  7  8  1  0  0  0  0
  8  9  2  0  0  0  0
  8 10  1  0  0  0  0
 10 11  4  0  0  0  0
 10 15  4  0  0  0  0
 11 12  4  0  0  0  0
 12 13  4  0  0  0  0
 13 14  4  0  0  0  0
 13 16  1  0  0  0  0
 14 15  4  0  0  0  0
 16 17  3  0  0  0  0
 18 19  4  0  0  0  0
 18 33  4  0  0  0  0
 19 20  1  0  0  0  0
 19 29  4  0  0  0  0
 20 21  2  0  0  0  0
 21 22  1  0  0  0  0
 22 23  1  0  0  0  0
 22 27  1  0  0  0  0
 23 24  1  0  0  0  0
 24 25  1  0  0  0  0
 25 26  1  0  0  0  0
 25 28  1  0  0  0  0
 26 27  1  0  0  0  0
 29 30  4  0  0  0  0
 30 31  1  0  0  0  0
 30 32  4  0  0  0  0
 32 33  4  0  0  0  0
 34 35  4  0  0  0  0
M  END
>  <Name_Molregno>
357661

>  <DOPAMINE D1>
7.29

>  <DOPAMINE D2>
6.71

$$$$
357662
  Marvin  02231216192D 0   1.00000     0.00000     0

 35 39  0  0  0  0  0  0  0  0999 V2000
    5.2551   -1.4471    0.0000 Cl  0  0  0  0  0  0  0  0  0
    4.4667   -1.6902    0.0000 C   0  0  0  0  0  0  0  0  0
    3.8619   -1.1291    0.0000 C   0  0  0  0  0  0  0  0  0
    3.0736   -1.3723    0.0000 C   0  0  0  0  0  0  0  0  0
    2.8900   -2.1766    0.0000 C   0  0  0  0  0  0  0  0  0
    2.1467   -2.5345    0.0000 N   0  0  0  0  0  0  0  0  0
    2.1467   -3.3595    0.0000 N   0  0  0  0  0  0  0  0  0
    1.4322   -3.7720    0.0000 C   0  0  0  0  0  0  0  0  0
    0.7178   -3.3595    0.0000 O   0  0  0  0  0  0  0  0  0
    1.4322   -4.5970    0.0000 C   0  0  0  0  0  0  0  0  0
    2.1467   -5.0095    0.0000 C   0  0  0  0  0  0  0  0  0
    2.1467   -5.8345    0.0000 C   0  0  0  0  0  0  0  0  0
    1.4322   -6.2470    0.0000 C   0  0  0  0  0  0  0  0  0
    0.7178   -5.8345    0.0000 C   0  0  0  0  0  0  0  0  0
    0.7178   -5.0095    0.0000 C   0  0  0  0  0  0  0  0  0
    2.8612   -6.2470    0.0000 C   0  0  0  0  0  0  0  0  0
    3.5757   -6.6595    0.0000 N   0  0  0  0  0  0  0  0  0
    1.4034   -2.1766    0.0000 C   0  0  0  0  0  0  0  0  0
    1.2198   -1.3723    0.0000 C   0  0  0  0  0  0  0  0  0
    1.7342   -0.7273    0.0000 N   0  0  0  0  0  0  0  0  0
    2.5592   -0.7273    0.0000 C   0  0  0  0  0  0  0  0  0
    2.9172    0.0160    0.0000 N   0  0  0  0  0  0  0  0  0
    2.4524    0.6977    0.0000 C   0  0  0  0  0  0  0  0  0
    2.8104    1.4410    0.0000 C   0  0  0  0  0  0  0  0  0
    3.6331    1.5026    0.0000 N   0  0  0  0  0  0  0  0  0
    4.0978    0.8210    0.0000 C   0  0  0  0  0  0  0  0  0
    3.7399    0.0777    0.0000 C   0  0  0  0  0  0  0  0  0
    3.9910    2.2459    0.0000 C   0  0  0  0  0  0  0  0  0
    0.4315   -1.1291    0.0000 C   0  0  0  0  0  0  0  0  0
   -0.1733   -1.6902    0.0000 C   0  0  0  0  0  0  0  0  0
   -0.9616   -1.4471    0.0000 Cl  0  0  0  0  0  0  0  0  0
    0.0103   -2.4946    0.0000 C   0  0  0  0  0  0  0  0  0
    0.7986   -2.7377    0.0000 C   0  0  0  0  0  0  0  0  0
    3.4948   -2.7377    0.0000 C   0  0  0  0  0  0  0  0  0
    4.2831   -2.4946    0.0000 C   0  0  0  0  0  0  0  0  0
  1  2  1  0  0  0  0
  2  3  4  0  0  0  0
  2 35  4  0  0  0  0
  3  4  4  0  0  0  0
  4  5  4  0  0  0  0
  4 21  1  0  0  0  0
  5  6  1  0  0  0  0
  5 34  4  0  0  0  0
  6  7  1  0  0  0  0
  6 18  1  0  0  0  0
  7  8  1  0  0  0  0
  8  9  2  0  0  0  0
  8 10  1  0  0  0  0
 10 11  4  0  0  0  0
 10 15  4  0  0  0  0
 11 12  4  0  0  0  0
 12 13  4  0  0  0  0
 12 16  1  0  0  0  0
 13 14  4  0  0  0  0
 14 15  4  0  0  0  0
 16 17  3  0  0  0  0
 18 19  4  0  0  0  0
 18 33  4  0  0  0  0
 19 20  1  0  0  0  0
 19 29  4  0  0  0  0
 20 21  2  0  0  0  0
 21 22  1  0  0  0  0
 22 23  1  0  0  0  0
 22 27  1  0  0  0  0
 23 24  1  0  0  0  0
 24 25  1  0  0  0  0
 25 26  1  0  0  0  0
 25 28  1  0  0  0  0
 26 27  1  0  0  0  0
 29 30  4  0  0  0  0
 30 31  1  0  0  0  0
 30 32  4  0  0  0  0
 32 33  4  0  0  0  0
 34 35  4  0  0  0  0
M  END
>  <Name_Molregno>
357662

>  <DOPAMINE D1>
7.33

>  <DOPAMINE D2>
6.76

$$$$
357668
  Marvin  02231216192D 0   1.00000     0.00000     0

 36 41  0  0  0  0  0  0  0  0999 V2000
   -5.1155   -2.5109    0.0000 Cl  0  0  0  0  0  0  0  0  0
   -4.3271   -2.7541    0.0000 C   0  0  0  0  0  0  0  0  0
   -3.7223   -2.1929    0.0000 C   0  0  0  0  0  0  0  0  0
   -2.9340   -2.4361    0.0000 C   0  0  0  0  0  0  0  0  0
   -2.4196   -1.7911    0.0000 N   0  0  0  0  0  0  0  0  0
   -1.5946   -1.7911    0.0000 C   0  0  0  0  0  0  0  0  0
   -1.2367   -1.0478    0.0000 N   0  0  0  0  0  0  0  0  0
   -1.7014   -0.3661    0.0000 C   0  0  0  0  0  0  0  0  0
   -1.3434    0.3772    0.0000 C   0  0  0  0  0  0  0  0  0
   -0.5208    0.4388    0.0000 N   0  0  0  0  0  0  0  0  0
   -0.0560   -0.2428    0.0000 C   0  0  0  0  0  0  0  0  0
   -0.4140   -0.9861    0.0000 C   0  0  0  0  0  0  0  0  0
   -0.1628    1.1821    0.0000 C   0  0  0  0  0  0  0  0  0
   -1.0802   -2.4361    0.0000 C   0  0  0  0  0  0  0  0  0
   -1.2638   -3.2404    0.0000 C   0  0  0  0  0  0  0  0  0
   -2.0071   -3.5984    0.0000 N   0  0  0  0  0  0  0  0  0
   -2.0071   -4.4234    0.0000 N   0  0  0  0  0  0  0  0  0
   -1.2926   -4.8359    0.0000 C   0  0  0  0  0  0  0  0  0
   -0.5782   -4.4234    0.0000 O   0  0  0  0  0  0  0  0  0
   -1.2926   -5.6609    0.0000 C   0  0  0  0  0  0  0  0  0
   -2.0071   -6.0734    0.0000 N   0  0  0  0  0  0  0  0  0
   -2.0071   -6.8984    0.0000 C   0  0  0  0  0  0  0  0  0
   -1.2926   -7.3109    0.0000 C   0  0  0  0  0  0  0  0  0
   -0.5782   -6.8984    0.0000 C   0  0  0  0  0  0  0  0  0
   -0.5782   -6.0734    0.0000 C   0  0  0  0  0  0  0  0  0
    0.1363   -5.6609    0.0000 C   0  0  0  0  0  0  0  0  0
    0.8508   -6.0734    0.0000 C   0  0  0  0  0  0  0  0  0
    0.8508   -6.8984    0.0000 C   0  0  0  0  0  0  0  0  0
    0.1363   -7.3109    0.0000 C   0  0  0  0  0  0  0  0  0
   -2.7504   -3.2404    0.0000 C   0  0  0  0  0  0  0  0  0
   -3.3552   -3.8016    0.0000 C   0  0  0  0  0  0  0  0  0
   -4.1435   -3.5584    0.0000 C   0  0  0  0  0  0  0  0  0
   -0.6591   -3.8016    0.0000 C   0  0  0  0  0  0  0  0  0
    0.1293   -3.5584    0.0000 C   0  0  0  0  0  0  0  0  0
    0.3129   -2.7541    0.0000 C   0  0  0  0  0  0  0  0  0
   -0.2919   -2.1929    0.0000 C   0  0  0  0  0  0  0  0  0
  1  2  1  0  0  0  0
  2  3  4  0  0  0  0
  2 32  4  0  0  0  0
  3  4  4  0  0  0  0
  4  5  1  0  0  0  0
  4 30  4  0  0  0  0
  5  6  2  0  0  0  0
  6  7  1  0  0  0  0
  6 14  1  0  0  0  0
  7  8  1  0  0  0  0
  7 12  1  0  0  0  0
  8  9  1  0  0  0  0
  9 10  1  0  0  0  0
 10 11  1  0  0  0  0
 10 13  1  0  0  0  0
 11 12  1  0  0  0  0
 14 15  4  0  0  0  0
 14 36  4  0  0  0  0
 15 16  1  0  0  0  0
 15 33  4  0  0  0  0
 16 17  1  0  0  0  0
 16 30  1  0  0  0  0
 17 18  1  0  0  0  0
 18 19  2  0  0  0  0
 18 20  1  0  0  0  0
 20 21  4  0  0  0  0
 20 25  4  0  0  0  0
 21 22  4  0  0  0  0
 22 23  4  0  0  0  0
 23 24  4  0  0  0  0
 24 25  4  0  0  0  0
 24 29  4  0  0  0  0
 25 26  4  0  0  0  0
 26 27  4  0  0  0  0
 27 28  4  0  0  0  0
 28 29  4  0  0  0  0
 30 31  4  0  0  0  0
 31 32  4  0  0  0  0
 33 34  4  0  0  0  0
 34 35  4  0  0  0  0
 35 36  4  0  0  0  0
M  END
>  <Name_Molregno>
357668

>  <DOPAMINE D1>
7.64

>  <DOPAMINE D2>
6.32

$$$$
357669
  Marvin  02231216192D 0   1.00000     0.00000     0

 37 42  0  0  0  0  0  0  0  0999 V2000
   -3.9781   -2.7046    0.0000 Cl  0  0  0  0  0  0  0  0  0
   -3.1897   -2.9478    0.0000 C   0  0  0  0  0  0  0  0  0
   -2.5850   -2.3866    0.0000 C   0  0  0  0  0  0  0  0  0
   -1.7966   -2.6298    0.0000 C   0  0  0  0  0  0  0  0  0
   -1.2823   -1.9848    0.0000 N   0  0  0  0  0  0  0  0  0
   -0.4573   -1.9848    0.0000 C   0  0  0  0  0  0  0  0  0
   -0.0993   -1.2415    0.0000 N   0  0  0  0  0  0  0  0  0
   -0.5640   -0.5598    0.0000 C   0  0  0  0  0  0  0  0  0
   -0.2061    0.1835    0.0000 C   0  0  0  0  0  0  0  0  0
    0.6166    0.2451    0.0000 N   0  0  0  0  0  0  0  0  0
    1.0813   -0.4365    0.0000 C   0  0  0  0  0  0  0  0  0
    0.7234   -1.1798    0.0000 C   0  0  0  0  0  0  0  0  0
    0.9746    0.9884    0.0000 C   0  0  0  0  0  0  0  0  0
    0.0571   -2.6298    0.0000 C   0  0  0  0  0  0  0  0  0
   -0.1265   -3.4341    0.0000 C   0  0  0  0  0  0  0  0  0
   -0.8698   -3.7921    0.0000 N   0  0  0  0  0  0  0  0  0
   -0.8698   -4.6171    0.0000 N   0  0  0  0  0  0  0  0  0
   -1.5842   -5.0296    0.0000 C   0  0  0  0  0  0  0  0  0
   -2.2987   -4.6171    0.0000 O   0  0  0  0  0  0  0  0  0
   -1.5842   -5.8546    0.0000 C   0  0  0  0  0  0  0  0  0
   -0.8698   -6.2671    0.0000 C   0  0  0  0  0  0  0  0  0
   -0.8698   -7.0921    0.0000 C   0  0  0  0  0  0  0  0  0
   -1.5842   -7.5046    0.0000 C   0  0  0  0  0  0  0  0  0
   -2.2987   -7.0921    0.0000 C   0  0  0  0  0  0  0  0  0
   -2.2987   -6.2671    0.0000 C   0  0  0  0  0  0  0  0  0
   -3.0132   -5.8546    0.0000 N   0  0  0  0  0  0  0  0  0
   -3.7668   -6.1901    0.0000 C   0  0  0  0  0  0  0  0  0
   -4.3189   -5.5770    0.0000 C   0  0  0  0  0  0  0  0  0
   -3.9064   -4.8626    0.0000 N   0  0  0  0  0  0  0  0  0
   -3.0994   -5.0341    0.0000 C   0  0  0  0  0  0  0  0  0
   -1.6131   -3.4341    0.0000 C   0  0  0  0  0  0  0  0  0
   -2.2178   -3.9953    0.0000 C   0  0  0  0  0  0  0  0  0
   -3.0062   -3.7521    0.0000 C   0  0  0  0  0  0  0  0  0
    0.4783   -3.9953    0.0000 C   0  0  0  0  0  0  0  0  0
    1.2667   -3.7521    0.0000 C   0  0  0  0  0  0  0  0  0
    1.4502   -2.9478    0.0000 C   0  0  0  0  0  0  0  0  0
    0.8455   -2.3866    0.0000 C   0  0  0  0  0  0  0  0  0
  1  2  1  0  0  0  0
  2  3  4  0  0  0  0
  2 33  4  0  0  0  0
  3  4  4  0  0  0  0
  4  5  1  0  0  0  0
  4 31  4  0  0  0  0
  5  6  2  0  0  0  0
  6  7  1  0  0  0  0
  6 14  1  0  0  0  0
  7  8  1  0  0  0  0
  7 12  1  0  0  0  0
  8  9  1  0  0  0  0
  9 10  1  0  0  0  0
 10 11  1  0  0  0  0
 10 13  1  0  0  0  0
 11 12  1  0  0  0  0
 14 15  4  0  0  0  0
 14 37  4  0  0  0  0
 15 16  1  0  0  0  0
 15 34  4  0  0  0  0
 16 17  1  0  0  0  0
 16 31  1  0  0  0  0
 17 18  1  0  0  0  0
 18 19  2  0  0  0  0
 18 20  1  0  0  0  0
 20 21  4  0  0  0  0
 20 25  4  0  0  0  0
 21 22  4  0  0  0  0
 22 23  4  0  0  0  0
 23 24  4  0  0  0  0
 24 25  4  0  0  0  0
 25 26  1  0  0  0  0
 26 27  4  0  0  0  0
 26 30  4  0  0  0  0
 27 28  4  0  0  0  0
 28 29  4  0  0  0  0
 29 30  4  0  0  0  0
 31 32  4  0  0  0  0
 32 33  4  0  0  0  0
 34 35  4  0  0  0  0
 35 36  4  0  0  0  0
 36 37  4  0  0  0  0
M  END
>  <Name_Molregno>
357669

>  <DOPAMINE D1>
7.06

>  <DOPAMINE D2>
5.52

$$$$
357676
  Marvin  02231216192D 0   1.00000     0.00000     0

 36 40  0  0  0  0  0  0  0  0999 V2000
   -4.3732   -2.4692    0.0000 Cl  0  0  0  0  0  0  0  0  0
   -3.5848   -2.7123    0.0000 C   0  0  0  0  0  0  0  0  0
   -2.9800   -2.1512    0.0000 C   0  0  0  0  0  0  0  0  0
   -2.1917   -2.3944    0.0000 C   0  0  0  0  0  0  0  0  0
   -1.6773   -1.7493    0.0000 N   0  0  0  0  0  0  0  0  0
   -0.8523   -1.7493    0.0000 C   0  0  0  0  0  0  0  0  0
   -0.4944   -1.0060    0.0000 N   0  0  0  0  0  0  0  0  0
   -0.9591   -0.3244    0.0000 C   0  0  0  0  0  0  0  0  0
   -0.6012    0.4189    0.0000 C   0  0  0  0  0  0  0  0  0
    0.2215    0.4806    0.0000 N   0  0  0  0  0  0  0  0  0
    0.6863   -0.2011    0.0000 C   0  0  0  0  0  0  0  0  0
    0.3283   -0.9444    0.0000 C   0  0  0  0  0  0  0  0  0
    0.5795    1.2239    0.0000 C   0  0  0  0  0  0  0  0  0
   -0.3379   -2.3944    0.0000 C   0  0  0  0  0  0  0  0  0
   -0.5215   -3.1987    0.0000 C   0  0  0  0  0  0  0  0  0
   -1.2648   -3.5566    0.0000 N   0  0  0  0  0  0  0  0  0
   -1.2648   -4.3816    0.0000 N   0  0  0  0  0  0  0  0  0
   -0.5504   -4.7941    0.0000 C   0  0  0  0  0  0  0  0  0
    0.1641   -4.3816    0.0000 O   0  0  0  0  0  0  0  0  0
   -0.5504   -5.6191    0.0000 C   0  0  0  0  0  0  0  0  0
    0.1641   -6.0316    0.0000 C   0  0  0  0  0  0  0  0  0
    0.1641   -6.8566    0.0000 C   0  0  0  0  0  0  0  0  0
    0.8786   -7.2691    0.0000 F   0  0  0  0  0  0  0  0  0
   -0.5504   -7.2691    0.0000 C   0  0  0  0  0  0  0  0  0
   -0.5504   -8.0941    0.0000 F   0  0  0  0  0  0  0  0  0
   -1.2648   -6.8566    0.0000 C   0  0  0  0  0  0  0  0  0
   -1.9793   -7.2691    0.0000 F   0  0  0  0  0  0  0  0  0
   -1.2648   -6.0316    0.0000 C   0  0  0  0  0  0  0  0  0
   -1.9793   -5.6191    0.0000 F   0  0  0  0  0  0  0  0  0
   -2.0081   -3.1987    0.0000 C   0  0  0  0  0  0  0  0  0
   -2.6129   -3.7598    0.0000 C   0  0  0  0  0  0  0  0  0
   -3.4012   -3.5166    0.0000 C   0  0  0  0  0  0  0  0  0
    0.0832   -3.7598    0.0000 C   0  0  0  0  0  0  0  0  0
    0.8716   -3.5166    0.0000 C   0  0  0  0  0  0  0  0  0
    1.0552   -2.7123    0.0000 C   0  0  0  0  0  0  0  0  0
    0.4504   -2.1512    0.0000 C   0  0  0  0  0  0  0  0  0
  1  2  1  0  0  0  0
  2  3  4  0  0  0  0
  2 32  4  0  0  0  0
  3  4  4  0  0  0  0
  4  5  1  0  0  0  0
  4 30  4  0  0  0  0
  5  6  2  0  0  0  0
  6  7  1  0  0  0  0
  6 14  1  0  0  0  0
  7  8  1  0  0  0  0
  7 12  1  0  0  0  0
  8  9  1  0  0  0  0
  9 10  1  0  0  0  0
 10 11  1  0  0  0  0
 10 13  1  0  0  0  0
 11 12  1  0  0  0  0
 14 15  4  0  0  0  0
 14 36  4  0  0  0  0
 15 16  1  0  0  0  0
 15 33  4  0  0  0  0
 16 17  1  0  0  0  0
 16 30  1  0  0  0  0
 17 18  1  0  0  0  0
 18 19  2  0  0  0  0
 18 20  1  0  0  0  0
 20 21  4  0  0  0  0
 20 28  4  0  0  0  0
 21 22  4  0  0  0  0
 22 23  1  0  0  0  0
 22 24  4  0  0  0  0
 24 25  1  0  0  0  0
 24 26  4  0  0  0  0
 26 27  1  0  0  0  0
 26 28  4  0  0  0  0
 28 29  1  0  0  0  0
 30 31  4  0  0  0  0
 31 32  4  0  0  0  0
 33 34  4  0  0  0  0
 34 35  4  0  0  0  0
 35 36  4  0  0  0  0
M  END
>  <Name_Molregno>
357676

>  <DOPAMINE D1>
7.49

>  <DOPAMINE D2>
5.89

$$$$
357681
  Marvin  02231216192D 0   1.00000     0.00000     0

 35 39  0  0  0  0  0  0  0  0999 V2000
    5.6474   -0.9582    0.0000 Cl  0  0  0  0  0  0  0  0  0
    4.8591   -1.2013    0.0000 C   0  0  0  0  0  0  0  0  0
    4.2543   -0.6402    0.0000 C   0  0  0  0  0  0  0  0  0
    3.4660   -0.8834    0.0000 C   0  0  0  0  0  0  0  0  0
    3.2824   -1.6877    0.0000 C   0  0  0  0  0  0  0  0  0
    2.5391   -2.0456    0.0000 N   0  0  0  0  0  0  0  0  0
    2.5391   -2.8706    0.0000 N   0  0  0  0  0  0  0  0  0
    1.8246   -3.2831    0.0000 C   0  0  0  0  0  0  0  0  0
    1.1101   -2.8706    0.0000 O   0  0  0  0  0  0  0  0  0
    1.8246   -4.1081    0.0000 C   0  0  0  0  0  0  0  0  0
    2.5391   -4.5206    0.0000 C   0  0  0  0  0  0  0  0  0
    2.5391   -5.3456    0.0000 C   0  0  0  0  0  0  0  0  0
    3.2536   -5.7581    0.0000 O   0  0  0  0  0  0  0  0  0
    3.2536   -6.5831    0.0000 C   0  0  0  0  0  0  0  0  0
    1.8246   -5.7581    0.0000 C   0  0  0  0  0  0  0  0  0
    1.1101   -5.3456    0.0000 C   0  0  0  0  0  0  0  0  0
    1.1101   -4.5206    0.0000 C   0  0  0  0  0  0  0  0  0
    1.7958   -1.6877    0.0000 C   0  0  0  0  0  0  0  0  0
    1.6122   -0.8834    0.0000 C   0  0  0  0  0  0  0  0  0
    2.1266   -0.2384    0.0000 N   0  0  0  0  0  0  0  0  0
    2.9516   -0.2384    0.0000 C   0  0  0  0  0  0  0  0  0
    3.3095    0.5049    0.0000 N   0  0  0  0  0  0  0  0  0
    2.8448    1.1866    0.0000 C   0  0  0  0  0  0  0  0  0
    3.2028    1.9299    0.0000 C   0  0  0  0  0  0  0  0  0
    4.0254    1.9915    0.0000 N   0  0  0  0  0  0  0  0  0
    4.4902    1.3099    0.0000 C   0  0  0  0  0  0  0  0  0
    4.1322    0.5666    0.0000 C   0  0  0  0  0  0  0  0  0
    4.3834    2.7348    0.0000 C   0  0  0  0  0  0  0  0  0
    0.8239   -0.6402    0.0000 C   0  0  0  0  0  0  0  0  0
    0.2191   -1.2013    0.0000 C   0  0  0  0  0  0  0  0  0
   -0.5693   -0.9582    0.0000 Cl  0  0  0  0  0  0  0  0  0
    0.4027   -2.0057    0.0000 C   0  0  0  0  0  0  0  0  0
    1.1910   -2.2488    0.0000 C   0  0  0  0  0  0  0  0  0
    3.8872   -2.2488    0.0000 C   0  0  0  0  0  0  0  0  0
    4.6755   -2.0057    0.0000 C   0  0  0  0  0  0  0  0  0
  1  2  1  0  0  0  0
  2  3  4  0  0  0  0
  2 35  4  0  0  0  0
  3  4  4  0  0  0  0
  4  5  4  0  0  0  0
  4 21  1  0  0  0  0
  5  6  1  0  0  0  0
  5 34  4  0  0  0  0
  6  7  1  0  0  0  0
  6 18  1  0  0  0  0
  7  8  1  0  0  0  0
  8  9  2  0  0  0  0
  8 10  1  0  0  0  0
 10 11  4  0  0  0  0
 10 17  4  0  0  0  0
 11 12  4  0  0  0  0
 12 13  1  0  0  0  0
 12 15  4  0  0  0  0
 13 14  1  0  0  0  0
 15 16  4  0  0  0  0
 16 17  4  0  0  0  0
 18 19  4  0  0  0  0
 18 33  4  0  0  0  0
 19 20  1  0  0  0  0
 19 29  4  0  0  0  0
 20 21  2  0  0  0  0
 21 22  1  0  0  0  0
 22 23  1  0  0  0  0
 22 27  1  0  0  0  0
 23 24  1  0  0  0  0
 24 25  1  0  0  0  0
 25 26  1  0  0  0  0
 25 28  1  0  0  0  0
 26 27  1  0  0  0  0
 29 30  4  0  0  0  0
 30 31  1  0  0  0  0
 30 32  4  0  0  0  0
 32 33  4  0  0  0  0
 34 35  4  0  0  0  0
M  END
>  <Name_Molregno>
357681

>  <DOPAMINE D1>
7.36

>  <DOPAMINE D2>
6.86

$$$$
357875
  Marvin  02231216192D 0   1.00000     0.00000     0

 33 36  0  0  0  0  0  0  0  0999 V2000
    3.1678   -4.1623    0.0000 Cl  0  0  0  0  0  0  0  0  0
    2.3794   -3.9192    0.0000 C   0  0  0  0  0  0  0  0  0
    1.7747   -4.4803    0.0000 C   0  0  0  0  0  0  0  0  0
    0.9863   -4.2371    0.0000 C   0  0  0  0  0  0  0  0  0
    0.4720   -4.8821    0.0000 N   0  0  0  0  0  0  0  0  0
   -0.3530   -4.8821    0.0000 C   0  0  0  0  0  0  0  0  0
   -0.7110   -5.6254    0.0000 N   0  0  0  0  0  0  0  0  0
   -0.2463   -6.3071    0.0000 C   0  0  0  0  0  0  0  0  0
   -0.6042   -7.0504    0.0000 C   0  0  0  0  0  0  0  0  0
   -1.4269   -7.1120    0.0000 N   0  0  0  0  0  0  0  0  0
   -1.8916   -6.4304    0.0000 C   0  0  0  0  0  0  0  0  0
   -1.5337   -5.6871    0.0000 C   0  0  0  0  0  0  0  0  0
   -1.7849   -7.8553    0.0000 C   0  0  0  0  0  0  0  0  0
   -0.8674   -4.2371    0.0000 C   0  0  0  0  0  0  0  0  0
   -0.6838   -3.4328    0.0000 C   0  0  0  0  0  0  0  0  0
    0.0595   -3.0749    0.0000 N   0  0  0  0  0  0  0  0  0
    0.0595   -2.2499    0.0000 N   0  0  0  0  0  0  0  0  0
   -0.6550   -1.8374    0.0000 C   0  0  0  0  0  0  0  0  0
   -1.3695   -2.2499    0.0000 O   0  0  0  0  0  0  0  0  0
   -0.6550   -1.0124    0.0000 C   0  0  0  0  0  0  0  0  0
   -1.3695   -0.5999    0.0000 C   0  0  0  0  0  0  0  0  0
   -1.3695    0.2251    0.0000 C   0  0  0  0  0  0  0  0  0
   -2.0840    0.6376    0.0000 C   0  0  0  0  0  0  0  0  0
    0.0595   -0.5999    0.0000 C   0  0  0  0  0  0  0  0  0
    0.0595    0.2251    0.0000 C   0  0  0  0  0  0  0  0  0
    0.7739    0.6376    0.0000 C   0  0  0  0  0  0  0  0  0
    0.8028   -3.4328    0.0000 C   0  0  0  0  0  0  0  0  0
    1.4075   -2.8717    0.0000 C   0  0  0  0  0  0  0  0  0
    2.1959   -3.1148    0.0000 C   0  0  0  0  0  0  0  0  0
   -1.2886   -2.8717    0.0000 C   0  0  0  0  0  0  0  0  0
   -2.0770   -3.1148    0.0000 C   0  0  0  0  0  0  0  0  0
   -2.2605   -3.9192    0.0000 C   0  0  0  0  0  0  0  0  0
   -1.6558   -4.4803    0.0000 C   0  0  0  0  0  0  0  0  0
  1  2  1  0  0  0  0
  2  3  4  0  0  0  0
  2 29  4  0  0  0  0
  3  4  4  0  0  0  0
  4  5  1  0  0  0  0
  4 27  4  0  0  0  0
  5  6  2  0  0  0  0
  6  7  1  0  0  0  0
  6 14  1  0  0  0  0
  7  8  1  0  0  0  0
  7 12  1  0  0  0  0
  8  9  1  0  0  0  0
  9 10  1  0  0  0  0
 10 11  1  0  0  0  0
 10 13  1  0  0  0  0
 11 12  1  0  0  0  0
 14 15  4  0  0  0  0
 14 33  4  0  0  0  0
 15 16  1  0  0  0  0
 15 30  4  0  0  0  0
 16 17  1  0  0  0  0
 16 27  1  0  0  0  0
 17 18  1  0  0  0  0
 18 19  2  0  0  0  0
 18 20  1  0  0  0  0
 20 21  1  0  0  0  0
 20 24  1  0  0  0  0
 21 22  1  0  0  0  0
 22 23  1  0  0  0  0
 24 25  1  0  0  0  0
 25 26  1  0  0  0  0
 27 28  4  0  0  0  0
 28 29  4  0  0  0  0
 30 31  4  0  0  0  0
 31 32  4  0  0  0  0
 32 33  4  0  0  0  0
M  END
>  <Name_Molregno>
357875

>  <DOPAMINE D1>
7.59

>  <DOPAMINE D2>
5.73

$$$$
361051
  Marvin  02231216192D 0   1.00000     0.00000     0

 23 26  0  0  0  0  0  0  0  0999 V2000
    0.3583    0.2680    0.0000 N   0  0  0  0  0  0  0  0  0
    0.7190   -0.4740    0.0000 C   0  0  0  0  0  0  0  0  0
    1.5965   -0.6861    0.0000 C   0  0  0  0  0  0  0  0  0
    2.3385   -0.3254    0.0000 C   0  0  0  0  0  0  0  0  0
    2.9108   -0.9196    0.0000 C   0  0  0  0  0  0  0  0  0
    2.5225   -1.6476    0.0000 C   0  0  0  0  0  0  0  0  0
    2.7015   -2.5324    0.0000 C   0  0  0  0  0  0  0  0  0
    2.1073   -3.1047    0.0000 N   0  0  0  0  0  0  0  0  0
    1.3145   -2.8763    0.0000 C   0  0  0  0  0  0  0  0  0
    1.1160   -2.0755    0.0000 C   0  0  0  0  0  0  0  0  0
    0.3233   -1.8471    0.0000 C   0  0  0  0  0  0  0  0  0
    0.1247   -1.0463    0.0000 C   0  0  0  0  0  0  0  0  0
   -0.6032   -0.6580    0.0000 C   0  0  0  0  0  0  0  0  0
   -0.4588    0.1542    0.0000 C   0  0  0  0  0  0  0  0  0
   -1.0901    0.6854    0.0000 C   0  0  0  0  0  0  0  0  0
   -1.8657    0.4042    0.0000 C   0  0  0  0  0  0  0  0  0
   -2.0101   -0.4080    0.0000 C   0  0  0  0  0  0  0  0  0
   -1.3788   -0.9392    0.0000 C   0  0  0  0  0  0  0  0  0
    2.3058   -3.9055    0.0000 C   0  0  0  0  0  0  0  0  0
    3.7115   -0.7211    0.0000 C   0  0  0  0  0  0  0  0  0
    3.9400    0.0716    0.0000 C   0  0  0  0  0  0  0  0  0
    3.3677    0.6658    0.0000 C   0  0  0  0  0  0  0  0  0
    2.5669    0.4673    0.0000 C   0  0  0  0  0  0  0  0  0
  1  2  4  0  0  0  0
  1 14  4  0  0  0  0
  2  3  1  0  0  0  0
  2 12  4  0  0  0  0
  3  4  1  0  0  0  0
  4  5  4  0  0  0  0
  4 23  4  0  0  0  0
  5  6  1  0  0  0  0
  5 20  4  0  0  0  0
  6  7  1  0  0  0  0
  7  8  1  0  0  0  0
  8  9  1  0  0  0  0
  8 19  1  0  0  0  0
  9 10  1  0  0  0  0
 10 11  1  0  0  0  0
 11 12  1  0  0  0  0
 12 13  4  0  0  0  0
 13 14  4  0  0  0  0
 13 18  4  0  0  0  0
 14 15  4  0  0  0  0
 15 16  4  0  0  0  0
 16 17  4  0  0  0  0
 17 18  4  0  0  0  0
 20 21  4  0  0  0  0
 21 22  4  0  0  0  0
 22 23  4  0  0  0  0
M  STY  1   1 DAT
M  SAL   1  1   1
M  SDT   1 MRV_IMPLICIT_H                                        
M  SDD   1     0.0000    0.0000    DR    ALL  0       0  
M  SED   1 IMPL_H1
M  END
>  <Name_Molregno>
361051

>  <DOPAMINE D1>
6.7

>  <DOPAMINE D2>
7.07

>  <DOPAMINE D3>
6.28

>  <DOPAMINE D4>
6.74

>  <DOPAMINE D5>
7.1

$$$$
361078
  Marvin  02231216192D 0   1.00000     0.00000     0

 23 26  0  0  0  0  0  0  0  0999 V2000
    0.2199    0.0739    0.0000 N   0  0  0  0  0  0  0  0  0
    0.5806   -0.6681    0.0000 C   0  0  0  0  0  0  0  0  0
    1.4581   -0.8802    0.0000 C   0  0  0  0  0  0  0  0  0
    2.2001   -0.5195    0.0000 C   0  0  0  0  0  0  0  0  0
    2.7724   -1.1137    0.0000 C   0  0  0  0  0  0  0  0  0
    2.3841   -1.8416    0.0000 C   0  0  0  0  0  0  0  0  0
    2.5631   -2.7265    0.0000 C   0  0  0  0  0  0  0  0  0
    1.9689   -3.2988    0.0000 C   0  0  0  0  0  0  0  0  0
    1.1761   -3.0703    0.0000 N   0  0  0  0  0  0  0  0  0
    0.9776   -2.2696    0.0000 C   0  0  0  0  0  0  0  0  0
    0.1849   -2.0411    0.0000 C   0  0  0  0  0  0  0  0  0
   -0.0136   -1.2404    0.0000 C   0  0  0  0  0  0  0  0  0
   -0.7416   -0.8521    0.0000 C   0  0  0  0  0  0  0  0  0
   -0.5972   -0.0398    0.0000 C   0  0  0  0  0  0  0  0  0
   -1.2285    0.4913    0.0000 C   0  0  0  0  0  0  0  0  0
   -2.0041    0.2102    0.0000 C   0  0  0  0  0  0  0  0  0
   -2.1485   -0.6021    0.0000 C   0  0  0  0  0  0  0  0  0
   -1.5172   -1.1332    0.0000 C   0  0  0  0  0  0  0  0  0
    0.5819   -3.6426    0.0000 C   0  0  0  0  0  0  0  0  0
    3.5731   -0.9152    0.0000 C   0  0  0  0  0  0  0  0  0
    3.8016   -0.1224    0.0000 C   0  0  0  0  0  0  0  0  0
    3.2293    0.4718    0.0000 C   0  0  0  0  0  0  0  0  0
    2.4285    0.2733    0.0000 C   0  0  0  0  0  0  0  0  0
  1  2  4  0  0  0  0
  1 14  4  0  0  0  0
  2  3  1  0  0  0  0
  2 12  4  0  0  0  0
  3  4  1  0  0  0  0
  4  5  4  0  0  0  0
  4 23  4  0  0  0  0
  5  6  1  0  0  0  0
  5 20  4  0  0  0  0
  6  7  1  0  0  0  0
  7  8  1  0  0  0  0
  8  9  1  0  0  0  0
  9 10  1  0  0  0  0
  9 19  1  0  0  0  0
 10 11  1  0  0  0  0
 11 12  1  0  0  0  0
 12 13  4  0  0  0  0
 13 14  4  0  0  0  0
 13 18  4  0  0  0  0
 14 15  4  0  0  0  0
 15 16  4  0  0  0  0
 16 17  4  0  0  0  0
 17 18  4  0  0  0  0
 20 21  4  0  0  0  0
 21 22  4  0  0  0  0
 22 23  4  0  0  0  0
M  STY  1   1 DAT
M  SAL   1  1   1
M  SDT   1 MRV_IMPLICIT_H                                        
M  SDD   1     0.0000    0.0000    DR    ALL  0       0  
M  SED   1 IMPL_H1
M  END
>  <Name_Molregno>
361078

>  <DOPAMINE D1>
8.63

>  <DOPAMINE D2>
8.18

>  <DOPAMINE D3>
6.56

>  <DOPAMINE D4>
7.01

>  <DOPAMINE D5>
8.88

$$$$
361616
  Marvin  02231216192D 0   1.00000     0.00000     0

 20 23  0  0  1  0  0  0  0  0999 V2000
   -0.8000    2.9458    0.0000 O   0  0  0  0  0  0  0  0  0
   -0.0855    3.3583    0.0000 C   0  0  0  0  0  0  0  0  0
    0.6290    2.9458    0.0000 C   0  0  0  0  0  0  0  0  0
    1.3435    3.3583    0.0000 N   0  0  0  0  0  0  0  0  0
    2.0579    2.9458    0.0000 C   0  0  0  0  0  0  0  0  0
    2.0579    2.1208    0.0000 C   0  0  0  0  0  0  0  0  0
    1.3435    1.7083    0.0000 C   0  0  0  0  0  0  0  0  0
    0.6290    2.1208    0.0000 C   0  0  0  0  0  0  0  0  0
   -0.0855    1.7083    0.0000 C   0  0  0  0  0  0  0  0  0
   -0.0855    0.8833    0.0000 C   0  0  0  0  0  0  0  0  0
   -0.8000    0.4708    0.0000 C   0  0  0  0  0  0  0  0  0
   -0.8000   -0.3542    0.0000 O   0  0  0  0  0  0  0  0  0
   -1.5144    0.8833    0.0000 C   0  0  0  0  0  0  0  0  0
   -2.2289    0.4708    0.0000 O   0  0  0  0  0  0  0  0  0
   -1.5144    1.7083    0.0000 C   0  0  0  0  0  0  0  0  0
   -0.8000    2.1208    0.0000 C   0  0  0  0  0  0  0  0  0
    1.3435    0.8833    0.0000 C   0  0  0  0  0  0  0  0  0
    2.0579    0.4708    0.0000 C   0  0  0  0  0  0  0  0  0
    2.7724    0.8833    0.0000 C   0  0  0  0  0  0  0  0  0
    2.7724    1.7083    0.0000 C   0  0  0  0  0  0  0  0  0
  1  2  1  0  0  0  0
  1 16  1  0  0  0  0
  2  3  1  0  0  0  0
  3  4  1  0  0  0  0
  3  8  1  0  0  0  0
  4  5  1  0  0  0  0
  5  6  1  0  0  0  0
  6  7  4  0  0  0  0
  6 20  4  0  0  0  0
  7  8  1  0  0  0  0
  7 17  4  0  0  0  0
  8  9  1  0  0  0  0
  9 10  4  0  0  0  0
  9 16  4  0  0  0  0
 10 11  4  0  0  0  0
 11 12  1  0  0  0  0
 11 13  4  0  0  0  0
 13 14  1  0  0  0  0
 13 15  4  0  0  0  0
 15 16  4  0  0  0  0
 17 18  4  0  0  0  0
 18 19  4  0  0  0  0
 19 20  4  0  0  0  0
M  END
>  <Name_Molregno>
361616

>  <Alpha-2A>
6.74

>  <Alpha-2B>
8

>  <Alpha-2C>
8.7

>  <DOPAMINE D1>
7.01

>  <DOPAMINE D2>
5.72

>  <DOPAMINE D3>
6.41

>  <DOPAMINE D4>
7.05

>  <DOPAMINE D5>
8.15

$$$$
373376
  Marvin  02231216192D 0   1.00000     0.00000     0

 20 22  0  0  1  0  0  0  0  0999 V2000
    2.1624   -5.2159    0.0000 Cl  0  0  0  0  0  0  0  0  0
    2.5756   -4.5019    0.0000 C   0  0  0  0  0  0  0  0  0
    2.1638   -3.7870    0.0000 C   0  0  0  0  0  0  0  0  0
    2.5770   -3.0729    0.0000 C   0  0  0  0  0  0  0  0  0
    3.4020   -3.0738    0.0000 C   0  0  0  0  0  0  0  0  0
    3.8138   -3.7886    0.0000 C   0  0  0  0  0  0  0  0  0
    4.6388   -3.7894    0.0000 Cl  0  0  0  0  0  0  0  0  0
    3.4006   -4.5027    0.0000 C   0  0  0  0  0  0  0  0  0
    2.1652   -2.3581    0.0000 C   0  0  0  0  0  0  0  0  0
    2.5784   -1.6440    0.0000 O   0  0  0  0  0  0  0  0  0
    2.1666   -0.9291    0.0000 C   0  0  0  0  0  0  0  0  0
    2.0284   -0.1117    0.0000 C   0  0  0  0  0  0  0  0  0
    1.0996   -0.1272    0.0000 C   0  0  0  0  0  0  0  0  0
    0.5390    0.3127    0.0000 N   0  0  0  0  0  0  0  0  0
    0.6787   -0.5004    0.0000 C   0  0  0  0  0  0  0  0  0
    1.6504   -0.5004    0.0000 C   0  0  0  0  0  0  0  0  0
    0.1588   -1.2127    0.0000 C   0  0  0  0  0  0  0  0  0
    0.7791   -0.8358    0.0000 C   0  0  0  0  0  0  0  0  0
    0.1164    1.0212    0.0000 C   0  0  0  0  0  0  0  0  0
    1.3402   -2.3573    0.0000 O   0  0  0  0  0  0  0  0  0
  1  2  1  0  0  0  0
  2  3  4  0  0  0  0
  2  8  4  0  0  0  0
  3  4  4  0  0  0  0
  4  5  4  0  0  0  0
  4  9  1  0  0  0  0
  5  6  4  0  0  0  0
  6  7  1  0  0  0  0
  6  8  4  0  0  0  0
  9 10  1  0  0  0  0
  9 20  2  0  0  0  0
 10 11  1  0  0  0  0
 11 12  1  0  0  0  0
 11 16  1  0  0  0  0
 12 13  1  0  0  0  0
 13 14  1  0  0  0  0
 13 18  1  0  0  0  0
 14 15  1  0  0  0  0
 14 19  1  0  0  0  0
 15 16  1  0  0  0  0
 15 17  1  0  0  0  0
 17 18  1  0  0  0  0
M  END
>  <Name_Molregno>
373376

>  <5-HT1A>
5

>  <5-HT1D>
5

>  <5-HT3>
8

>  <DOPAMINE D1>
5

>  <DOPAMINE D2>
5

$$$$
382415
  Marvin  02231216192D 0   1.00000     0.00000     0

 18 19  0  0  0  0  0  0  0  0999 V2000
   -0.7360    1.4792    0.0000 S   0  0  0  0  0  0  0  0  0
   -0.9909    0.6946    0.0000 C   0  0  0  0  0  0  0  0  0
   -1.8159    0.6946    0.0000 C   0  0  0  0  0  0  0  0  0
   -2.0709    1.4792    0.0000 N   0  0  0  0  0  0  0  0  0
   -1.4034    1.9642    0.0000 C   0  0  0  0  0  0  0  0  0
   -1.4034    2.7892    0.0000 C   0  0  0  0  0  0  0  0  0
   -0.6890    3.2017    0.0000 F   0  0  0  0  0  0  0  0  0
   -2.3008    0.0272    0.0000 C   0  0  0  0  0  0  0  0  0
   -2.7858   -0.6403    0.0000 C   0  0  0  0  0  0  0  0  0
   -3.2707   -1.3077    0.0000 C   0  0  0  0  0  0  0  0  0
   -2.9351   -2.0614    0.0000 C   0  0  0  0  0  0  0  0  0
   -3.4201   -2.7288    0.0000 C   0  0  0  0  0  0  0  0  0
   -4.2405   -2.6426    0.0000 C   0  0  0  0  0  0  0  0  0
   -4.5761   -1.8889    0.0000 C   0  0  0  0  0  0  0  0  0
   -5.3966   -1.8027    0.0000 F   0  0  0  0  0  0  0  0  0
   -4.0912   -1.2215    0.0000 C   0  0  0  0  0  0  0  0  0
   -3.0845   -3.4825    0.0000 C   0  0  0  0  0  0  0  0  0
   -2.7489   -4.2362    0.0000 N   0  0  0  0  0  0  0  0  0
  1  2  4  0  0  0  0
  1  5  4  0  0  0  0
  2  3  4  0  0  0  0
  3  4  4  0  0  0  0
  3  8  1  0  0  0  0
  4  5  4  0  0  0  0
  5  6  1  0  0  0  0
  6  7  1  0  0  0  0
  8  9  3  0  0  0  0
  9 10  1  0  0  0  0
 10 11  4  0  0  0  0
 10 16  4  0  0  0  0
 11 12  4  0  0  0  0
 12 13  4  0  0  0  0
 12 17  1  0  0  0  0
 13 14  4  0  0  0  0
 14 15  1  0  0  0  0
 14 16  4  0  0  0  0
 17 18  3  0  0  0  0
M  END
>  <Name_Molregno>
382415

>  <5-HT1A>
5

>  <5-HT1B>
5

>  <5-HT1D>
5

>  <5-HT1E>
5

>  <5-HT2A>
5

>  <5-HT2C>
5

>  <5-HT3>
5

>  <5-HT5>
5

>  <5-HT6>
5

>  <5-HT7>
5

>  <Alpha-1A>
5

>  <Alpha-1B>
5

>  <Alpha-2A>
5

>  <Alpha-2B>
5

>  <Alpha-2C>
5

>  <Beta-1>
5

>  <Beta-2>
5

>  <DOPAMINE D1>
5

>  <DOPAMINE D2>
5

>  <DOPAMINE D3>
5

>  <DOPAMINE D4>
5

>  <DOPAMINE D5>
5

>  <Dopamine transporter>
5

>  <HISTAMINE H1>
5

>  <HISTAMINE H2>
5

>  <HISTAMINE H3>
5

>  <HISTAMINE H4>
5

>  <Muscarinic acetylcholine receptor M1>
5

>  <Muscarinic acetylcholine receptor M2>
5

>  <Muscarinic acetylcholine receptor M3>
5

>  <Muscarinic acetylcholine receptor M4>
5

>  <Muscarinic acetylcholine receptor M5>
5

>  <Norepinephrine transporter>
5

>  <Serotonin transporter>
5

$$$$
388818
  Marvin  02231216192D 0   1.00000     0.00000     0

 21 23  0  0  0  0  0  0  0  0999 V2000
    0.4061   -1.1671    0.0000 O   0  0  0  0  0  0  0  0  0
    1.1206   -0.7546    0.0000 C   0  0  0  0  0  0  0  0  0
    1.1206    0.0704    0.0000 C   0  0  0  0  0  0  0  0  0
    1.8351    0.4829    0.0000 C   0  0  0  0  0  0  0  0  0
    1.8351    1.3079    0.0000 C   0  0  0  0  0  0  0  0  0
    2.5966    1.7928    0.0000 C   0  0  0  0  0  0  0  0  0
    2.8515    2.5774    0.0000 C   0  0  0  0  0  0  0  0  0
    3.6765    2.5774    0.0000 N   0  0  0  0  0  0  0  0  0
    3.9314    1.7928    0.0000 C   0  0  0  0  0  0  0  0  0
    4.6930    1.3079    0.0000 C   0  0  0  0  0  0  0  0  0
    4.6930    0.4829    0.0000 C   0  0  0  0  0  0  0  0  0
    3.9785    0.0704    0.0000 C   0  0  0  0  0  0  0  0  0
    3.2640    0.4829    0.0000 C   0  0  0  0  0  0  0  0  0
    2.5495    0.0704    0.0000 C   0  0  0  0  0  0  0  0  0
    2.5495   -0.7546    0.0000 C   0  0  0  0  0  0  0  0  0
    1.8351   -1.1671    0.0000 C   0  0  0  0  0  0  0  0  0
    3.9785   -0.7546    0.0000 C   0  0  0  0  0  0  0  0  0
    4.6930   -1.1671    0.0000 C   0  0  0  0  0  0  0  0  0
    5.4074   -0.7546    0.0000 C   0  0  0  0  0  0  0  0  0
    5.4074    0.0704    0.0000 C   0  0  0  0  0  0  0  0  0
    4.1614    3.2449    0.0000 C   0  0  0  0  0  0  0  0  0
  1  2  1  0  0  0  0
  2  3  4  0  0  0  0
  2 16  4  0  0  0  0
  3  4  4  0  0  0  0
  4  5  1  0  0  0  0
  4 14  4  0  0  0  0
  5  6  1  0  0  0  0
  6  7  1  0  0  0  0
  7  8  1  0  0  0  0
  8  9  1  0  0  0  0
  8 21  1  0  0  0  0
  9 10  1  0  0  0  0
 10 11  1  0  0  0  0
 11 12  4  0  0  0  0
 11 20  4  0  0  0  0
 12 13  1  0  0  0  0
 12 17  4  0  0  0  0
 13 14  1  0  0  0  0
 14 15  4  0  0  0  0
 15 16  4  0  0  0  0
 17 18  4  0  0  0  0
 18 19  4  0  0  0  0
 19 20  4  0  0  0  0
M  END
>  <Name_Molregno>
388818

>  <DOPAMINE D1>
7.86

>  <DOPAMINE D3>
5.21

>  <DOPAMINE D5>
7.77

$$$$
388820
  Marvin  02231216192D 0   1.00000     0.00000     0

 22 24  0  0  0  0  0  0  0  0999 V2000
   -5.6423   -1.0758    0.0000 O   0  0  0  0  0  0  0  0  0
   -5.6423   -1.9008    0.0000 C   0  0  0  0  0  0  0  0  0
   -4.9278   -0.6633    0.0000 C   0  0  0  0  0  0  0  0  0
   -4.9278    0.1617    0.0000 C   0  0  0  0  0  0  0  0  0
   -4.2133    0.5742    0.0000 C   0  0  0  0  0  0  0  0  0
   -4.2133    1.3992    0.0000 C   0  0  0  0  0  0  0  0  0
   -3.4518    1.8841    0.0000 C   0  0  0  0  0  0  0  0  0
   -3.1969    2.6687    0.0000 C   0  0  0  0  0  0  0  0  0
   -2.3719    2.6687    0.0000 N   0  0  0  0  0  0  0  0  0
   -2.1170    1.8841    0.0000 C   0  0  0  0  0  0  0  0  0
   -1.3555    1.3992    0.0000 C   0  0  0  0  0  0  0  0  0
   -1.3555    0.5742    0.0000 C   0  0  0  0  0  0  0  0  0
   -2.0699    0.1617    0.0000 C   0  0  0  0  0  0  0  0  0
   -2.7844    0.5742    0.0000 C   0  0  0  0  0  0  0  0  0
   -3.4989    0.1617    0.0000 C   0  0  0  0  0  0  0  0  0
   -3.4989   -0.6633    0.0000 C   0  0  0  0  0  0  0  0  0
   -4.2133   -1.0758    0.0000 C   0  0  0  0  0  0  0  0  0
   -2.0699   -0.6633    0.0000 C   0  0  0  0  0  0  0  0  0
   -1.3555   -1.0758    0.0000 C   0  0  0  0  0  0  0  0  0
   -0.6410   -0.6633    0.0000 C   0  0  0  0  0  0  0  0  0
   -0.6410    0.1617    0.0000 C   0  0  0  0  0  0  0  0  0
   -1.8870    3.3362    0.0000 C   0  0  0  0  0  0  0  0  0
  1  2  1  0  0  0  0
  1  3  1  0  0  0  0
  3  4  4  0  0  0  0
  3 17  4  0  0  0  0
  4  5  4  0  0  0  0
  5  6  1  0  0  0  0
  5 15  4  0  0  0  0
  6  7  1  0  0  0  0
  7  8  1  0  0  0  0
  8  9  1  0  0  0  0
  9 10  1  0  0  0  0
  9 22  1  0  0  0  0
 10 11  1  0  0  0  0
 11 12  1  0  0  0  0
 12 13  4  0  0  0  0
 12 21  4  0  0  0  0
 13 14  1  0  0  0  0
 13 18  4  0  0  0  0
 14 15  1  0  0  0  0
 15 16  4  0  0  0  0
 16 17  4  0  0  0  0
 18 19  4  0  0  0  0
 19 20  4  0  0  0  0
 20 21  4  0  0  0  0
M  END
>  <Name_Molregno>
388820

>  <DOPAMINE D1>
7.54

>  <DOPAMINE D2>
7.61

>  <DOPAMINE D3>
5.5

>  <DOPAMINE D5>
7.26

$$$$
388822
  Marvin  02231216192D 0   1.00000     0.00000     0

 21 23  0  0  0  0  0  0  0  0999 V2000
    0.4312   -1.1445    0.0000 O   0  0  0  0  0  0  0  0  0
    1.1457   -0.7320    0.0000 C   0  0  0  0  0  0  0  0  0
    1.1457    0.0930    0.0000 C   0  0  0  0  0  0  0  0  0
    1.8601    0.5055    0.0000 C   0  0  0  0  0  0  0  0  0
    1.8601    1.3305    0.0000 C   0  0  0  0  0  0  0  0  0
    2.6217    1.8155    0.0000 C   0  0  0  0  0  0  0  0  0
    2.8766    2.6001    0.0000 N   0  0  0  0  0  0  0  0  0
    3.7016    2.6001    0.0000 C   0  0  0  0  0  0  0  0  0
    3.9565    1.8155    0.0000 C   0  0  0  0  0  0  0  0  0
    4.7180    1.3305    0.0000 C   0  0  0  0  0  0  0  0  0
    4.7180    0.5055    0.0000 C   0  0  0  0  0  0  0  0  0
    4.0036    0.0930    0.0000 C   0  0  0  0  0  0  0  0  0
    3.2891    0.5055    0.0000 C   0  0  0  0  0  0  0  0  0
    2.5746    0.0930    0.0000 C   0  0  0  0  0  0  0  0  0
    2.5746   -0.7320    0.0000 C   0  0  0  0  0  0  0  0  0
    1.8601   -1.1445    0.0000 C   0  0  0  0  0  0  0  0  0
    4.0036   -0.7320    0.0000 C   0  0  0  0  0  0  0  0  0
    4.7180   -1.1445    0.0000 C   0  0  0  0  0  0  0  0  0
    5.4325   -0.7320    0.0000 C   0  0  0  0  0  0  0  0  0
    5.4325    0.0930    0.0000 C   0  0  0  0  0  0  0  0  0
    2.3917    3.2675    0.0000 C   0  0  0  0  0  0  0  0  0
  1  2  1  0  0  0  0
  2  3  4  0  0  0  0
  2 16  4  0  0  0  0
  3  4  4  0  0  0  0
  4  5  1  0  0  0  0
  4 14  4  0  0  0  0
  5  6  1  0  0  0  0
  6  7  1  0  0  0  0
  7  8  1  0  0  0  0
  7 21  1  0  0  0  0
  8  9  1  0  0  0  0
  9 10  1  0  0  0  0
 10 11  1  0  0  0  0
 11 12  4  0  0  0  0
 11 20  4  0  0  0  0
 12 13  1  0  0  0  0
 12 17  4  0  0  0  0
 13 14  1  0  0  0  0
 14 15  4  0  0  0  0
 15 16  4  0  0  0  0
 17 18  4  0  0  0  0
 18 19  4  0  0  0  0
 19 20  4  0  0  0  0
M  END
>  <Name_Molregno>
388822

>  <DOPAMINE D1>
8.53

>  <DOPAMINE D2>
7.38

>  <DOPAMINE D3>
7

>  <DOPAMINE D5>
8.01

$$$$
388823
  Marvin  02231216192D 0   1.00000     0.00000     0

 22 24  0  0  0  0  0  0  0  0999 V2000
   -5.5048   -1.0661    0.0000 O   0  0  0  0  0  0  0  0  0
   -5.5048   -1.8911    0.0000 C   0  0  0  0  0  0  0  0  0
   -4.7903   -0.6536    0.0000 C   0  0  0  0  0  0  0  0  0
   -4.7903    0.1714    0.0000 C   0  0  0  0  0  0  0  0  0
   -4.0758    0.5839    0.0000 C   0  0  0  0  0  0  0  0  0
   -4.0758    1.4089    0.0000 C   0  0  0  0  0  0  0  0  0
   -3.3143    1.8938    0.0000 C   0  0  0  0  0  0  0  0  0
   -3.0594    2.6784    0.0000 N   0  0  0  0  0  0  0  0  0
   -2.2344    2.6784    0.0000 C   0  0  0  0  0  0  0  0  0
   -1.9795    1.8938    0.0000 C   0  0  0  0  0  0  0  0  0
   -1.2179    1.4089    0.0000 C   0  0  0  0  0  0  0  0  0
   -1.2179    0.5839    0.0000 C   0  0  0  0  0  0  0  0  0
   -1.9324    0.1714    0.0000 C   0  0  0  0  0  0  0  0  0
   -2.6469    0.5839    0.0000 C   0  0  0  0  0  0  0  0  0
   -3.3613    0.1714    0.0000 C   0  0  0  0  0  0  0  0  0
   -3.3613   -0.6536    0.0000 C   0  0  0  0  0  0  0  0  0
   -4.0758   -1.0661    0.0000 C   0  0  0  0  0  0  0  0  0
   -1.9324   -0.6536    0.0000 C   0  0  0  0  0  0  0  0  0
   -1.2179   -1.0661    0.0000 C   0  0  0  0  0  0  0  0  0
   -0.5035   -0.6536    0.0000 C   0  0  0  0  0  0  0  0  0
   -0.5035    0.1714    0.0000 C   0  0  0  0  0  0  0  0  0
   -3.5443    3.3458    0.0000 C   0  0  0  0  0  0  0  0  0
  1  2  1  0  0  0  0
  1  3  1  0  0  0  0
  3  4  4  0  0  0  0
  3 17  4  0  0  0  0
  4  5  4  0  0  0  0
  5  6  1  0  0  0  0
  5 15  4  0  0  0  0
  6  7  1  0  0  0  0
  7  8  1  0  0  0  0
  8  9  1  0  0  0  0
  8 22  1  0  0  0  0
  9 10  1  0  0  0  0
 10 11  1  0  0  0  0
 11 12  1  0  0  0  0
 12 13  4  0  0  0  0
 12 21  4  0  0  0  0
 13 14  1  0  0  0  0
 13 18  4  0  0  0  0
 14 15  1  0  0  0  0
 15 16  4  0  0  0  0
 16 17  4  0  0  0  0
 18 19  4  0  0  0  0
 19 20  4  0  0  0  0
 20 21  4  0  0  0  0
M  END
>  <Name_Molregno>
388823

>  <DOPAMINE D1>
7.69

>  <DOPAMINE D2>
7.06

>  <DOPAMINE D3>
6.29

>  <DOPAMINE D5>
8.34

$$$$
388825
  Marvin  02231216192D 0   1.00000     0.00000     0

 22 24  0  0  0  0  0  0  0  0999 V2000
    0.0764   -0.4273    0.0000 O   0  0  0  0  0  0  0  0  0
    0.7909   -0.0148    0.0000 C   0  0  0  0  0  0  0  0  0
    0.7909    0.8102    0.0000 C   0  0  0  0  0  0  0  0  0
    1.5054    1.2227    0.0000 C   0  0  0  0  0  0  0  0  0
    1.5054    2.0477    0.0000 C   0  0  0  0  0  0  0  0  0
    2.2198    2.4602    0.0000 C   0  0  0  0  0  0  0  0  0
    2.2198    3.2852    0.0000 C   0  0  0  0  0  0  0  0  0
    2.9343    3.6977    0.0000 N   0  0  0  0  0  0  0  0  0
    3.6488    3.2852    0.0000 C   0  0  0  0  0  0  0  0  0
    3.6488    2.4602    0.0000 C   0  0  0  0  0  0  0  0  0
    4.3633    2.0477    0.0000 C   0  0  0  0  0  0  0  0  0
    4.3633    1.2227    0.0000 C   0  0  0  0  0  0  0  0  0
    3.6488    0.8102    0.0000 C   0  0  0  0  0  0  0  0  0
    2.9343    1.2227    0.0000 C   0  0  0  0  0  0  0  0  0
    2.2198    0.8102    0.0000 C   0  0  0  0  0  0  0  0  0
    2.2198   -0.0148    0.0000 C   0  0  0  0  0  0  0  0  0
    1.5054   -0.4273    0.0000 C   0  0  0  0  0  0  0  0  0
    3.6488   -0.0148    0.0000 C   0  0  0  0  0  0  0  0  0
    4.3633   -0.4273    0.0000 C   0  0  0  0  0  0  0  0  0
    5.0777   -0.0148    0.0000 C   0  0  0  0  0  0  0  0  0
    5.0777    0.8102    0.0000 C   0  0  0  0  0  0  0  0  0
    2.9343    4.5227    0.0000 C   0  0  0  0  0  0  0  0  0
  1  2  1  0  0  0  0
  2  3  4  0  0  0  0
  2 17  4  0  0  0  0
  3  4  4  0  0  0  0
  4  5  1  0  0  0  0
  4 15  4  0  0  0  0
  5  6  1  0  0  0  0
  6  7  1  0  0  0  0
  7  8  1  0  0  0  0
  8  9  1  0  0  0  0
  8 22  1  0  0  0  0
  9 10  1  0  0  0  0
 10 11  1  0  0  0  0
 11 12  1  0  0  0  0
 12 13  4  0  0  0  0
 12 21  4  0  0  0  0
 13 14  1  0  0  0  0
 13 18  4  0  0  0  0
 14 15  1  0  0  0  0
 15 16  4  0  0  0  0
 16 17  4  0  0  0  0
 18 19  4  0  0  0  0
 19 20  4  0  0  0  0
 20 21  4  0  0  0  0
M  END
>  <Name_Molregno>
388825

>  <DOPAMINE D1>
7.08

>  <DOPAMINE D3>
5.4

>  <DOPAMINE D5>
7.02

$$$$
388826
  Marvin  02231216192D 0   1.00000     0.00000     0

 23 25  0  0  0  0  0  0  0  0999 V2000
    0.3435   -1.6273    0.0000 O   0  0  0  0  0  0  0  0  0
    0.3435   -2.4523    0.0000 C   0  0  0  0  0  0  0  0  0
    1.0580   -1.2148    0.0000 C   0  0  0  0  0  0  0  0  0
    1.0580   -0.3898    0.0000 C   0  0  0  0  0  0  0  0  0
    1.7725    0.0227    0.0000 C   0  0  0  0  0  0  0  0  0
    1.7725    0.8477    0.0000 C   0  0  0  0  0  0  0  0  0
    2.4869    1.2602    0.0000 C   0  0  0  0  0  0  0  0  0
    2.4869    2.0852    0.0000 C   0  0  0  0  0  0  0  0  0
    3.2014    2.4977    0.0000 N   0  0  0  0  0  0  0  0  0
    3.9159    2.0852    0.0000 C   0  0  0  0  0  0  0  0  0
    3.9159    1.2602    0.0000 C   0  0  0  0  0  0  0  0  0
    4.6303    0.8477    0.0000 C   0  0  0  0  0  0  0  0  0
    4.6303    0.0227    0.0000 C   0  0  0  0  0  0  0  0  0
    3.9159   -0.3898    0.0000 C   0  0  0  0  0  0  0  0  0
    3.2014    0.0227    0.0000 C   0  0  0  0  0  0  0  0  0
    2.4869   -0.3898    0.0000 C   0  0  0  0  0  0  0  0  0
    2.4869   -1.2148    0.0000 C   0  0  0  0  0  0  0  0  0
    1.7725   -1.6273    0.0000 C   0  0  0  0  0  0  0  0  0
    3.9159   -1.2148    0.0000 C   0  0  0  0  0  0  0  0  0
    4.6303   -1.6273    0.0000 C   0  0  0  0  0  0  0  0  0
    5.3448   -1.2148    0.0000 C   0  0  0  0  0  0  0  0  0
    5.3448   -0.3898    0.0000 C   0  0  0  0  0  0  0  0  0
    3.2014    3.3227    0.0000 C   0  0  0  0  0  0  0  0  0
  1  2  1  0  0  0  0
  1  3  1  0  0  0  0
  3  4  4  0  0  0  0
  3 18  4  0  0  0  0
  4  5  4  0  0  0  0
  5  6  1  0  0  0  0
  5 16  4  0  0  0  0
  6  7  1  0  0  0  0
  7  8  1  0  0  0  0
  8  9  1  0  0  0  0
  9 10  1  0  0  0  0
  9 23  1  0  0  0  0
 10 11  1  0  0  0  0
 11 12  1  0  0  0  0
 12 13  1  0  0  0  0
 13 14  4  0  0  0  0
 13 22  4  0  0  0  0
 14 15  1  0  0  0  0
 14 19  4  0  0  0  0
 15 16  1  0  0  0  0
 16 17  4  0  0  0  0
 17 18  4  0  0  0  0
 19 20  4  0  0  0  0
 20 21  4  0  0  0  0
 21 22  4  0  0  0  0
M  END
>  <Name_Molregno>
388826

>  <DOPAMINE D1>
7.63

>  <DOPAMINE D3>
5.87

>  <DOPAMINE D5>
7.28

$$$$
388828
  Marvin  02231216192D 0   1.00000     0.00000     0

 22 25  0  0  1  0  0  0  0  0999 V2000
   -1.8111   -3.7737    0.0000 O   0  0  0  0  0  0  0  0  0
   -2.4763   -4.2617    0.0000 C   0  0  0  0  0  0  0  0  0
   -1.9011   -2.9537    0.0000 C   0  0  0  0  0  0  0  0  0
   -1.2358   -2.4657    0.0000 C   0  0  0  0  0  0  0  0  0
   -1.3258   -1.6456    0.0000 C   0  0  0  0  0  0  0  0  0
   -0.5953   -1.2623    0.0000 C   0  0  0  0  0  0  0  0  0
   -0.4396   -0.4521    0.0000 C   0  0  0  0  0  0  0  0  0
   -0.9759    0.1748    0.0000 C   0  0  0  0  0  0  0  0  0
   -1.8004    0.1464    0.0000 N   0  0  0  0  0  0  0  0  0
   -2.2922   -0.5160    0.0000 C   0  0  0  0  0  0  0  0  0
   -2.0810   -1.3135    0.0000 C   0  0  0  0  0  0  0  0  0
   -2.7462   -1.8015    0.0000 C   0  0  0  0  0  0  0  0  0
   -2.6563   -2.6216    0.0000 C   0  0  0  0  0  0  0  0  0
   -3.1167   -0.5445    0.0000 C   0  0  0  0  0  0  0  0  0
   -3.6531    0.0824    0.0000 C   0  0  0  0  0  0  0  0  0
   -3.4973    0.8926    0.0000 C   0  0  0  0  0  0  0  0  0
   -2.7668    1.2760    0.0000 C   0  0  0  0  0  0  0  0  0
   -2.0116    0.9439    0.0000 C   0  0  0  0  0  0  0  0  0
   -4.4641   -0.0686    0.0000 C   0  0  0  0  0  0  0  0  0
   -4.7389   -0.8465    0.0000 C   0  0  0  0  0  0  0  0  0
   -4.2025   -1.4734    0.0000 C   0  0  0  0  0  0  0  0  0
   -3.3915   -1.3224    0.0000 C   0  0  0  0  0  0  0  0  0
  1  2  1  0  0  0  0
  1  3  1  0  0  0  0
  3  4  4  0  0  0  0
  3 13  4  0  0  0  0
  4  5  4  0  0  0  0
  5  6  1  0  0  0  0
  5 11  4  0  0  0  0
  6  7  1  0  0  0  0
  7  8  1  0  0  0  0
  8  9  1  0  0  0  0
  9 10  1  0  0  0  0
  9 18  1  0  0  0  0
 10 11  1  0  0  0  0
 10 14  1  0  0  0  0
 11 12  4  0  0  0  0
 12 13  4  0  0  0  0
 14 15  4  0  0  0  0
 14 22  4  0  0  0  0
 15 16  1  0  0  0  0
 15 19  4  0  0  0  0
 16 17  1  0  0  0  0
 17 18  1  0  0  0  0
 19 20  4  0  0  0  0
 20 21  4  0  0  0  0
 21 22  4  0  0  0  0
M  END
>  <Name_Molregno>
388828

>  <DOPAMINE D1>
5

>  <DOPAMINE D3>
5

>  <DOPAMINE D5>
5

$$$$
388830
  Marvin  02231216192D 0   1.00000     0.00000     0

 20 22  0  0  0  0  0  0  0  0999 V2000
    0.3919   -1.1491    0.0000 O   0  0  0  0  0  0  0  0  0
    1.1064   -0.7366    0.0000 C   0  0  0  0  0  0  0  0  0
    1.1064    0.0884    0.0000 C   0  0  0  0  0  0  0  0  0
    1.8209    0.5009    0.0000 C   0  0  0  0  0  0  0  0  0
    1.8209    1.3259    0.0000 C   0  0  0  0  0  0  0  0  0
    2.5824    1.8108    0.0000 C   0  0  0  0  0  0  0  0  0
    2.8373    2.5955    0.0000 C   0  0  0  0  0  0  0  0  0
    3.6623    2.5955    0.0000 N   0  0  0  0  0  0  0  0  0
    3.9172    1.8108    0.0000 C   0  0  0  0  0  0  0  0  0
    4.6788    1.3259    0.0000 C   0  0  0  0  0  0  0  0  0
    4.6788    0.5009    0.0000 C   0  0  0  0  0  0  0  0  0
    3.9643    0.0884    0.0000 C   0  0  0  0  0  0  0  0  0
    3.2498    0.5009    0.0000 C   0  0  0  0  0  0  0  0  0
    2.5354    0.0884    0.0000 C   0  0  0  0  0  0  0  0  0
    2.5354   -0.7366    0.0000 C   0  0  0  0  0  0  0  0  0
    1.8209   -1.1491    0.0000 C   0  0  0  0  0  0  0  0  0
    3.9643   -0.7366    0.0000 C   0  0  0  0  0  0  0  0  0
    4.6788   -1.1491    0.0000 C   0  0  0  0  0  0  0  0  0
    5.3932   -0.7366    0.0000 C   0  0  0  0  0  0  0  0  0
    5.3932    0.0884    0.0000 C   0  0  0  0  0  0  0  0  0
  1  2  1  0  0  0  0
  2  3  4  0  0  0  0
  2 16  4  0  0  0  0
  3  4  4  0  0  0  0
  4  5  1  0  0  0  0
  4 14  4  0  0  0  0
  5  6  1  0  0  0  0
  6  7  1  0  0  0  0
  7  8  1  0  0  0  0
  8  9  1  0  0  0  0
  9 10  1  0  0  0  0
 10 11  1  0  0  0  0
 11 12  4  0  0  0  0
 11 20  4  0  0  0  0
 12 13  1  0  0  0  0
 12 17  4  0  0  0  0
 13 14  1  0  0  0  0
 14 15  4  0  0  0  0
 15 16  4  0  0  0  0
 17 18  4  0  0  0  0
 18 19  4  0  0  0  0
 19 20  4  0  0  0  0
M  END
>  <Name_Molregno>
388830

>  <DOPAMINE D1>
6.54

>  <DOPAMINE D3>
5.16

>  <DOPAMINE D5>
6.5

$$$$
388833
  Marvin  02231216192D 0   1.00000     0.00000     0

 22 24  0  0  0  0  0  0  0  0999 V2000
    6.9053    1.3157    0.0000 Cl  0  0  0  0  0  0  0  0  0
    6.0895    1.4387    0.0000 C   0  0  0  0  0  0  0  0  0
    5.5751    0.7936    0.0000 C   0  0  0  0  0  0  0  0  0
    4.7594    0.9166    0.0000 C   0  0  0  0  0  0  0  0  0
    4.4579    1.6846    0.0000 C   0  0  0  0  0  0  0  0  0
    4.9723    2.3296    0.0000 C   0  0  0  0  0  0  0  0  0
    5.7881    2.2066    0.0000 C   0  0  0  0  0  0  0  0  0
    6.3025    2.8516    0.0000 O   0  0  0  0  0  0  0  0  0
    6.0011    3.6196    0.0000 C   0  0  0  0  0  0  0  0  0
    4.2450    0.2716    0.0000 C   0  0  0  0  0  0  0  0  0
    3.4292    0.3946    0.0000 C   0  0  0  0  0  0  0  0  0
    2.9148   -0.2505    0.0000 N   0  0  0  0  0  0  0  0  0
    3.2728   -0.9938    0.0000 C   0  0  0  0  0  0  0  0  0
    2.9148   -1.7371    0.0000 C   0  0  0  0  0  0  0  0  0
    2.1105   -1.9206    0.0000 C   0  0  0  0  0  0  0  0  0
    1.4655   -1.4063    0.0000 C   0  0  0  0  0  0  0  0  0
    1.4655   -0.5813    0.0000 C   0  0  0  0  0  0  0  0  0
    2.1105   -0.0669    0.0000 C   0  0  0  0  0  0  0  0  0
    0.7510   -0.1688    0.0000 C   0  0  0  0  0  0  0  0  0
    0.0365   -0.5813    0.0000 C   0  0  0  0  0  0  0  0  0
    0.0365   -1.4063    0.0000 C   0  0  0  0  0  0  0  0  0
    0.7510   -1.8188    0.0000 C   0  0  0  0  0  0  0  0  0
  1  2  1  0  0  0  0
  2  3  4  0  0  0  0
  2  7  4  0  0  0  0
  3  4  4  0  0  0  0
  4  5  4  0  0  0  0
  4 10  1  0  0  0  0
  5  6  4  0  0  0  0
  6  7  4  0  0  0  0
  7  8  1  0  0  0  0
  8  9  1  0  0  0  0
 10 11  1  0  0  0  0
 11 12  1  0  0  0  0
 12 13  1  0  0  0  0
 12 18  1  0  0  0  0
 13 14  1  0  0  0  0
 14 15  1  0  0  0  0
 15 16  1  0  0  0  0
 16 17  4  0  0  0  0
 16 22  4  0  0  0  0
 17 18  1  0  0  0  0
 17 19  4  0  0  0  0
 19 20  4  0  0  0  0
 20 21  4  0  0  0  0
 21 22  4  0  0  0  0
M  END
>  <Name_Molregno>
388833

>  <DOPAMINE D1>
5

>  <DOPAMINE D3>
5

>  <DOPAMINE D5>
5

$$$$
388835
  Marvin  02231216192D 0   1.00000     0.00000     0

 22 25  0  0  1  0  0  0  0  0999 V2000
    5.2148   -0.9932    0.0000 Cl  0  0  0  0  0  0  0  0  0
    4.5505   -0.5040    0.0000 C   0  0  0  0  0  0  0  0  0
    4.6420    0.3159    0.0000 C   0  0  0  0  0  0  0  0  0
    3.9777    0.8051    0.0000 C   0  0  0  0  0  0  0  0  0
    4.0693    1.6251    0.0000 C   0  0  0  0  0  0  0  0  0
    3.4050    2.1143    0.0000 C   0  0  0  0  0  0  0  0  0
    2.6491    1.7836    0.0000 N   0  0  0  0  0  0  0  0  0
    2.5576    0.9637    0.0000 C   0  0  0  0  0  0  0  0  0
    3.2219    0.4745    0.0000 C   0  0  0  0  0  0  0  0  0
    3.1304   -0.3455    0.0000 C   0  0  0  0  0  0  0  0  0
    3.7947   -0.8347    0.0000 C   0  0  0  0  0  0  0  0  0
    3.7032   -1.6546    0.0000 O   0  0  0  0  0  0  0  0  0
    2.9473   -1.9853    0.0000 C   0  0  0  0  0  0  0  0  0
    1.8595    0.5240    0.0000 C   0  0  0  0  0  0  0  0  0
    1.0805    0.7957    0.0000 C   0  0  0  0  0  0  0  0  0
    0.8072    1.5741    0.0000 C   0  0  0  0  0  0  0  0  0
    1.2454    2.2731    0.0000 C   0  0  0  0  0  0  0  0  0
    2.0652    2.3663    0.0000 C   0  0  0  0  0  0  0  0  0
    0.4558    0.2569    0.0000 C   0  0  0  0  0  0  0  0  0
    0.6100   -0.5535    0.0000 C   0  0  0  0  0  0  0  0  0
    1.3890   -0.8252    0.0000 C   0  0  0  0  0  0  0  0  0
    2.0137   -0.2864    0.0000 C   0  0  0  0  0  0  0  0  0
  1  2  1  0  0  0  0
  2  3  4  0  0  0  0
  2 11  4  0  0  0  0
  3  4  4  0  0  0  0
  4  5  1  0  0  0  0
  4  9  4  0  0  0  0
  5  6  1  0  0  0  0
  6  7  1  0  0  0  0
  7  8  1  0  0  0  0
  7 18  1  0  0  0  0
  8  9  1  0  0  0  0
  8 14  1  0  0  0  0
  9 10  4  0  0  0  0
 10 11  4  0  0  0  0
 11 12  1  0  0  0  0
 12 13  1  0  0  0  0
 14 15  4  0  0  0  0
 14 22  4  0  0  0  0
 15 16  1  0  0  0  0
 15 19  4  0  0  0  0
 16 17  1  0  0  0  0
 17 18  1  0  0  0  0
 19 20  4  0  0  0  0
 20 21  4  0  0  0  0
 21 22  4  0  0  0  0
M  END
>  <Name_Molregno>
388835

>  <DOPAMINE D1>
5

>  <DOPAMINE D3>
5

>  <DOPAMINE D5>
5

$$$$
388837
  Marvin  02231216192D 0   1.00000     0.00000     0

 22 24  0  0  0  0  0  0  0  0999 V2000
   -3.9149    0.4801    0.0000 O   0  0  0  0  0  0  0  0  0
   -4.6986    0.7377    0.0000 C   0  0  0  0  0  0  0  0  0
   -3.7460   -0.3274    0.0000 C   0  0  0  0  0  0  0  0  0
   -2.9623   -0.5850    0.0000 C   0  0  0  0  0  0  0  0  0
   -2.7934   -1.3925    0.0000 C   0  0  0  0  0  0  0  0  0
   -1.9243   -1.6369    0.0000 C   0  0  0  0  0  0  0  0  0
   -1.1695   -1.3038    0.0000 C   0  0  0  0  0  0  0  0  0
   -0.6195   -1.9187    0.0000 C   0  0  0  0  0  0  0  0  0
   -1.0344   -2.6318    0.0000 C   0  0  0  0  0  0  0  0  0
   -0.8882   -3.5227    0.0000 C   0  0  0  0  0  0  0  0  0
   -1.5031   -4.0727    0.0000 C   0  0  0  0  0  0  0  0  0
   -2.2869   -3.8151    0.0000 N   0  0  0  0  0  0  0  0  0
   -2.4557   -3.0076    0.0000 C   0  0  0  0  0  0  0  0  0
   -3.2395   -2.7501    0.0000 C   0  0  0  0  0  0  0  0  0
   -3.4084   -1.9425    0.0000 C   0  0  0  0  0  0  0  0  0
   -4.1921   -1.6850    0.0000 C   0  0  0  0  0  0  0  0  0
   -4.3610   -0.8774    0.0000 C   0  0  0  0  0  0  0  0  0
   -2.9018   -4.3651    0.0000 C   0  0  0  0  0  0  0  0  0
    0.1880   -1.7499    0.0000 C   0  0  0  0  0  0  0  0  0
    0.4455   -0.9661    0.0000 C   0  0  0  0  0  0  0  0  0
   -0.1044   -0.3512    0.0000 C   0  0  0  0  0  0  0  0  0
   -0.9120   -0.5200    0.0000 C   0  0  0  0  0  0  0  0  0
  1  2  1  0  0  0  0
  1  3  1  0  0  0  0
  3  4  4  0  0  0  0
  3 17  4  0  0  0  0
  4  5  4  0  0  0  0
  5  6  1  0  0  0  0
  5 15  4  0  0  0  0
  6  7  1  0  0  0  0
  7  8  4  0  0  0  0
  7 22  4  0  0  0  0
  8  9  1  0  0  0  0
  8 19  4  0  0  0  0
  9 10  1  0  0  0  0
 10 11  1  0  0  0  0
 11 12  1  0  0  0  0
 12 13  1  0  0  0  0
 12 18  1  0  0  0  0
 13 14  1  0  0  0  0
 14 15  1  0  0  0  0
 15 16  4  0  0  0  0
 16 17  4  0  0  0  0
 19 20  4  0  0  0  0
 20 21  4  0  0  0  0
 21 22  4  0  0  0  0
M  END
>  <Name_Molregno>
388837

>  <DOPAMINE D1>
6.86

>  <DOPAMINE D3>
4.62

>  <DOPAMINE D5>
7.12

$$$$
388839
  Marvin  02231216192D 0   1.00000     0.00000     0

 21 23  0  0  0  0  0  0  0  0999 V2000
   -4.1818    0.5216    0.0000 O   0  0  0  0  0  0  0  0  0
   -4.0130   -0.2859    0.0000 C   0  0  0  0  0  0  0  0  0
   -3.2292   -0.5435    0.0000 C   0  0  0  0  0  0  0  0  0
   -3.0604   -1.3510    0.0000 C   0  0  0  0  0  0  0  0  0
   -2.1913   -1.5953    0.0000 C   0  0  0  0  0  0  0  0  0
   -1.4365   -1.2623    0.0000 C   0  0  0  0  0  0  0  0  0
   -0.8865   -1.8772    0.0000 C   0  0  0  0  0  0  0  0  0
   -1.3014   -2.5903    0.0000 C   0  0  0  0  0  0  0  0  0
   -1.1552   -3.4812    0.0000 C   0  0  0  0  0  0  0  0  0
   -1.7701   -4.0312    0.0000 C   0  0  0  0  0  0  0  0  0
   -2.5539   -3.7736    0.0000 N   0  0  0  0  0  0  0  0  0
   -2.7227   -2.9661    0.0000 C   0  0  0  0  0  0  0  0  0
   -3.5065   -2.7085    0.0000 C   0  0  0  0  0  0  0  0  0
   -3.6753   -1.9010    0.0000 C   0  0  0  0  0  0  0  0  0
   -4.4591   -1.6434    0.0000 C   0  0  0  0  0  0  0  0  0
   -4.6279   -0.8359    0.0000 C   0  0  0  0  0  0  0  0  0
   -3.1688   -4.3236    0.0000 C   0  0  0  0  0  0  0  0  0
   -0.0790   -1.7084    0.0000 C   0  0  0  0  0  0  0  0  0
    0.1786   -0.9246    0.0000 C   0  0  0  0  0  0  0  0  0
   -0.3714   -0.3097    0.0000 C   0  0  0  0  0  0  0  0  0
   -1.1789   -0.4785    0.0000 C   0  0  0  0  0  0  0  0  0
  1  2  1  0  0  0  0
  2  3  4  0  0  0  0
  2 16  4  0  0  0  0
  3  4  4  0  0  0  0
  4  5  1  0  0  0  0
  4 14  4  0  0  0  0
  5  6  1  0  0  0  0
  6  7  4  0  0  0  0
  6 21  4  0  0  0  0
  7  8  1  0  0  0  0
  7 18  4  0  0  0  0
  8  9  1  0  0  0  0
  9 10  1  0  0  0  0
 10 11  1  0  0  0  0
 11 12  1  0  0  0  0
 11 17  1  0  0  0  0
 12 13  1  0  0  0  0
 13 14  1  0  0  0  0
 14 15  4  0  0  0  0
 15 16  4  0  0  0  0
 18 19  4  0  0  0  0
 19 20  4  0  0  0  0
 20 21  4  0  0  0  0
M  END
>  <Name_Molregno>
388839

>  <DOPAMINE D1>
7.15

>  <DOPAMINE D3>
6.11

>  <DOPAMINE D5>
7.16

$$$$
388843
  Marvin  02231216192D 0   1.00000     0.00000     0

 24 26  0  0  0  0  0  0  0  0999 V2000
    0.5307    3.8725    0.0000 O   0  0  0  0  0  0  0  0  0
   -0.2531    4.1300    0.0000 C   0  0  0  0  0  0  0  0  0
    0.6995    3.0649    0.0000 C   0  0  0  0  0  0  0  0  0
    1.4833    2.8074    0.0000 C   0  0  0  0  0  0  0  0  0
    1.6521    1.9998    0.0000 C   0  0  0  0  0  0  0  0  0
    2.5212    1.7555    0.0000 C   0  0  0  0  0  0  0  0  0
    3.2760    2.0886    0.0000 C   0  0  0  0  0  0  0  0  0
    3.8260    1.4736    0.0000 C   0  0  0  0  0  0  0  0  0
    3.4111    0.7605    0.0000 C   0  0  0  0  0  0  0  0  0
    3.5573   -0.1303    0.0000 C   0  0  0  0  0  0  0  0  0
    2.9424   -0.6803    0.0000 C   0  0  0  0  0  0  0  0  0
    2.1586   -0.4228    0.0000 N   0  0  0  0  0  0  0  0  0
    1.9898    0.3848    0.0000 C   0  0  0  0  0  0  0  0  0
    1.2060    0.6423    0.0000 C   0  0  0  0  0  0  0  0  0
    1.0372    1.4499    0.0000 C   0  0  0  0  0  0  0  0  0
    0.2534    1.7074    0.0000 C   0  0  0  0  0  0  0  0  0
    0.0846    2.5149    0.0000 C   0  0  0  0  0  0  0  0  0
   -0.6992    2.7725    0.0000 O   0  0  0  0  0  0  0  0  0
   -1.3141    2.2225    0.0000 C   0  0  0  0  0  0  0  0  0
    1.5437   -0.9728    0.0000 C   0  0  0  0  0  0  0  0  0
    4.6335    1.6425    0.0000 C   0  0  0  0  0  0  0  0  0
    4.8911    2.4262    0.0000 C   0  0  0  0  0  0  0  0  0
    4.3411    3.0412    0.0000 C   0  0  0  0  0  0  0  0  0
    3.5336    2.8723    0.0000 C   0  0  0  0  0  0  0  0  0
  1  2  1  0  0  0  0
  1  3  1  0  0  0  0
  3  4  4  0  0  0  0
  3 17  4  0  0  0  0
  4  5  4  0  0  0  0
  5  6  1  0  0  0  0
  5 15  4  0  0  0  0
  6  7  1  0  0  0  0
  7  8  4  0  0  0  0
  7 24  4  0  0  0  0
  8  9  1  0  0  0  0
  8 21  4  0  0  0  0
  9 10  1  0  0  0  0
 10 11  1  0  0  0  0
 11 12  1  0  0  0  0
 12 13  1  0  0  0  0
 12 20  1  0  0  0  0
 13 14  1  0  0  0  0
 14 15  1  0  0  0  0
 15 16  4  0  0  0  0
 16 17  4  0  0  0  0
 17 18  1  0  0  0  0
 18 19  1  0  0  0  0
 21 22  4  0  0  0  0
 22 23  4  0  0  0  0
 23 24  4  0  0  0  0
M  END
>  <Name_Molregno>
388843

>  <DOPAMINE D1>
6.24

>  <DOPAMINE D3>
4.83

>  <DOPAMINE D5>
6.29

$$$$
389011
  Marvin  02231216192D 0   1.00000     0.00000     0

 25 26  0  0  1  0  0  0  0  0999 V2000
   -2.9244    1.8604    0.0000 S   0  0  0  0  0  0  0  0  0
   -3.7494    1.8604    0.0000 O   0  0  0  0  0  0  0  0  0
   -2.0994    1.8604    0.0000 O   0  0  0  0  0  0  0  0  0
   -2.9244    2.6854    0.0000 C   0  0  0  0  0  0  0  0  0
   -3.6388    3.0979    0.0000 C   0  0  0  0  0  0  0  0  0
   -2.9244    1.0354    0.0000 C   0  0  0  0  0  0  0  0  0
   -2.2099    0.6229    0.0000 C   0  0  0  0  0  0  0  0  0
   -2.2099   -0.2021    0.0000 C   0  0  0  0  0  0  0  0  0
   -1.4954   -0.6146    0.0000 C   0  0  0  0  0  0  0  0  0
   -0.7810   -0.2021    0.0000 O   0  0  0  0  0  0  0  0  0
   -1.4954   -1.4396    0.0000 N   0  0  0  0  0  0  0  0  0
   -0.7810   -1.8521    0.0000 C   0  0  0  0  0  0  0  0  0
   -0.7810   -2.6771    0.0000 C   0  0  0  0  0  0  0  0  0
   -0.1135   -3.1620    0.0000 N   0  0  0  0  0  0  0  0  0
   -0.3685   -3.9466    0.0000 C   0  0  0  0  0  0  0  0  0
   -1.1935   -3.9466    0.0000 C   0  0  0  0  0  0  0  0  0
   -1.4484   -3.1620    0.0000 C   0  0  0  0  0  0  0  0  0
    0.6711   -2.9071    0.0000 C   0  0  0  0  0  0  0  0  0
    1.2842   -3.4591    0.0000 C   0  0  0  0  0  0  0  0  0
   -2.9244   -0.6146    0.0000 C   0  0  0  0  0  0  0  0  0
   -2.9244   -1.4396    0.0000 O   0  0  0  0  0  0  0  0  0
   -3.6388   -1.8521    0.0000 C   0  0  0  0  0  0  0  0  0
   -3.6388   -0.2021    0.0000 C   0  0  0  0  0  0  0  0  0
   -3.6388    0.6229    0.0000 C   0  0  0  0  0  0  0  0  0
   -4.3533    1.0354    0.0000 N   0  0  0  0  0  0  0  0  0
  1  2  2  0  0  0  0
  1  3  2  0  0  0  0
  1  4  1  0  0  0  0
  1  6  1  0  0  0  0
  4  5  1  0  0  0  0
  6  7  4  0  0  0  0
  6 24  4  0  0  0  0
  7  8  4  0  0  0  0
  8  9  1  0  0  0  0
  8 20  4  0  0  0  0
  9 10  2  0  0  0  0
  9 11  1  0  0  0  0
 11 12  1  0  0  0  0
 12 13  1  0  0  0  0
 13 14  1  0  0  0  0
 13 17  1  0  0  0  0
 14 15  1  0  0  0  0
 14 18  1  0  0  0  0
 15 16  1  0  0  0  0
 16 17  1  0  0  0  0
 18 19  1  0  0  0  0
 20 21  1  0  0  0  0
 20 23  4  0  0  0  0
 21 22  1  0  0  0  0
 23 24  4  0  0  0  0
 24 25  1  0  0  0  0
M  END
>  <Name_Molregno>
389011

>  <5-HT1A>
5

>  <5-HT1B>
5.76

>  <5-HT1D>
5.87

>  <5-HT1E>
5

>  <5-HT2A>
5.64

>  <5-HT2C>
5

>  <5-HT3>
5

>  <5-HT5>
5

>  <5-HT6>
5.38

>  <5-HT7>
7.47

>  <Alpha-1A>
5

>  <Alpha-1B>
5

>  <Alpha-2A>
5.95

>  <Alpha-2C>
5.81

>  <Beta-1>
5

>  <Beta-2>
5

>  <DOPAMINE D1>
5

>  <DOPAMINE D2>
8.71

>  <DOPAMINE D3>
8.51

>  <DOPAMINE D4>
5.63

>  <DOPAMINE D5>
5

>  <Dopamine transporter>
5

>  <HISTAMINE H1>
5

>  <HISTAMINE H2>
5

>  <HISTAMINE H4>
5

>  <Muscarinic acetylcholine receptor M1>
5

>  <Muscarinic acetylcholine receptor M2>
5

>  <Muscarinic acetylcholine receptor M3>
5

>  <Muscarinic acetylcholine receptor M4>
5

>  <Muscarinic acetylcholine receptor M5>
5

>  <Norepinephrine transporter>
5

>  <Serotonin transporter>
5

$$$$
405786
  Marvin  02231216192D 0   1.00000     0.00000     0

 16 18  0  0  1  0  0  0  0  0999 V2000
   -4.1976   -1.0327    0.0000 N   0  0  0  0  0  0  0  0  0
   -4.6825   -0.3653    0.0000 N   0  0  0  0  0  0  0  0  0
   -4.1976    0.3022    0.0000 C   0  0  0  0  0  0  0  0  0
   -3.4129    0.0472    0.0000 C   0  0  0  0  0  0  0  0  0
   -2.6985    0.4597    0.0000 C   0  0  0  0  0  0  0  0  0
   -1.9840    0.0472    0.0000 C   0  0  0  0  0  0  0  0  0
   -1.2695    0.4597    0.0000 N   0  0  0  0  0  0  0  0  0
   -0.5551    0.0472    0.0000 C   0  0  0  0  0  0  0  0  0
   -0.5551   -0.7778    0.0000 C   0  0  0  0  0  0  0  0  0
   -1.2695   -1.1903    0.0000 C   0  0  0  0  0  0  0  0  0
   -1.9840   -0.7778    0.0000 C   0  0  0  0  0  0  0  0  0
   -2.6985   -1.1903    0.0000 C   0  0  0  0  0  0  0  0  0
   -3.4129   -0.7778    0.0000 C   0  0  0  0  0  0  0  0  0
   -1.2695    1.2847    0.0000 C   0  0  0  0  0  0  0  0  0
   -0.5551    1.6972    0.0000 C   0  0  0  0  0  0  0  0  0
   -0.5551    2.5222    0.0000 C   0  0  0  0  0  0  0  0  0
  1  2  4  0  0  0  0
  1 13  4  0  0  0  0
  2  3  4  0  0  0  0
  3  4  4  0  0  0  0
  4  5  1  0  0  0  0
  4 13  4  0  0  0  0
  5  6  1  0  0  0  0
  6  7  1  0  0  0  0
  6 11  1  0  0  0  0
  7  8  1  0  0  0  0
  7 14  1  0  0  0  0
  8  9  1  0  0  0  0
  9 10  1  0  0  0  0
 10 11  1  0  0  0  0
 11 12  1  0  0  0  0
 12 13  1  0  0  0  0
 14 15  1  0  0  0  0
 15 16  1  0  0  0  0
M  STY  1   1 DAT
M  SAL   1  1   1
M  SDT   1 MRV_IMPLICIT_H                                        
M  SDD   1     0.0000    0.0000    DR    ALL  0       0  
M  SED   1 IMPL_H1
M  END
>  <Name_Molregno>
405786

>  <5-HT1A>
5.77

>  <5-HT1B>
5

>  <5-HT1D>
5

>  <5-HT2A>
5.24

>  <5-HT2C>
5.24

>  <Alpha-1A>
5

>  <Alpha-1B>
5

>  <Alpha-2A>
5

>  <Alpha-2B>
5.6

>  <Alpha-2C>
5

>  <Beta-1>
5

>  <Beta-2>
5

>  <DOPAMINE D1>
5

>  <DOPAMINE D2>
6.31

>  <DOPAMINE D3>
7.73

>  <DOPAMINE D4>
7.37

>  <DOPAMINE D5>
5

$$$$
410419
  Marvin  02231216192D 0   1.00000     0.00000     0

 24 27  0  0  0  0  0  0  0  0999 V2000
   -6.1601   -2.0841    0.0000 O   0  0  0  0  0  0  0  0  0
   -6.7089   -2.7002    0.0000 C   0  0  0  0  0  0  0  0  0
   -5.3522   -2.2513    0.0000 C   0  0  0  0  0  0  0  0  0
   -4.8035   -1.6353    0.0000 C   0  0  0  0  0  0  0  0  0
   -3.9956   -1.8025    0.0000 C   0  0  0  0  0  0  0  0  0
   -3.3308   -1.3141    0.0000 C   0  0  0  0  0  0  0  0  0
   -3.2489   -0.4931    0.0000 C   0  0  0  0  0  0  0  0  0
   -2.4970   -0.1536    0.0000 C   0  0  0  0  0  0  0  0  0
   -1.8270   -0.6349    0.0000 N   0  0  0  0  0  0  0  0  0
   -1.0751   -0.2954    0.0000 C   0  0  0  0  0  0  0  0  0
   -0.4051   -0.7767    0.0000 C   0  0  0  0  0  0  0  0  0
   -0.4870   -1.5976    0.0000 C   0  0  0  0  0  0  0  0  0
   -1.2389   -1.9372    0.0000 C   0  0  0  0  0  0  0  0  0
   -1.9089   -1.4559    0.0000 C   0  0  0  0  0  0  0  0  0
   -2.6607   -1.7954    0.0000 C   0  0  0  0  0  0  0  0  0
   -2.9115   -2.5814    0.0000 N   0  0  0  0  0  0  0  0  0
   -3.7365   -2.5858    0.0000 C   0  0  0  0  0  0  0  0  0
   -4.2852   -3.2018    0.0000 C   0  0  0  0  0  0  0  0  0
   -5.0931   -3.0346    0.0000 C   0  0  0  0  0  0  0  0  0
   -1.3207   -2.7581    0.0000 C   0  0  0  0  0  0  0  0  0
   -0.6507   -3.2395    0.0000 C   0  0  0  0  0  0  0  0  0
    0.1012   -2.8999    0.0000 C   0  0  0  0  0  0  0  0  0
    0.1830   -2.0790    0.0000 C   0  0  0  0  0  0  0  0  0
   -2.3758   -1.2510    0.0000 C   0  0  0  0  0  0  0  0  0
  1  2  1  0  0  0  0
  1  3  1  0  0  0  0
  3  4  4  0  0  0  0
  3 19  4  0  0  0  0
  4  5  4  0  0  0  0
  5  6  4  0  0  0  0
  5 17  4  0  0  0  0
  6  7  1  0  0  0  0
  6 15  4  0  0  0  0
  7  8  1  0  0  0  0
  8  9  1  0  0  0  0
  9 10  1  0  0  0  0
  9 24  1  0  0  0  0
 10 11  1  0  0  0  0
 11 12  1  0  0  0  0
 12 13  4  0  0  0  0
 12 23  4  0  0  0  0
 13 14  1  0  0  0  0
 13 20  4  0  0  0  0
 14 15  1  0  0  0  0
 15 16  4  0  0  0  0
 16 17  4  0  0  0  0
 17 18  4  0  0  0  0
 18 19  4  0  0  0  0
 20 21  4  0  0  0  0
 21 22  4  0  0  0  0
 22 23  4  0  0  0  0
M  STY  1   1 DAT
M  SAL   1  1  16
M  SDT   1 MRV_IMPLICIT_H                                        
M  SDD   1     0.0000    0.0000    DR    ALL  0       0  
M  SED   1 IMPL_H1
M  END
>  <Name_Molregno>
410419

>  <DOPAMINE D1>
9.09

>  <DOPAMINE D2>
7.92

>  <DOPAMINE D3>
6.32

>  <DOPAMINE D5>
8.44

$$$$
410420
  Marvin  02231216192D 0   1.00000     0.00000     0

 23 26  0  0  0  0  0  0  0  0999 V2000
   -0.7134   -2.2270    0.0000 O   0  0  0  0  0  0  0  0  0
    0.0945   -2.3942    0.0000 C   0  0  0  0  0  0  0  0  0
    0.6432   -1.7782    0.0000 C   0  0  0  0  0  0  0  0  0
    1.4511   -1.9454    0.0000 C   0  0  0  0  0  0  0  0  0
    2.1159   -1.4569    0.0000 C   0  0  0  0  0  0  0  0  0
    2.1978   -0.6360    0.0000 C   0  0  0  0  0  0  0  0  0
    2.9497   -0.2964    0.0000 C   0  0  0  0  0  0  0  0  0
    3.6197   -0.7778    0.0000 N   0  0  0  0  0  0  0  0  0
    4.3716   -0.4382    0.0000 C   0  0  0  0  0  0  0  0  0
    5.0416   -0.9195    0.0000 C   0  0  0  0  0  0  0  0  0
    4.9597   -1.7405    0.0000 C   0  0  0  0  0  0  0  0  0
    4.2078   -2.0800    0.0000 C   0  0  0  0  0  0  0  0  0
    3.5378   -1.5987    0.0000 C   0  0  0  0  0  0  0  0  0
    2.7860   -1.9383    0.0000 C   0  0  0  0  0  0  0  0  0
    2.5352   -2.7242    0.0000 N   0  0  0  0  0  0  0  0  0
    1.7102   -2.7286    0.0000 C   0  0  0  0  0  0  0  0  0
    1.1615   -3.3447    0.0000 C   0  0  0  0  0  0  0  0  0
    0.3536   -3.1774    0.0000 C   0  0  0  0  0  0  0  0  0
    4.1260   -2.9010    0.0000 C   0  0  0  0  0  0  0  0  0
    4.7960   -3.3823    0.0000 C   0  0  0  0  0  0  0  0  0
    5.5479   -3.0428    0.0000 C   0  0  0  0  0  0  0  0  0
    5.6297   -2.2218    0.0000 C   0  0  0  0  0  0  0  0  0
    3.0709   -1.3938    0.0000 C   0  0  0  0  0  0  0  0  0
  1  2  1  0  0  0  0
  2  3  4  0  0  0  0
  2 18  4  0  0  0  0
  3  4  4  0  0  0  0
  4  5  4  0  0  0  0
  4 16  4  0  0  0  0
  5  6  1  0  0  0  0
  5 14  4  0  0  0  0
  6  7  1  0  0  0  0
  7  8  1  0  0  0  0
  8  9  1  0  0  0  0
  8 23  1  0  0  0  0
  9 10  1  0  0  0  0
 10 11  1  0  0  0  0
 11 12  4  0  0  0  0
 11 22  4  0  0  0  0
 12 13  1  0  0  0  0
 12 19  4  0  0  0  0
 13 14  1  0  0  0  0
 14 15  4  0  0  0  0
 15 16  4  0  0  0  0
 16 17  4  0  0  0  0
 17 18  4  0  0  0  0
 19 20  4  0  0  0  0
 20 21  4  0  0  0  0
 21 22  4  0  0  0  0
M  STY  1   1 DAT
M  SAL   1  1  15
M  SDT   1 MRV_IMPLICIT_H                                        
M  SDD   1     0.0000    0.0000    DR    ALL  0       0  
M  SED   1 IMPL_H1
M  END
>  <Name_Molregno>
410420

>  <DOPAMINE D1>
9.25

>  <DOPAMINE D2>
7.39

>  <DOPAMINE D3>
6.03

>  <DOPAMINE D5>
9.41

$$$$
410422
  Marvin  02231216192D 0   1.00000     0.00000     0

 24 27  0  0  0  0  0  0  0  0999 V2000
    0.4837   -1.0723    0.0000 O   0  0  0  0  0  0  0  0  0
    0.5656   -1.8932    0.0000 C   0  0  0  0  0  0  0  0  0
    1.1537   -0.5909    0.0000 C   0  0  0  0  0  0  0  0  0
    1.0719    0.2300    0.0000 C   0  0  0  0  0  0  0  0  0
    1.7419    0.7114    0.0000 C   0  0  0  0  0  0  0  0  0
    1.6600    1.5323    0.0000 C   0  0  0  0  0  0  0  0  0
    2.3300    2.0137    0.0000 C   0  0  0  0  0  0  0  0  0
    3.0819    1.6741    0.0000 N   0  0  0  0  0  0  0  0  0
    3.7519    2.1554    0.0000 C   0  0  0  0  0  0  0  0  0
    4.5038    1.8159    0.0000 C   0  0  0  0  0  0  0  0  0
    4.5857    0.9949    0.0000 C   0  0  0  0  0  0  0  0  0
    3.9156    0.5136    0.0000 C   0  0  0  0  0  0  0  0  0
    4.1664   -0.2724    0.0000 N   0  0  0  0  0  0  0  0  0
    4.9914   -0.2768    0.0000 C   0  0  0  0  0  0  0  0  0
    5.2505    0.5065    0.0000 C   0  0  0  0  0  0  0  0  0
    6.0584    0.6737    0.0000 C   0  0  0  0  0  0  0  0  0
    6.6071    0.0577    0.0000 C   0  0  0  0  0  0  0  0  0
    6.3480   -0.7256    0.0000 C   0  0  0  0  0  0  0  0  0
    5.5401   -0.8928    0.0000 C   0  0  0  0  0  0  0  0  0
    3.1638    0.8532    0.0000 C   0  0  0  0  0  0  0  0  0
    2.4938    0.3718    0.0000 C   0  0  0  0  0  0  0  0  0
    2.5756   -0.4491    0.0000 C   0  0  0  0  0  0  0  0  0
    1.9056   -0.9305    0.0000 C   0  0  0  0  0  0  0  0  0
    2.6656    0.9618    0.0000 C   0  0  0  0  0  0  0  0  0
  1  2  1  0  0  0  0
  1  3  1  0  0  0  0
  3  4  4  0  0  0  0
  3 23  4  0  0  0  0
  4  5  4  0  0  0  0
  5  6  1  0  0  0  0
  5 21  4  0  0  0  0
  6  7  1  0  0  0  0
  7  8  1  0  0  0  0
  8  9  1  0  0  0  0
  8 24  1  0  0  0  0
  9 10  1  0  0  0  0
 10 11  1  0  0  0  0
 11 12  4  0  0  0  0
 11 15  4  0  0  0  0
 12 13  4  0  0  0  0
 12 20  1  0  0  0  0
 13 14  4  0  0  0  0
 14 15  4  0  0  0  0
 14 19  4  0  0  0  0
 15 16  4  0  0  0  0
 16 17  4  0  0  0  0
 17 18  4  0  0  0  0
 18 19  4  0  0  0  0
 20 21  1  0  0  0  0
 21 22  4  0  0  0  0
 22 23  4  0  0  0  0
M  STY  1   1 DAT
M  SAL   1  1  13
M  SDT   1 MRV_IMPLICIT_H                                        
M  SDD   1     0.0000    0.0000    DR    ALL  0       0  
M  SED   1 IMPL_H1
M  END
>  <Name_Molregno>
410422

>  <DOPAMINE D1>
7.72

>  <DOPAMINE D2>
7.64

>  <DOPAMINE D3>
5.95

>  <DOPAMINE D5>
7.5

$$$$
410423
  Marvin  02231216192D 0   1.00000     0.00000     0

 23 26  0  0  0  0  0  0  0  0999 V2000
    0.5233   -1.9008    0.0000 O   0  0  0  0  0  0  0  0  0
    1.1933   -1.4194    0.0000 C   0  0  0  0  0  0  0  0  0
    1.1115   -0.5985    0.0000 C   0  0  0  0  0  0  0  0  0
    1.7815   -0.1171    0.0000 C   0  0  0  0  0  0  0  0  0
    1.6996    0.7038    0.0000 C   0  0  0  0  0  0  0  0  0
    2.3697    1.1851    0.0000 C   0  0  0  0  0  0  0  0  0
    3.1215    0.8456    0.0000 N   0  0  0  0  0  0  0  0  0
    3.7915    1.3269    0.0000 C   0  0  0  0  0  0  0  0  0
    4.5434    0.9874    0.0000 C   0  0  0  0  0  0  0  0  0
    4.6253    0.1664    0.0000 C   0  0  0  0  0  0  0  0  0
    3.9553   -0.3149    0.0000 C   0  0  0  0  0  0  0  0  0
    4.2060   -1.1009    0.0000 N   0  0  0  0  0  0  0  0  0
    5.0310   -1.1053    0.0000 C   0  0  0  0  0  0  0  0  0
    5.2901   -0.3220    0.0000 C   0  0  0  0  0  0  0  0  0
    6.0980   -0.1548    0.0000 C   0  0  0  0  0  0  0  0  0
    6.6468   -0.7709    0.0000 C   0  0  0  0  0  0  0  0  0
    6.3876   -1.5541    0.0000 C   0  0  0  0  0  0  0  0  0
    5.5798   -1.7213    0.0000 C   0  0  0  0  0  0  0  0  0
    3.2034    0.0246    0.0000 C   0  0  0  0  0  0  0  0  0
    2.5334   -0.4567    0.0000 C   0  0  0  0  0  0  0  0  0
    2.6152   -1.2776    0.0000 C   0  0  0  0  0  0  0  0  0
    1.9452   -1.7590    0.0000 C   0  0  0  0  0  0  0  0  0
    2.7052    0.1333    0.0000 C   0  0  0  0  0  0  0  0  0
  1  2  1  0  0  0  0
  2  3  4  0  0  0  0
  2 22  4  0  0  0  0
  3  4  4  0  0  0  0
  4  5  1  0  0  0  0
  4 20  4  0  0  0  0
  5  6  1  0  0  0  0
  6  7  1  0  0  0  0
  7  8  1  0  0  0  0
  7 23  1  0  0  0  0
  8  9  1  0  0  0  0
  9 10  1  0  0  0  0
 10 11  4  0  0  0  0
 10 14  4  0  0  0  0
 11 12  4  0  0  0  0
 11 19  1  0  0  0  0
 12 13  4  0  0  0  0
 13 14  4  0  0  0  0
 13 18  4  0  0  0  0
 14 15  4  0  0  0  0
 15 16  4  0  0  0  0
 16 17  4  0  0  0  0
 17 18  4  0  0  0  0
 19 20  1  0  0  0  0
 20 21  4  0  0  0  0
 21 22  4  0  0  0  0
M  STY  1   1 DAT
M  SAL   1  1  12
M  SDT   1 MRV_IMPLICIT_H                                        
M  SDD   1     0.0000    0.0000    DR    ALL  0       0  
M  SED   1 IMPL_H1
M  END
>  <Name_Molregno>
410423

>  <DOPAMINE D1>
8.43

>  <DOPAMINE D2>
7.13

>  <DOPAMINE D3>
5.68

>  <DOPAMINE D5>
8.27

$$$$
410425
  Marvin  02231216192D 0   1.00000     0.00000     0

 25 28  0  0  0  0  0  0  0  0999 V2000
   -6.1091   -2.1177    0.0000 O   0  0  0  0  0  0  0  0  0
   -6.6579   -2.7338    0.0000 C   0  0  0  0  0  0  0  0  0
   -5.3012   -2.2850    0.0000 C   0  0  0  0  0  0  0  0  0
   -4.7525   -1.6689    0.0000 C   0  0  0  0  0  0  0  0  0
   -3.9446   -1.8362    0.0000 C   0  0  0  0  0  0  0  0  0
   -3.2798   -1.3477    0.0000 C   0  0  0  0  0  0  0  0  0
   -3.1979   -0.5267    0.0000 C   0  0  0  0  0  0  0  0  0
   -2.4460   -0.1872    0.0000 C   0  0  0  0  0  0  0  0  0
   -1.7760   -0.6685    0.0000 N   0  0  0  0  0  0  0  0  0
   -1.0241   -0.3290    0.0000 C   0  0  0  0  0  0  0  0  0
   -0.3541   -0.8103    0.0000 C   0  0  0  0  0  0  0  0  0
   -0.4360   -1.6313    0.0000 C   0  0  0  0  0  0  0  0  0
   -1.1879   -1.9708    0.0000 C   0  0  0  0  0  0  0  0  0
   -1.8579   -1.4895    0.0000 C   0  0  0  0  0  0  0  0  0
   -2.6097   -1.8290    0.0000 C   0  0  0  0  0  0  0  0  0
   -2.8605   -2.6150    0.0000 N   0  0  0  0  0  0  0  0  0
   -3.6855   -2.6194    0.0000 C   0  0  0  0  0  0  0  0  0
   -4.2342   -3.2354    0.0000 C   0  0  0  0  0  0  0  0  0
   -5.0421   -3.0682    0.0000 C   0  0  0  0  0  0  0  0  0
   -2.3720   -3.2798    0.0000 C   0  0  0  0  0  0  0  0  0
   -1.2697   -2.7918    0.0000 C   0  0  0  0  0  0  0  0  0
   -0.5997   -3.2731    0.0000 C   0  0  0  0  0  0  0  0  0
    0.1522   -2.9335    0.0000 C   0  0  0  0  0  0  0  0  0
    0.2340   -2.1126    0.0000 C   0  0  0  0  0  0  0  0  0
   -2.3248   -1.2846    0.0000 C   0  0  0  0  0  0  0  0  0
  1  2  1  0  0  0  0
  1  3  1  0  0  0  0
  3  4  4  0  0  0  0
  3 19  4  0  0  0  0
  4  5  4  0  0  0  0
  5  6  4  0  0  0  0
  5 17  4  0  0  0  0
  6  7  1  0  0  0  0
  6 15  4  0  0  0  0
  7  8  1  0  0  0  0
  8  9  1  0  0  0  0
  9 10  1  0  0  0  0
  9 25  1  0  0  0  0
 10 11  1  0  0  0  0
 11 12  1  0  0  0  0
 12 13  4  0  0  0  0
 12 24  4  0  0  0  0
 13 14  1  0  0  0  0
 13 21  4  0  0  0  0
 14 15  1  0  0  0  0
 15 16  4  0  0  0  0
 16 17  4  0  0  0  0
 16 20  1  0  0  0  0
 17 18  4  0  0  0  0
 18 19  4  0  0  0  0
 21 22  4  0  0  0  0
 22 23  4  0  0  0  0
 23 24  4  0  0  0  0
M  END
>  <Name_Molregno>
410425

>  <DOPAMINE D1>
8.7

>  <DOPAMINE D2>
8.77

>  <DOPAMINE D3>
8.42

>  <DOPAMINE D5>
9.64

$$$$
421822
  Marvin  02231216192D 0   1.00000     0.00000     0

 21 23  0  0  1  0  0  0  0  0999 V2000
   -3.0222   -2.3693    0.0000 Cl  0  0  0  0  0  0  0  0  0
   -3.0222   -1.5443    0.0000 C   0  0  0  0  0  0  0  0  0
   -2.3077   -1.1318    0.0000 C   0  0  0  0  0  0  0  0  0
   -2.3077   -0.3068    0.0000 C   0  0  0  0  0  0  0  0  0
   -1.5933    0.1057    0.0000 N   0  0  0  0  0  0  0  0  0
   -0.8788   -0.3068    0.0000 C   0  0  0  0  0  0  0  0  0
   -0.1643    0.1057    0.0000 O   0  0  0  0  0  0  0  0  0
   -0.8788   -1.1318    0.0000 C   0  0  0  0  0  0  0  0  0
   -0.0663   -0.9885    0.0000 C   0  0  0  0  0  0  0  0  0
   -1.5933   -1.5443    0.0000 C   0  0  0  0  0  0  0  0  0
   -1.5933   -2.3693    0.0000 O   0  0  0  0  0  0  0  0  0
   -0.5966   -1.9070    0.0000 C   0  0  0  0  0  0  0  0  0
    0.2158   -2.0503    0.0000 C   0  0  0  0  0  0  0  0  0
    0.4980   -2.8255    0.0000 C   0  0  0  0  0  0  0  0  0
   -0.0323   -3.4575    0.0000 C   0  0  0  0  0  0  0  0  0
   -0.8448   -3.3143    0.0000 C   0  0  0  0  0  0  0  0  0
   -1.1269   -2.5390    0.0000 C   0  0  0  0  0  0  0  0  0
   -3.0222    0.1057    0.0000 C   0  0  0  0  0  0  0  0  0
   -3.7367   -0.3068    0.0000 C   0  0  0  0  0  0  0  0  0
   -4.4512    0.1057    0.0000 Cl  0  0  0  0  0  0  0  0  0
   -3.7367   -1.1318    0.0000 C   0  0  0  0  0  0  0  0  0
  1  2  1  0  0  0  0
  2  3  4  0  0  0  0
  2 21  4  0  0  0  0
  3  4  4  0  0  0  0
  3 10  1  0  0  0  0
  4  5  1  0  0  0  0
  4 18  4  0  0  0  0
  5  6  1  0  0  0  0
  6  7  2  0  0  0  0
  6  8  1  0  0  0  0
  8  9  1  0  0  0  0
  8 10  1  0  0  0  0
  8 12  1  0  0  0  0
 10 11  2  0  0  0  0
 12 13  4  0  0  0  0
 12 17  4  0  0  0  0
 13 14  4  0  0  0  0
 14 15  4  0  0  0  0
 15 16  4  0  0  0  0
 16 17  4  0  0  0  0
 18 19  4  0  0  0  0
 19 20  1  0  0  0  0
 19 21  4  0  0  0  0
M  END
>  <Name_Molregno>
421822

>  <5-HT1A>
5

>  <5-HT2A>
5

>  <5-HT2C>
5

>  <5-HT6>
7.26

>  <5-HT7>
5

>  <DOPAMINE D1>
5

>  <DOPAMINE D2>
5

>  <DOPAMINE D3>
5

>  <DOPAMINE D4>
5

$$$$
422032
  Marvin  02231216192D 0   1.00000     0.00000     0

 22 24  0  0  1  0  0  0  0  0999 V2000
    0.2420   -2.2208    0.0000 Cl  0  0  0  0  0  0  0  0  0
    0.2420   -1.3958    0.0000 C   0  0  0  0  0  0  0  0  0
    0.9565   -0.9833    0.0000 C   0  0  0  0  0  0  0  0  0
    0.9565   -0.1583    0.0000 C   0  0  0  0  0  0  0  0  0
    1.6709    0.2542    0.0000 N   0  0  0  0  0  0  0  0  0
    2.3854   -0.1583    0.0000 C   0  0  0  0  0  0  0  0  0
    3.0999    0.2542    0.0000 O   0  0  0  0  0  0  0  0  0
    2.3854   -0.9833    0.0000 C   0  0  0  0  0  0  0  0  0
    3.1979   -0.8401    0.0000 C   0  0  0  0  0  0  0  0  0
    1.6709   -1.3958    0.0000 C   0  0  0  0  0  0  0  0  0
    1.6709   -2.2208    0.0000 O   0  0  0  0  0  0  0  0  0
    2.6676   -1.7586    0.0000 C   0  0  0  0  0  0  0  0  0
    3.4800   -1.9018    0.0000 C   0  0  0  0  0  0  0  0  0
    3.7622   -2.6771    0.0000 C   0  0  0  0  0  0  0  0  0
    4.5747   -2.8203    0.0000 O   0  0  0  0  0  0  0  0  0
    3.2319   -3.3091    0.0000 C   0  0  0  0  0  0  0  0  0
    2.4194   -3.1658    0.0000 C   0  0  0  0  0  0  0  0  0
    2.1373   -2.3906    0.0000 C   0  0  0  0  0  0  0  0  0
    0.2420    0.2542    0.0000 C   0  0  0  0  0  0  0  0  0
   -0.4725   -0.1583    0.0000 C   0  0  0  0  0  0  0  0  0
   -1.1870    0.2542    0.0000 Cl  0  0  0  0  0  0  0  0  0
   -0.4725   -0.9833    0.0000 C   0  0  0  0  0  0  0  0  0
  1  2  1  0  0  0  0
  2  3  4  0  0  0  0
  2 22  4  0  0  0  0
  3  4  4  0  0  0  0
  3 10  1  0  0  0  0
  4  5  1  0  0  0  0
  4 19  4  0  0  0  0
  5  6  1  0  0  0  0
  6  7  2  0  0  0  0
  6  8  1  0  0  0  0
  8  9  1  0  0  0  0
  8 10  1  0  0  0  0
  8 12  1  0  0  0  0
 10 11  2  0  0  0  0
 12 13  4  0  0  0  0
 12 18  4  0  0  0  0
 13 14  4  0  0  0  0
 14 15  1  0  0  0  0
 14 16  4  0  0  0  0
 16 17  4  0  0  0  0
 17 18  4  0  0  0  0
 19 20  4  0  0  0  0
 20 21  1  0  0  0  0
 20 22  4  0  0  0  0
M  END
>  <Name_Molregno>
422032

>  <5-HT1A>
5

>  <5-HT2A>
5

>  <5-HT2C>
5

>  <5-HT6>
7.52

>  <5-HT7>
5

>  <DOPAMINE D1>
5.74

>  <DOPAMINE D2>
5

>  <DOPAMINE D3>
5

>  <DOPAMINE D4>
5

$$$$
422034
  Marvin  02231216192D 0   1.00000     0.00000     0

 22 24  0  0  1  0  0  0  0  0999 V2000
   -3.2883   -2.2141    0.0000 Cl  0  0  0  0  0  0  0  0  0
   -3.2883   -1.3891    0.0000 C   0  0  0  0  0  0  0  0  0
   -2.5738   -0.9766    0.0000 C   0  0  0  0  0  0  0  0  0
   -2.5738   -0.1516    0.0000 C   0  0  0  0  0  0  0  0  0
   -1.8594    0.2609    0.0000 N   0  0  0  0  0  0  0  0  0
   -1.1449   -0.1516    0.0000 C   0  0  0  0  0  0  0  0  0
   -0.4304    0.2609    0.0000 O   0  0  0  0  0  0  0  0  0
   -1.1449   -0.9766    0.0000 C   0  0  0  0  0  0  0  0  0
   -0.3324   -0.8334    0.0000 C   0  0  0  0  0  0  0  0  0
   -1.8594   -1.3891    0.0000 C   0  0  0  0  0  0  0  0  0
   -1.8594   -2.2141    0.0000 O   0  0  0  0  0  0  0  0  0
   -0.8627   -1.7519    0.0000 C   0  0  0  0  0  0  0  0  0
   -0.0503   -1.8951    0.0000 C   0  0  0  0  0  0  0  0  0
    0.2319   -2.6704    0.0000 C   0  0  0  0  0  0  0  0  0
   -0.2984   -3.3024    0.0000 C   0  0  0  0  0  0  0  0  0
   -0.0162   -4.0776    0.0000 O   0  0  0  0  0  0  0  0  0
   -1.1109   -3.1591    0.0000 C   0  0  0  0  0  0  0  0  0
   -1.3930   -2.3839    0.0000 C   0  0  0  0  0  0  0  0  0
   -3.2883    0.2609    0.0000 C   0  0  0  0  0  0  0  0  0
   -4.0028   -0.1516    0.0000 C   0  0  0  0  0  0  0  0  0
   -4.7172    0.2609    0.0000 Cl  0  0  0  0  0  0  0  0  0
   -4.0028   -0.9766    0.0000 C   0  0  0  0  0  0  0  0  0
  1  2  1  0  0  0  0
  2  3  4  0  0  0  0
  2 22  4  0  0  0  0
  3  4  4  0  0  0  0
  3 10  1  0  0  0  0
  4  5  1  0  0  0  0
  4 19  4  0  0  0  0
  5  6  1  0  0  0  0
  6  7  2  0  0  0  0
  6  8  1  0  0  0  0
  8  9  1  0  0  0  0
  8 10  1  0  0  0  0
  8 12  1  0  0  0  0
 10 11  2  0  0  0  0
 12 13  4  0  0  0  0
 12 18  4  0  0  0  0
 13 14  4  0  0  0  0
 14 15  4  0  0  0  0
 15 16  1  0  0  0  0
 15 17  4  0  0  0  0
 17 18  4  0  0  0  0
 19 20  4  0  0  0  0
 20 21  1  0  0  0  0
 20 22  4  0  0  0  0
M  END
>  <Name_Molregno>
422034

>  <5-HT1A>
5

>  <5-HT2A>
5

>  <5-HT2C>
5

>  <5-HT6>
7.91

>  <5-HT7>
5

>  <DOPAMINE D1>
5

>  <DOPAMINE D2>
5

>  <DOPAMINE D3>
5

>  <DOPAMINE D4>
5

$$$$
422042
  Marvin  02231216192D 0   1.00000     0.00000     0

 29 32  0  0  1  0  0  0  0  0999 V2000
   -4.6946   -2.2677    0.0000 Cl  0  0  0  0  0  0  0  0  0
   -4.6946   -1.4427    0.0000 C   0  0  0  0  0  0  0  0  0
   -3.9801   -1.0302    0.0000 C   0  0  0  0  0  0  0  0  0
   -3.9801   -0.2052    0.0000 C   0  0  0  0  0  0  0  0  0
   -3.2656    0.2073    0.0000 N   0  0  0  0  0  0  0  0  0
   -2.5512   -0.2052    0.0000 C   0  0  0  0  0  0  0  0  0
   -1.8367    0.2073    0.0000 O   0  0  0  0  0  0  0  0  0
   -2.5512   -1.0302    0.0000 C   0  0  0  0  0  0  0  0  0
   -1.7387   -0.8870    0.0000 C   0  0  0  0  0  0  0  0  0
   -3.2656   -1.4427    0.0000 C   0  0  0  0  0  0  0  0  0
   -3.2656   -2.2677    0.0000 O   0  0  0  0  0  0  0  0  0
   -2.2690   -1.8055    0.0000 C   0  0  0  0  0  0  0  0  0
   -1.4565   -1.9487    0.0000 C   0  0  0  0  0  0  0  0  0
   -1.1744   -2.7240    0.0000 C   0  0  0  0  0  0  0  0  0
   -0.3619   -2.8672    0.0000 O   0  0  0  0  0  0  0  0  0
   -0.0797   -3.6425    0.0000 C   0  0  0  0  0  0  0  0  0
    0.7327   -3.7857    0.0000 C   0  0  0  0  0  0  0  0  0
    1.2630   -3.1538    0.0000 C   0  0  0  0  0  0  0  0  0
    2.0755   -3.2970    0.0000 C   0  0  0  0  0  0  0  0  0
    2.3577   -4.0723    0.0000 C   0  0  0  0  0  0  0  0  0
    1.8274   -4.7042    0.0000 C   0  0  0  0  0  0  0  0  0
    1.0149   -4.5610    0.0000 C   0  0  0  0  0  0  0  0  0
   -1.7047   -3.3560    0.0000 C   0  0  0  0  0  0  0  0  0
   -2.5171   -3.2127    0.0000 C   0  0  0  0  0  0  0  0  0
   -2.7993   -2.4375    0.0000 C   0  0  0  0  0  0  0  0  0
   -4.6946    0.2073    0.0000 C   0  0  0  0  0  0  0  0  0
   -5.4091   -0.2052    0.0000 C   0  0  0  0  0  0  0  0  0
   -6.1235    0.2073    0.0000 Cl  0  0  0  0  0  0  0  0  0
   -5.4091   -1.0302    0.0000 C   0  0  0  0  0  0  0  0  0
  1  2  1  0  0  0  0
  2  3  4  0  0  0  0
  2 29  4  0  0  0  0
  3  4  4  0  0  0  0
  3 10  1  0  0  0  0
  4  5  1  0  0  0  0
  4 26  4  0  0  0  0
  5  6  1  0  0  0  0
  6  7  2  0  0  0  0
  6  8  1  0  0  0  0
  8  9  1  0  0  0  0
  8 10  1  0  0  0  0
  8 12  1  0  0  0  0
 10 11  2  0  0  0  0
 12 13  4  0  0  0  0
 12 25  4  0  0  0  0
 13 14  4  0  0  0  0
 14 15  1  0  0  0  0
 14 23  4  0  0  0  0
 15 16  1  0  0  0  0
 16 17  1  0  0  0  0
 17 18  4  0  0  0  0
 17 22  4  0  0  0  0
 18 19  4  0  0  0  0
 19 20  4  0  0  0  0
 20 21  4  0  0  0  0
 21 22  4  0  0  0  0
 23 24  4  0  0  0  0
 24 25  4  0  0  0  0
 26 27  4  0  0  0  0
 27 28  1  0  0  0  0
 27 29  4  0  0  0  0
M  END
>  <Name_Molregno>
422042

>  <5-HT1A>
6.77

>  <5-HT2A>
6.14

>  <5-HT2C>
5

>  <5-HT6>
7.08

>  <5-HT7>
6.22

>  <DOPAMINE D1>
6.92

>  <DOPAMINE D2>
5

>  <DOPAMINE D3>
5

>  <DOPAMINE D4>
5

$$$$
424847
  Marvin  02231216192D 0   1.00000     0.00000     0

 27 30  0  0  1  0  0  0  0  0999 V2000
   -0.0168    0.7858    0.0000 O   0  0  0  0  0  0  0  0  0
    0.6977    1.1983    0.0000 C   0  0  0  0  0  0  0  0  0
    0.6977    2.0233    0.0000 O   0  0  0  0  0  0  0  0  0
    1.4122    0.7858    0.0000 C   0  0  0  0  0  0  0  0  0
    2.1267    1.1983    0.0000 C   0  0  0  0  0  0  0  0  0
    2.8411    0.7858    0.0000 C   0  0  0  0  0  0  0  0  0
    3.5556    1.1983    0.0000 C   0  0  0  0  0  0  0  0  0
   -0.7312    1.1983    0.0000 C   0  0  0  0  0  0  0  0  0
   -1.4457    0.7858    0.0000 C   0  0  0  0  0  0  0  0  0
   -2.1602    1.1983    0.0000 C   0  0  0  0  0  0  0  0  0
   -2.8746    0.7858    0.0000 C   0  0  0  0  0  0  0  0  0
   -2.8746   -0.0392    0.0000 C   0  0  0  0  0  0  0  0  0
   -3.5891   -0.4517    0.0000 N   0  0  0  0  0  0  0  0  0
   -3.5891   -1.2767    0.0000 C   0  0  0  0  0  0  0  0  0
   -2.8746   -1.6892    0.0000 C   0  0  0  0  0  0  0  0  0
   -2.1602   -1.2767    0.0000 C   0  0  0  0  0  0  0  0  0
   -2.1602   -0.4517    0.0000 C   0  0  0  0  0  0  0  0  0
   -1.4457   -0.0392    0.0000 C   0  0  0  0  0  0  0  0  0
   -0.7312   -0.4517    0.0000 C   0  0  0  0  0  0  0  0  0
   -0.7312   -1.2767    0.0000 C   0  0  0  0  0  0  0  0  0
   -1.4457   -1.6892    0.0000 C   0  0  0  0  0  0  0  0  0
   -4.3036   -0.0392    0.0000 C   0  0  0  0  0  0  0  0  0
   -4.3036    0.7858    0.0000 C   0  0  0  0  0  0  0  0  0
   -5.0181    1.1983    0.0000 C   0  0  0  0  0  0  0  0  0
   -2.1602    2.0233    0.0000 C   0  0  0  0  0  0  0  0  0
   -1.4457    2.4358    0.0000 C   0  0  0  0  0  0  0  0  0
   -0.7312    2.0233    0.0000 C   0  0  0  0  0  0  0  0  0
  1  2  1  0  0  0  0
  1  8  1  0  0  0  0
  2  3  2  0  0  0  0
  2  4  1  0  0  0  0
  4  5  1  0  0  0  0
  5  6  1  0  0  0  0
  6  7  1  0  0  0  0
  8  9  4  0  0  0  0
  8 27  4  0  0  0  0
  9 10  4  0  0  0  0
  9 18  1  0  0  0  0
 10 11  1  0  0  0  0
 10 25  4  0  0  0  0
 11 12  1  0  0  0  0
 12 13  1  0  0  0  0
 12 17  1  0  0  0  0
 13 14  1  0  0  0  0
 13 22  1  0  0  0  0
 14 15  1  0  0  0  0
 15 16  1  0  0  0  0
 16 17  4  0  0  0  0
 16 21  4  0  0  0  0
 17 18  4  0  0  0  0
 18 19  4  0  0  0  0
 19 20  4  0  0  0  0
 20 21  4  0  0  0  0
 22 23  1  0  0  0  0
 23 24  1  0  0  0  0
 25 26  4  0  0  0  0
 26 27  4  0  0  0  0
M  END
>  <Name_Molregno>
424847

>  <5-HT2A>
7.04

>  <DOPAMINE D1>
7.64

>  <DOPAMINE D2>
5

$$$$
437622
  Marvin  02231216192D 0   1.00000     0.00000     0

 29 31  0  0  1  0  0  0  0  0999 V2000
    4.6273    6.8992    0.0000 F   0  0  0  0  0  0  0  0  0
    4.6273    6.0742    0.0000 C   0  0  0  0  0  0  0  0  0
    5.3417    5.6617    0.0000 C   0  0  0  0  0  0  0  0  0
    5.3417    4.8367    0.0000 C   0  0  0  0  0  0  0  0  0
    4.6273    4.4242    0.0000 C   0  0  0  0  0  0  0  0  0
    3.9128    4.8367    0.0000 C   0  0  0  0  0  0  0  0  0
    3.9128    5.6617    0.0000 C   0  0  0  0  0  0  0  0  0
    4.6273    3.5992    0.0000 C   0  0  0  0  0  0  0  0  0
    5.3417    3.1867    0.0000 C   0  0  0  0  0  0  0  0  0
    5.3417    2.3617    0.0000 N   0  0  0  0  0  0  0  0  0
    6.0562    1.9492    0.0000 C   0  0  0  0  0  0  0  0  0
    6.0562    1.1242    0.0000 C   0  0  0  0  0  0  0  0  0
    5.3417    0.7117    0.0000 C   0  0  0  0  0  0  0  0  0
    4.6273    1.1242    0.0000 C   0  0  0  0  0  0  0  0  0
    4.6273    1.9492    0.0000 C   0  0  0  0  0  0  0  0  0
    5.3417   -0.1133    0.0000 C   0  0  0  0  0  0  0  0  0
    4.6273   -0.5258    0.0000 O   0  0  0  0  0  0  0  0  0
    6.0562   -0.5258    0.0000 C   0  0  0  0  0  0  0  0  0
    6.7707   -0.1133    0.0000 C   0  0  0  0  0  0  0  0  0
    7.4851   -0.5258    0.0000 C   0  0  0  0  0  0  0  0  0
    7.4851   -1.3508    0.0000 C   0  0  0  0  0  0  0  0  0
    6.7707   -1.7633    0.0000 C   0  0  0  0  0  0  0  0  0
    6.7707   -2.5883    0.0000 O   0  0  0  0  0  0  0  0  0
    7.4851   -3.0008    0.0000 C   0  0  0  0  0  0  0  0  0
    7.4851   -3.8258    0.0000 C   0  0  0  0  0  0  0  0  0
    8.1996   -4.2383    0.0000 F   0  0  0  0  0  0  0  0  0
    6.0562   -1.3508    0.0000 C   0  0  0  0  0  0  0  0  0
    5.3417   -1.7633    0.0000 O   0  0  0  0  0  0  0  0  0
    5.3417   -2.5883    0.0000 C   0  0  0  0  0  0  0  0  0
  1  2  1  0  0  0  0
  2  3  4  0  0  0  0
  2  7  4  0  0  0  0
  3  4  4  0  0  0  0
  4  5  4  0  0  0  0
  5  6  4  0  0  0  0
  5  8  1  0  0  0  0
  6  7  4  0  0  0  0
  8  9  1  0  0  0  0
  9 10  1  0  0  0  0
 10 11  1  0  0  0  0
 10 15  1  0  0  0  0
 11 12  1  0  0  0  0
 12 13  1  0  0  0  0
 13 14  1  0  0  0  0
 13 16  1  0  0  0  0
 14 15  1  0  0  0  0
 16 17  1  0  0  0  0
 16 18  1  0  0  0  0
 18 19  4  0  0  0  0
 18 27  4  0  0  0  0
 19 20  4  0  0  0  0
 20 21  4  0  0  0  0
 21 22  4  0  0  0  0
 22 23  1  0  0  0  0
 22 27  4  0  0  0  0
 23 24  1  0  0  0  0
 24 25  1  0  0  0  0
 25 26  1  0  0  0  0
 27 28  1  0  0  0  0
 28 29  1  0  0  0  0
M  END
>  <Name_Molregno>
437622

>  <5-HT1A>
5

>  <5-HT1B>
5.89

>  <5-HT1D>
6.06

>  <5-HT1E>
5

>  <5-HT2C>
7.22

>  <5-HT3>
5

>  <5-HT5>
5.09

>  <5-HT6>
5.41

>  <5-HT7>
7.09

>  <Alpha-1A>
6.47

>  <Alpha-1B>
6.4

>  <Alpha-2A>
5

>  <Alpha-2C>
6.83

>  <DOPAMINE D1>
5.74

>  <DOPAMINE D2>
5.29

>  <DOPAMINE D4>
6.31

>  <DOPAMINE D5>
5.13

>  <Dopamine transporter>
5

>  <HISTAMINE H1>
6.36

>  <HISTAMINE H2>
5.56

>  <HISTAMINE H3>
5

>  <Serotonin transporter>
5.55

$$$$
449491
  Marvin  02231216192D 0   1.00000     0.00000     0

 21 23  0  0  0  0  0  0  0  0999 V2000
    0.3739   -2.1264    0.0000 O   0  0  0  0  0  0  0  0  0
    1.0883   -1.7139    0.0000 C   0  0  0  0  0  0  0  0  0
    1.0883   -0.8889    0.0000 C   0  0  0  0  0  0  0  0  0
    1.8028   -0.4764    0.0000 C   0  0  0  0  0  0  0  0  0
    1.8028    0.3486    0.0000 C   0  0  0  0  0  0  0  0  0
    2.5173    0.7611    0.0000 C   0  0  0  0  0  0  0  0  0
    3.2318    0.3486    0.0000 N   0  0  0  0  0  0  0  0  0
    3.9462    0.7611    0.0000 C   0  0  0  0  0  0  0  0  0
    4.6607    0.3486    0.0000 C   0  0  0  0  0  0  0  0  0
    4.6607   -0.4764    0.0000 C   0  0  0  0  0  0  0  0  0
    3.9462   -0.8889    0.0000 C   0  0  0  0  0  0  0  0  0
    3.2318   -0.4764    0.0000 C   0  0  0  0  0  0  0  0  0
    2.5173   -0.8889    0.0000 C   0  0  0  0  0  0  0  0  0
    2.5173   -1.7139    0.0000 C   0  0  0  0  0  0  0  0  0
    1.8028   -2.1264    0.0000 C   0  0  0  0  0  0  0  0  0
    3.9462   -1.7139    0.0000 C   0  0  0  0  0  0  0  0  0
    4.6607   -2.1264    0.0000 C   0  0  0  0  0  0  0  0  0
    5.3752   -1.7139    0.0000 C   0  0  0  0  0  0  0  0  0
    5.3752   -0.8889    0.0000 C   0  0  0  0  0  0  0  0  0
    3.2318    1.1736    0.0000 C   0  0  0  0  0  0  0  0  0
    3.9462    1.5861    0.0000 C   0  0  0  0  0  0  0  0  0
  1  2  1  0  0  0  0
  2  3  4  0  0  0  0
  2 15  4  0  0  0  0
  3  4  4  0  0  0  0
  4  5  1  0  0  0  0
  4 13  4  0  0  0  0
  5  6  1  0  0  0  0
  6  7  1  0  0  0  0
  7  8  1  0  0  0  0
  7 20  1  0  0  0  0
  8  9  1  0  0  0  0
  9 10  1  0  0  0  0
 10 11  4  0  0  0  0
 10 19  4  0  0  0  0
 11 12  1  0  0  0  0
 11 16  4  0  0  0  0
 12 13  1  0  0  0  0
 13 14  4  0  0  0  0
 14 15  4  0  0  0  0
 16 17  4  0  0  0  0
 17 18  4  0  0  0  0
 18 19  4  0  0  0  0
 20 21  1  0  0  0  0
M  END
>  <Name_Molregno>
449491

>  <DOPAMINE D1>
8.43

>  <DOPAMINE D2>
7.11

$$$$
449492
  Marvin  02231216192D 0   1.00000     0.00000     0

 19 21  0  0  0  0  0  0  0  0999 V2000
    0.3438   -1.6365    0.0000 O   0  0  0  0  0  0  0  0  0
    1.0583   -1.2240    0.0000 C   0  0  0  0  0  0  0  0  0
    1.0583   -0.3990    0.0000 C   0  0  0  0  0  0  0  0  0
    1.7728    0.0135    0.0000 C   0  0  0  0  0  0  0  0  0
    1.7728    0.8385    0.0000 C   0  0  0  0  0  0  0  0  0
    2.4873    1.2510    0.0000 C   0  0  0  0  0  0  0  0  0
    3.2017    0.8385    0.0000 N   0  0  0  0  0  0  0  0  0
    3.9162    1.2510    0.0000 C   0  0  0  0  0  0  0  0  0
    4.6307    0.8385    0.0000 C   0  0  0  0  0  0  0  0  0
    4.6307    0.0135    0.0000 C   0  0  0  0  0  0  0  0  0
    3.9162   -0.3990    0.0000 C   0  0  0  0  0  0  0  0  0
    3.2017    0.0135    0.0000 C   0  0  0  0  0  0  0  0  0
    2.4873   -0.3990    0.0000 C   0  0  0  0  0  0  0  0  0
    2.4873   -1.2240    0.0000 C   0  0  0  0  0  0  0  0  0
    1.7728   -1.6365    0.0000 C   0  0  0  0  0  0  0  0  0
    3.9162   -1.2240    0.0000 C   0  0  0  0  0  0  0  0  0
    4.6307   -1.6365    0.0000 C   0  0  0  0  0  0  0  0  0
    5.3451   -1.2240    0.0000 C   0  0  0  0  0  0  0  0  0
    5.3451   -0.3990    0.0000 C   0  0  0  0  0  0  0  0  0
  1  2  1  0  0  0  0
  2  3  4  0  0  0  0
  2 15  4  0  0  0  0
  3  4  4  0  0  0  0
  4  5  1  0  0  0  0
  4 13  4  0  0  0  0
  5  6  1  0  0  0  0
  6  7  1  0  0  0  0
  7  8  1  0  0  0  0
  8  9  1  0  0  0  0
  9 10  1  0  0  0  0
 10 11  4  0  0  0  0
 10 19  4  0  0  0  0
 11 12  1  0  0  0  0
 11 16  4  0  0  0  0
 12 13  1  0  0  0  0
 13 14  4  0  0  0  0
 14 15  4  0  0  0  0
 16 17  4  0  0  0  0
 17 18  4  0  0  0  0
 18 19  4  0  0  0  0
M  END
>  <Name_Molregno>
449492

>  <DOPAMINE D1>
7.2

>  <DOPAMINE D2>
6.41

$$$$
468358
  Marvin  02231216192D 0   1.00000     0.00000     0

 24 28  0  0  1  0  0  0  0  0999 V2000
   -4.5437   -0.2102    0.0000 S   0  0  0  0  0  0  0  0  0
   -3.7192   -0.1834    0.0000 C   0  0  0  0  0  0  0  0  0
   -3.1874    0.4473    0.0000 C   0  0  0  0  0  0  0  0  0
   -3.4677    1.2232    0.0000 C   0  0  0  0  0  0  0  0  0
   -2.9358    1.8539    0.0000 C   0  0  0  0  0  0  0  0  0
   -2.1237    1.7087    0.0000 N   0  0  0  0  0  0  0  0  0
   -1.8434    0.9328    0.0000 C   0  0  0  0  0  0  0  0  0
   -1.0313    0.7876    0.0000 C   0  0  0  0  0  0  0  0  0
   -0.7510    0.0116    0.0000 C   0  0  0  0  0  0  0  0  0
   -1.2828   -0.6191    0.0000 C   0  0  0  0  0  0  0  0  0
   -2.0949   -0.4739    0.0000 C   0  0  0  0  0  0  0  0  0
   -2.3752    0.3021    0.0000 C   0  0  0  0  0  0  0  0  0
   -2.6268   -1.1046    0.0000 C   0  0  0  0  0  0  0  0  0
   -3.4389   -0.9593    0.0000 C   0  0  0  0  0  0  0  0  0
   -4.0902   -1.4657    0.0000 N   0  0  0  0  0  0  0  0  0
   -4.7731   -1.0027    0.0000 C   0  0  0  0  0  0  0  0  0
   -5.5490   -1.2830    0.0000 N   0  0  0  0  0  0  0  0  0
   -1.0025   -1.3950    0.0000 C   0  0  0  0  0  0  0  0  0
   -1.5343   -2.0257    0.0000 O   0  0  0  0  0  0  0  0  0
   -0.1904   -1.5402    0.0000 C   0  0  0  0  0  0  0  0  0
    0.0899   -2.3161    0.0000 O   0  0  0  0  0  0  0  0  0
    0.3414   -0.9095    0.0000 C   0  0  0  0  0  0  0  0  0
    0.0611   -0.1336    0.0000 C   0  0  0  0  0  0  0  0  0
   -1.5919    2.3394    0.0000 C   0  0  0  0  0  0  0  0  0
  1  2  4  0  0  0  0
  1 16  4  0  0  0  0
  2  3  4  0  0  0  0
  2 14  4  0  0  0  0
  3  4  1  0  0  0  0
  3 12  4  0  0  0  0
  4  5  1  0  0  0  0
  5  6  1  0  0  0  0
  6  7  1  0  0  0  0
  6 24  1  0  0  0  0
  7  8  1  0  0  0  0
  7 12  1  0  0  0  0
  8  9  1  0  0  0  0
  9 10  4  0  0  0  0
  9 23  4  0  0  0  0
 10 11  1  0  0  0  0
 10 18  4  0  0  0  0
 11 12  4  0  0  0  0
 11 13  4  0  0  0  0
 13 14  4  0  0  0  0
 14 15  4  0  0  0  0
 15 16  4  0  0  0  0
 16 17  1  0  0  0  0
 18 19  1  0  0  0  0
 18 20  4  0  0  0  0
 20 21  1  0  0  0  0
 20 22  4  0  0  0  0
 22 23  4  0  0  0  0
M  END
>  <Name_Molregno>
468358

>  <DOPAMINE D1>
5.6

>  <DOPAMINE D2>
6.48

$$$$
468359
  Marvin  02231216192D 0   1.00000     0.00000     0

 27 30  0  0  1  0  0  0  0  0999 V2000
   -0.1333    0.6116    0.0000 O   0  0  0  0  0  0  0  0  0
    0.5812    1.0241    0.0000 C   0  0  0  0  0  0  0  0  0
    0.5812    1.8491    0.0000 O   0  0  0  0  0  0  0  0  0
    1.2957    0.6116    0.0000 C   0  0  0  0  0  0  0  0  0
    2.0101    1.0241    0.0000 C   0  0  0  0  0  0  0  0  0
    2.7246    0.6116    0.0000 C   0  0  0  0  0  0  0  0  0
    3.4391    1.0241    0.0000 C   0  0  0  0  0  0  0  0  0
   -0.8478    1.0241    0.0000 C   0  0  0  0  0  0  0  0  0
   -1.5622    0.6116    0.0000 C   0  0  0  0  0  0  0  0  0
   -1.5622   -0.2134    0.0000 C   0  0  0  0  0  0  0  0  0
   -0.8478   -0.6259    0.0000 C   0  0  0  0  0  0  0  0  0
   -0.8478   -1.4509    0.0000 C   0  0  0  0  0  0  0  0  0
   -0.1333   -1.8634    0.0000 O   0  0  0  0  0  0  0  0  0
   -0.1333   -2.6884    0.0000 C   0  0  0  0  0  0  0  0  0
   -1.5622   -1.8634    0.0000 C   0  0  0  0  0  0  0  0  0
   -2.2767   -1.4509    0.0000 C   0  0  0  0  0  0  0  0  0
   -2.9912   -1.8634    0.0000 C   0  0  0  0  0  0  0  0  0
   -3.7056   -1.4509    0.0000 C   0  0  0  0  0  0  0  0  0
   -3.7056   -0.6259    0.0000 N   0  0  0  0  0  0  0  0  0
   -2.9912   -0.2134    0.0000 C   0  0  0  0  0  0  0  0  0
   -2.9912    0.6116    0.0000 C   0  0  0  0  0  0  0  0  0
   -2.2767    1.0241    0.0000 C   0  0  0  0  0  0  0  0  0
   -2.2767    1.8491    0.0000 C   0  0  0  0  0  0  0  0  0
   -1.5622    2.2616    0.0000 C   0  0  0  0  0  0  0  0  0
   -0.8478    1.8491    0.0000 C   0  0  0  0  0  0  0  0  0
   -2.2767   -0.6259    0.0000 C   0  0  0  0  0  0  0  0  0
   -4.4201   -0.2134    0.0000 C   0  0  0  0  0  0  0  0  0
  1  2  1  0  0  0  0
  1  8  1  0  0  0  0
  2  3  2  0  0  0  0
  2  4  1  0  0  0  0
  4  5  1  0  0  0  0
  5  6  1  0  0  0  0
  6  7  1  0  0  0  0
  8  9  4  0  0  0  0
  8 25  4  0  0  0  0
  9 10  1  0  0  0  0
  9 22  4  0  0  0  0
 10 11  4  0  0  0  0
 10 26  4  0  0  0  0
 11 12  4  0  0  0  0
 12 13  1  0  0  0  0
 12 15  4  0  0  0  0
 13 14  1  0  0  0  0
 15 16  4  0  0  0  0
 16 17  1  0  0  0  0
 16 26  4  0  0  0  0
 17 18  1  0  0  0  0
 18 19  1  0  0  0  0
 19 20  1  0  0  0  0
 19 27  1  0  0  0  0
 20 21  1  0  0  0  0
 20 26  1  0  0  0  0
 21 22  1  0  0  0  0
 22 23  4  0  0  0  0
 23 24  4  0  0  0  0
 24 25  4  0  0  0  0
M  END
>  <Name_Molregno>
468359

>  <DOPAMINE D1>
6.94

$$$$
468446
  Marvin  02231216192D 0   1.00000     0.00000     0

 21 24  0  0  1  0  0  0  0  0999 V2000
   -2.1430    4.0628    0.0000 O   0  0  0  0  0  0  0  0  0
   -1.4286    4.4753    0.0000 C   0  0  0  0  0  0  0  0  0
   -2.1430    3.2378    0.0000 C   0  0  0  0  0  0  0  0  0
   -1.4286    2.8253    0.0000 C   0  0  0  0  0  0  0  0  0
   -1.4286    2.0003    0.0000 C   0  0  0  0  0  0  0  0  0
   -0.7141    1.5878    0.0000 C   0  0  0  0  0  0  0  0  0
   -0.7141    0.7628    0.0000 C   0  0  0  0  0  0  0  0  0
   -1.4286    0.3503    0.0000 C   0  0  0  0  0  0  0  0  0
   -2.1430    0.7628    0.0000 C   0  0  0  0  0  0  0  0  0
   -2.8575    0.3503    0.0000 N   0  0  0  0  0  0  0  0  0
   -3.5720    0.7628    0.0000 C   0  0  0  0  0  0  0  0  0
   -3.5720    1.5878    0.0000 C   0  0  0  0  0  0  0  0  0
   -2.8575    2.0003    0.0000 C   0  0  0  0  0  0  0  0  0
   -2.8575    2.8253    0.0000 C   0  0  0  0  0  0  0  0  0
   -2.1430    1.5878    0.0000 C   0  0  0  0  0  0  0  0  0
   -2.8575   -0.4747    0.0000 C   0  0  0  0  0  0  0  0  0
    0.0004    0.3503    0.0000 C   0  0  0  0  0  0  0  0  0
    0.7148    0.7628    0.0000 C   0  0  0  0  0  0  0  0  0
    0.7148    1.5878    0.0000 C   0  0  0  0  0  0  0  0  0
    0.0004    2.0003    0.0000 C   0  0  0  0  0  0  0  0  0
    0.0004    2.8253    0.0000 N   0  0  0  0  0  0  0  0  0
  1  2  1  0  0  0  0
  1  3  1  0  0  0  0
  3  4  4  0  0  0  0
  3 14  4  0  0  0  0
  4  5  4  0  0  0  0
  5  6  1  0  0  0  0
  5 15  4  0  0  0  0
  6  7  4  0  0  0  0
  6 20  4  0  0  0  0
  7  8  1  0  0  0  0
  7 17  4  0  0  0  0
  8  9  1  0  0  0  0
  9 10  1  0  0  0  0
  9 15  1  0  0  0  0
 10 11  1  0  0  0  0
 10 16  1  0  0  0  0
 11 12  1  0  0  0  0
 12 13  1  0  0  0  0
 13 14  4  0  0  0  0
 13 15  4  0  0  0  0
 17 18  4  0  0  0  0
 18 19  4  0  0  0  0
 19 20  4  0  0  0  0
 20 21  1  0  0  0  0
M  END
>  <Name_Molregno>
468446

>  <DOPAMINE D1>
7.11

$$$$
468447
  Marvin  02231216192D 0   1.00000     0.00000     0

 20 23  0  0  1  0  0  0  0  0999 V2000
    0.0406   -2.4422    0.0000 N   0  0  0  0  0  0  0  0  0
    0.0406   -1.6172    0.0000 C   0  0  0  0  0  0  0  0  0
   -0.6738   -1.2047    0.0000 C   0  0  0  0  0  0  0  0  0
   -1.3883   -1.6172    0.0000 C   0  0  0  0  0  0  0  0  0
   -1.3883   -2.4422    0.0000 C   0  0  0  0  0  0  0  0  0
   -2.1028   -2.8547    0.0000 C   0  0  0  0  0  0  0  0  0
   -2.1028   -3.6797    0.0000 N   0  0  0  0  0  0  0  0  0
   -2.8173   -2.4422    0.0000 C   0  0  0  0  0  0  0  0  0
   -2.8173   -1.6172    0.0000 C   0  0  0  0  0  0  0  0  0
   -3.5317   -1.2047    0.0000 C   0  0  0  0  0  0  0  0  0
   -3.5317   -0.3797    0.0000 C   0  0  0  0  0  0  0  0  0
   -2.8173    0.0328    0.0000 N   0  0  0  0  0  0  0  0  0
   -2.1028   -0.3797    0.0000 C   0  0  0  0  0  0  0  0  0
   -1.3883    0.0328    0.0000 C   0  0  0  0  0  0  0  0  0
   -0.6738   -0.3797    0.0000 C   0  0  0  0  0  0  0  0  0
    0.0406    0.0328    0.0000 C   0  0  0  0  0  0  0  0  0
    0.7551   -0.3797    0.0000 C   0  0  0  0  0  0  0  0  0
    0.7551   -1.2047    0.0000 C   0  0  0  0  0  0  0  0  0
   -2.1028   -1.2047    0.0000 C   0  0  0  0  0  0  0  0  0
   -2.8173    0.8578    0.0000 C   0  0  0  0  0  0  0  0  0
  1  2  1  0  0  0  0
  2  3  4  0  0  0  0
  2 18  4  0  0  0  0
  3  4  1  0  0  0  0
  3 15  4  0  0  0  0
  4  5  4  0  0  0  0
  4 19  4  0  0  0  0
  5  6  4  0  0  0  0
  6  7  1  0  0  0  0
  6  8  4  0  0  0  0
  8  9  4  0  0  0  0
  9 10  1  0  0  0  0
  9 19  4  0  0  0  0
 10 11  1  0  0  0  0
 11 12  1  0  0  0  0
 12 13  1  0  0  0  0
 12 20  1  0  0  0  0
 13 14  1  0  0  0  0
 13 19  1  0  0  0  0
 14 15  1  0  0  0  0
 15 16  4  0  0  0  0
 16 17  4  0  0  0  0
 17 18  4  0  0  0  0
M  END
>  <Name_Molregno>
468447

>  <DOPAMINE D1>
5.53

$$$$
490001
  Marvin  02231216192D 0   1.00000     0.00000     0

 26 28  0  0  0  0  0  0  0  0999 V2000
   -0.1047    1.0755    0.0000 Cl  0  0  0  0  0  0  0  0  0
    0.7180    1.0139    0.0000 C   0  0  0  0  0  0  0  0  0
    1.1827    1.6955    0.0000 C   0  0  0  0  0  0  0  0  0
    2.0054    1.6339    0.0000 C   0  0  0  0  0  0  0  0  0
    2.3634    0.8906    0.0000 C   0  0  0  0  0  0  0  0  0
    3.1860    0.8289    0.0000 N   0  0  0  0  0  0  0  0  0
    3.5985    1.5434    0.0000 C   0  0  0  0  0  0  0  0  0
    4.4143    1.6663    0.0000 C   0  0  0  0  0  0  0  0  0
    5.0191    1.1052    0.0000 C   0  0  0  0  0  0  0  0  0
    4.9574    0.2825    0.0000 N   0  0  0  0  0  0  0  0  0
    4.2758   -0.1822    0.0000 C   0  0  0  0  0  0  0  0  0
    3.4875    0.0609    0.0000 C   0  0  0  0  0  0  0  0  0
    5.6719   -0.1300    0.0000 C   0  0  0  0  0  0  0  0  0
    6.3864    0.2825    0.0000 C   0  0  0  0  0  0  0  0  0
    7.1009   -0.1300    0.0000 C   0  0  0  0  0  0  0  0  0
    7.8153    0.2825    0.0000 C   0  0  0  0  0  0  0  0  0
    7.8153    1.1075    0.0000 O   0  0  0  0  0  0  0  0  0
    8.5298   -0.1300    0.0000 C   0  0  0  0  0  0  0  0  0
    9.2443    0.2825    0.0000 C   0  0  0  0  0  0  0  0  0
    9.9587   -0.1300    0.0000 C   0  0  0  0  0  0  0  0  0
    9.9587   -0.9550    0.0000 C   0  0  0  0  0  0  0  0  0
   10.6732   -1.3675    0.0000 F   0  0  0  0  0  0  0  0  0
    9.2443   -1.3675    0.0000 C   0  0  0  0  0  0  0  0  0
    8.5298   -0.9550    0.0000 C   0  0  0  0  0  0  0  0  0
    1.8986    0.2089    0.0000 C   0  0  0  0  0  0  0  0  0
    1.0759    0.2706    0.0000 C   0  0  0  0  0  0  0  0  0
  1  2  1  0  0  0  0
  2  3  4  0  0  0  0
  2 26  4  0  0  0  0
  3  4  4  0  0  0  0
  4  5  4  0  0  0  0
  5  6  1  0  0  0  0
  5 25  4  0  0  0  0
  6  7  1  0  0  0  0
  6 12  1  0  0  0  0
  7  8  1  0  0  0  0
  8  9  1  0  0  0  0
  9 10  1  0  0  0  0
 10 11  1  0  0  0  0
 10 13  1  0  0  0  0
 11 12  1  0  0  0  0
 13 14  1  0  0  0  0
 14 15  1  0  0  0  0
 15 16  1  0  0  0  0
 16 17  2  0  0  0  0
 16 18  1  0  0  0  0
 18 19  4  0  0  0  0
 18 24  4  0  0  0  0
 19 20  4  0  0  0  0
 20 21  4  0  0  0  0
 21 22  1  0  0  0  0
 21 23  4  0  0  0  0
 23 24  4  0  0  0  0
 25 26  4  0  0  0  0
M  END
>  <Name_Molregno>
490001

>  <5-HT1A>
6.93

>  <5-HT2A>
7.63

>  <5-HT2C>
5.85

>  <5-HT6>
6.53

>  <DOPAMINE D1>
6.79

>  <DOPAMINE D2>
7.36

>  <DOPAMINE D3>
6.8

>  <DOPAMINE D4>
8.18

>  <Dopamine transporter>
5.94

>  <HISTAMINE H1>
6.72

>  <Muscarinic acetylcholine receptor M1>
6.06

>  <Serotonin transporter>
7.25

$$$$
490754
  Marvin  02231216192D 0   1.00000     0.00000     0

 25 28  0  0  1  0  0  0  0  0999 V2000
   -0.3539   -0.7009    0.0000 O   0  0  0  0  0  0  0  0  0
    0.3606   -1.1134    0.0000 C   0  0  0  0  0  0  0  0  0
    1.0751   -0.7009    0.0000 O   0  0  0  0  0  0  0  0  0
    0.3606   -1.9384    0.0000 C   0  0  0  0  0  0  0  0  0
    1.0751   -2.3509    0.0000 C   0  0  0  0  0  0  0  0  0
   -0.3539    0.1241    0.0000 C   0  0  0  0  0  0  0  0  0
   -1.0684    0.5366    0.0000 C   0  0  0  0  0  0  0  0  0
   -1.0684    1.3616    0.0000 C   0  0  0  0  0  0  0  0  0
   -1.7828    1.7741    0.0000 C   0  0  0  0  0  0  0  0  0
   -2.4973    1.3616    0.0000 C   0  0  0  0  0  0  0  0  0
   -3.2118    1.7741    0.0000 N   0  0  0  0  0  0  0  0  0
   -3.9262    1.3616    0.0000 C   0  0  0  0  0  0  0  0  0
   -3.9262    0.5366    0.0000 C   0  0  0  0  0  0  0  0  0
   -3.2118    0.1241    0.0000 C   0  0  0  0  0  0  0  0  0
   -2.4973    0.5366    0.0000 C   0  0  0  0  0  0  0  0  0
   -1.7828    0.1241    0.0000 C   0  0  0  0  0  0  0  0  0
   -1.7828   -0.7009    0.0000 C   0  0  0  0  0  0  0  0  0
   -2.4973   -1.1134    0.0000 C   0  0  0  0  0  0  0  0  0
   -3.2118   -0.7009    0.0000 C   0  0  0  0  0  0  0  0  0
   -3.2118    2.5991    0.0000 C   0  0  0  0  0  0  0  0  0
   -3.9262    3.0116    0.0000 C   0  0  0  0  0  0  0  0  0
   -4.6407    2.5991    0.0000 C   0  0  0  0  0  0  0  0  0
   -0.3539    1.7741    0.0000 C   0  0  0  0  0  0  0  0  0
    0.3606    1.3616    0.0000 C   0  0  0  0  0  0  0  0  0
    0.3606    0.5366    0.0000 C   0  0  0  0  0  0  0  0  0
  1  2  1  0  0  0  0
  1  6  1  0  0  0  0
  2  3  2  0  0  0  0
  2  4  1  0  0  0  0
  4  5  1  0  0  0  0
  6  7  4  0  0  0  0
  6 25  4  0  0  0  0
  7  8  4  0  0  0  0
  7 16  1  0  0  0  0
  8  9  1  0  0  0  0
  8 23  4  0  0  0  0
  9 10  1  0  0  0  0
 10 11  1  0  0  0  0
 10 15  1  0  0  0  0
 11 12  1  0  0  0  0
 11 20  1  0  0  0  0
 12 13  1  0  0  0  0
 13 14  1  0  0  0  0
 14 15  4  0  0  0  0
 14 19  4  0  0  0  0
 15 16  4  0  0  0  0
 16 17  4  0  0  0  0
 17 18  4  0  0  0  0
 18 19  4  0  0  0  0
 20 21  1  0  0  0  0
 21 22  1  0  0  0  0
 23 24  4  0  0  0  0
 24 25  4  0  0  0  0
M  END
>  <Name_Molregno>
490754

>  <5-HT2A>
6.96

>  <DOPAMINE D1>
7.74

>  <DOPAMINE D2>
5

$$$$
490898
  Marvin  02231216192D 0   1.00000     0.00000     0

 26 29  0  0  1  0  0  0  0  0999 V2000
   -0.2864   -0.5736    0.0000 O   0  0  0  0  0  0  0  0  0
    0.4281   -0.9861    0.0000 C   0  0  0  0  0  0  0  0  0
    1.1425   -0.5736    0.0000 O   0  0  0  0  0  0  0  0  0
    0.4281   -1.8111    0.0000 C   0  0  0  0  0  0  0  0  0
    1.1425   -2.2236    0.0000 C   0  0  0  0  0  0  0  0  0
    1.1425   -3.0486    0.0000 C   0  0  0  0  0  0  0  0  0
   -0.2864    0.2514    0.0000 C   0  0  0  0  0  0  0  0  0
   -1.0009    0.6639    0.0000 C   0  0  0  0  0  0  0  0  0
   -1.0009    1.4889    0.0000 C   0  0  0  0  0  0  0  0  0
   -1.7153    1.9014    0.0000 C   0  0  0  0  0  0  0  0  0
   -2.4298    1.4889    0.0000 C   0  0  0  0  0  0  0  0  0
   -3.1443    1.9014    0.0000 N   0  0  0  0  0  0  0  0  0
   -3.8588    1.4889    0.0000 C   0  0  0  0  0  0  0  0  0
   -3.8588    0.6639    0.0000 C   0  0  0  0  0  0  0  0  0
   -3.1443    0.2514    0.0000 C   0  0  0  0  0  0  0  0  0
   -2.4298    0.6639    0.0000 C   0  0  0  0  0  0  0  0  0
   -1.7153    0.2514    0.0000 C   0  0  0  0  0  0  0  0  0
   -1.7153   -0.5736    0.0000 C   0  0  0  0  0  0  0  0  0
   -2.4298   -0.9861    0.0000 C   0  0  0  0  0  0  0  0  0
   -3.1443   -0.5736    0.0000 C   0  0  0  0  0  0  0  0  0
   -3.1443    2.7264    0.0000 C   0  0  0  0  0  0  0  0  0
   -3.8588    3.1389    0.0000 C   0  0  0  0  0  0  0  0  0
   -4.5732    2.7264    0.0000 C   0  0  0  0  0  0  0  0  0
   -0.2864    1.9014    0.0000 C   0  0  0  0  0  0  0  0  0
    0.4281    1.4889    0.0000 C   0  0  0  0  0  0  0  0  0
    0.4281    0.6639    0.0000 C   0  0  0  0  0  0  0  0  0
  1  2  1  0  0  0  0
  1  7  1  0  0  0  0
  2  3  2  0  0  0  0
  2  4  1  0  0  0  0
  4  5  1  0  0  0  0
  5  6  1  0  0  0  0
  7  8  4  0  0  0  0
  7 26  4  0  0  0  0
  8  9  4  0  0  0  0
  8 17  1  0  0  0  0
  9 10  1  0  0  0  0
  9 24  4  0  0  0  0
 10 11  1  0  0  0  0
 11 12  1  0  0  0  0
 11 16  1  0  0  0  0
 12 13  1  0  0  0  0
 12 21  1  0  0  0  0
 13 14  1  0  0  0  0
 14 15  1  0  0  0  0
 15 16  4  0  0  0  0
 15 20  4  0  0  0  0
 16 17  4  0  0  0  0
 17 18  4  0  0  0  0
 18 19  4  0  0  0  0
 19 20  4  0  0  0  0
 21 22  1  0  0  0  0
 22 23  1  0  0  0  0
 24 25  4  0  0  0  0
 25 26  4  0  0  0  0
M  END
>  <Name_Molregno>
490898

>  <5-HT2A>
7.25

>  <DOPAMINE D1>
7.92

>  <DOPAMINE D2>
5

$$$$
490899
  Marvin  02231216192D 0   1.00000     0.00000     0

 28 31  0  0  1  0  0  0  0  0999 V2000
    0.0083    0.8978    0.0000 O   0  0  0  0  0  0  0  0  0
    0.7228    1.3103    0.0000 C   0  0  0  0  0  0  0  0  0
    0.7228    2.1353    0.0000 O   0  0  0  0  0  0  0  0  0
    1.4373    0.8978    0.0000 C   0  0  0  0  0  0  0  0  0
    2.1518    1.3103    0.0000 C   0  0  0  0  0  0  0  0  0
    2.8662    0.8978    0.0000 C   0  0  0  0  0  0  0  0  0
    3.5807    1.3103    0.0000 C   0  0  0  0  0  0  0  0  0
    4.2952    0.8978    0.0000 C   0  0  0  0  0  0  0  0  0
   -0.7061    1.3103    0.0000 C   0  0  0  0  0  0  0  0  0
   -1.4206    0.8978    0.0000 C   0  0  0  0  0  0  0  0  0
   -2.1351    1.3103    0.0000 C   0  0  0  0  0  0  0  0  0
   -2.8495    0.8978    0.0000 C   0  0  0  0  0  0  0  0  0
   -2.8495    0.0728    0.0000 C   0  0  0  0  0  0  0  0  0
   -3.5640   -0.3397    0.0000 N   0  0  0  0  0  0  0  0  0
   -3.5640   -1.1647    0.0000 C   0  0  0  0  0  0  0  0  0
   -2.8495   -1.5772    0.0000 C   0  0  0  0  0  0  0  0  0
   -2.1351   -1.1647    0.0000 C   0  0  0  0  0  0  0  0  0
   -2.1351   -0.3397    0.0000 C   0  0  0  0  0  0  0  0  0
   -1.4206    0.0728    0.0000 C   0  0  0  0  0  0  0  0  0
   -0.7061   -0.3397    0.0000 C   0  0  0  0  0  0  0  0  0
   -0.7061   -1.1647    0.0000 C   0  0  0  0  0  0  0  0  0
   -1.4206   -1.5772    0.0000 C   0  0  0  0  0  0  0  0  0
   -4.2785    0.0728    0.0000 C   0  0  0  0  0  0  0  0  0
   -4.9930   -0.3397    0.0000 C   0  0  0  0  0  0  0  0  0
   -4.9930   -1.1647    0.0000 C   0  0  0  0  0  0  0  0  0
   -2.1351    2.1353    0.0000 C   0  0  0  0  0  0  0  0  0
   -1.4206    2.5478    0.0000 C   0  0  0  0  0  0  0  0  0
   -0.7061    2.1353    0.0000 C   0  0  0  0  0  0  0  0  0
  1  2  1  0  0  0  0
  1  9  1  0  0  0  0
  2  3  2  0  0  0  0
  2  4  1  0  0  0  0
  4  5  1  0  0  0  0
  5  6  1  0  0  0  0
  6  7  1  0  0  0  0
  7  8  1  0  0  0  0
  9 10  4  0  0  0  0
  9 28  4  0  0  0  0
 10 11  4  0  0  0  0
 10 19  1  0  0  0  0
 11 12  1  0  0  0  0
 11 26  4  0  0  0  0
 12 13  1  0  0  0  0
 13 14  1  0  0  0  0
 13 18  1  0  0  0  0
 14 15  1  0  0  0  0
 14 23  1  0  0  0  0
 15 16  1  0  0  0  0
 16 17  1  0  0  0  0
 17 18  4  0  0  0  0
 17 22  4  0  0  0  0
 18 19  4  0  0  0  0
 19 20  4  0  0  0  0
 20 21  4  0  0  0  0
 21 22  4  0  0  0  0
 23 24  1  0  0  0  0
 24 25  1  0  0  0  0
 26 27  4  0  0  0  0
 27 28  4  0  0  0  0
M  END
>  <Name_Molregno>
490899

>  <5-HT2A>
6.96

>  <DOPAMINE D1>
8

>  <DOPAMINE D2>
5

$$$$
490900
  Marvin  02231216192D 0   1.00000     0.00000     0

 29 32  0  0  1  0  0  0  0  0999 V2000
   -0.0267    0.6963    0.0000 O   0  0  0  0  0  0  0  0  0
    0.6877    1.1088    0.0000 C   0  0  0  0  0  0  0  0  0
    0.6877    1.9338    0.0000 O   0  0  0  0  0  0  0  0  0
    1.4022    0.6963    0.0000 C   0  0  0  0  0  0  0  0  0
    2.1167    1.1088    0.0000 C   0  0  0  0  0  0  0  0  0
    2.8311    0.6963    0.0000 C   0  0  0  0  0  0  0  0  0
    3.5456    1.1088    0.0000 C   0  0  0  0  0  0  0  0  0
    4.2601    0.6963    0.0000 C   0  0  0  0  0  0  0  0  0
    4.9746    1.1088    0.0000 C   0  0  0  0  0  0  0  0  0
   -0.7412    1.1088    0.0000 C   0  0  0  0  0  0  0  0  0
   -1.4557    0.6963    0.0000 C   0  0  0  0  0  0  0  0  0
   -2.1702    1.1088    0.0000 C   0  0  0  0  0  0  0  0  0
   -2.8846    0.6963    0.0000 C   0  0  0  0  0  0  0  0  0
   -2.8846   -0.1287    0.0000 C   0  0  0  0  0  0  0  0  0
   -3.5991   -0.5412    0.0000 N   0  0  0  0  0  0  0  0  0
   -3.5991   -1.3662    0.0000 C   0  0  0  0  0  0  0  0  0
   -2.8846   -1.7787    0.0000 C   0  0  0  0  0  0  0  0  0
   -2.1702   -1.3662    0.0000 C   0  0  0  0  0  0  0  0  0
   -2.1702   -0.5412    0.0000 C   0  0  0  0  0  0  0  0  0
   -1.4557   -0.1287    0.0000 C   0  0  0  0  0  0  0  0  0
   -0.7412   -0.5412    0.0000 C   0  0  0  0  0  0  0  0  0
   -0.7412   -1.3662    0.0000 C   0  0  0  0  0  0  0  0  0
   -1.4557   -1.7787    0.0000 C   0  0  0  0  0  0  0  0  0
   -4.3136   -0.1287    0.0000 C   0  0  0  0  0  0  0  0  0
   -4.3136    0.6963    0.0000 C   0  0  0  0  0  0  0  0  0
   -5.0280    1.1088    0.0000 C   0  0  0  0  0  0  0  0  0
   -2.1702    1.9338    0.0000 C   0  0  0  0  0  0  0  0  0
   -1.4557    2.3463    0.0000 C   0  0  0  0  0  0  0  0  0
   -0.7412    1.9338    0.0000 C   0  0  0  0  0  0  0  0  0
  1  2  1  0  0  0  0
  1 10  1  0  0  0  0
  2  3  2  0  0  0  0
  2  4  1  0  0  0  0
  4  5  1  0  0  0  0
  5  6  1  0  0  0  0
  6  7  1  0  0  0  0
  7  8  1  0  0  0  0
  8  9  1  0  0  0  0
 10 11  4  0  0  0  0
 10 29  4  0  0  0  0
 11 12  4  0  0  0  0
 11 20  1  0  0  0  0
 12 13  1  0  0  0  0
 12 27  4  0  0  0  0
 13 14  1  0  0  0  0
 14 15  1  0  0  0  0
 14 19  1  0  0  0  0
 15 16  1  0  0  0  0
 15 24  1  0  0  0  0
 16 17  1  0  0  0  0
 17 18  1  0  0  0  0
 18 19  4  0  0  0  0
 18 23  4  0  0  0  0
 19 20  4  0  0  0  0
 20 21  4  0  0  0  0
 21 22  4  0  0  0  0
 22 23  4  0  0  0  0
 24 25  1  0  0  0  0
 25 26  1  0  0  0  0
 27 28  4  0  0  0  0
 28 29  4  0  0  0  0
M  END
>  <Name_Molregno>
490900

>  <5-HT2A>
7.02

>  <DOPAMINE D1>
7.51

>  <DOPAMINE D2>
5

$$$$
497391
  Marvin  02231216192D 0   1.00000     0.00000     0

 27 30  0  0  0  0  0  0  0  0999 V2000
    0.7687   -1.2635    0.0000 O   0  0  0  0  0  0  0  0  0
    0.7687   -2.0885    0.0000 C   0  0  0  0  0  0  0  0  0
    0.0543   -2.5010    0.0000 N   0  0  0  0  0  0  0  0  0
    0.0543   -3.3260    0.0000 C   0  0  0  0  0  0  0  0  0
    0.7687   -3.7385    0.0000 C   0  0  0  0  0  0  0  0  0
    1.4832   -3.3260    0.0000 C   0  0  0  0  0  0  0  0  0
    1.4832   -2.5010    0.0000 C   0  0  0  0  0  0  0  0  0
    2.1977   -2.0885    0.0000 C   0  0  0  0  0  0  0  0  0
    2.9122   -2.5010    0.0000 C   0  0  0  0  0  0  0  0  0
    2.9122   -3.3260    0.0000 C   0  0  0  0  0  0  0  0  0
    2.1977   -3.7385    0.0000 C   0  0  0  0  0  0  0  0  0
   -0.6602   -2.0885    0.0000 C   0  0  0  0  0  0  0  0  0
   -1.3747   -2.5010    0.0000 C   0  0  0  0  0  0  0  0  0
   -2.0891   -2.0885    0.0000 C   0  0  0  0  0  0  0  0  0
   -2.8036   -2.5010    0.0000 C   0  0  0  0  0  0  0  0  0
   -3.5181   -2.0885    0.0000 N   0  0  0  0  0  0  0  0  0
   -4.2325   -2.5010    0.0000 C   0  0  0  0  0  0  0  0  0
   -4.9470   -2.0885    0.0000 C   0  0  0  0  0  0  0  0  0
   -4.9470   -1.2635    0.0000 N   0  0  0  0  0  0  0  0  0
   -4.2325   -0.8510    0.0000 C   0  0  0  0  0  0  0  0  0
   -3.5181   -1.2635    0.0000 C   0  0  0  0  0  0  0  0  0
   -5.6615   -0.8510    0.0000 C   0  0  0  0  0  0  0  0  0
   -6.3760   -1.2635    0.0000 N   0  0  0  0  0  0  0  0  0
   -7.0904   -0.8510    0.0000 C   0  0  0  0  0  0  0  0  0
   -7.0904   -0.0260    0.0000 C   0  0  0  0  0  0  0  0  0
   -6.3760    0.3865    0.0000 C   0  0  0  0  0  0  0  0  0
   -5.6615   -0.0260    0.0000 C   0  0  0  0  0  0  0  0  0
  1  2  2  0  0  0  0
  2  3  1  0  0  0  0
  2  7  1  0  0  0  0
  3  4  1  0  0  0  0
  3 12  1  0  0  0  0
  4  5  1  0  0  0  0
  5  6  1  0  0  0  0
  6  7  4  0  0  0  0
  6 11  4  0  0  0  0
  7  8  4  0  0  0  0
  8  9  4  0  0  0  0
  9 10  4  0  0  0  0
 10 11  4  0  0  0  0
 12 13  1  0  0  0  0
 13 14  1  0  0  0  0
 14 15  1  0  0  0  0
 15 16  1  0  0  0  0
 16 17  1  0  0  0  0
 16 21  1  0  0  0  0
 17 18  1  0  0  0  0
 18 19  1  0  0  0  0
 19 20  1  0  0  0  0
 19 22  1  0  0  0  0
 20 21  1  0  0  0  0
 22 23  4  0  0  0  0
 22 27  4  0  0  0  0
 23 24  4  0  0  0  0
 24 25  4  0  0  0  0
 25 26  4  0  0  0  0
 26 27  4  0  0  0  0
M  END
>  <Name_Molregno>
497391

>  <DOPAMINE D1>
5.69

>  <DOPAMINE D3>
7.92

$$$$
497393
  Marvin  02231216192D 0   1.00000     0.00000     0

 29 32  0  0  0  0  0  0  0  0999 V2000
   -5.9061    3.0430    0.0000 Cl  0  0  0  0  0  0  0  0  0
   -6.6205    2.6305    0.0000 C   0  0  0  0  0  0  0  0  0
   -6.6205    1.8055    0.0000 C   0  0  0  0  0  0  0  0  0
   -5.9061    1.3930    0.0000 N   0  0  0  0  0  0  0  0  0
   -5.1916    1.8055    0.0000 C   0  0  0  0  0  0  0  0  0
   -4.4771    1.3930    0.0000 C   0  0  0  0  0  0  0  0  0
   -4.4771    0.5680    0.0000 N   0  0  0  0  0  0  0  0  0
   -5.1916    0.1555    0.0000 C   0  0  0  0  0  0  0  0  0
   -5.9061    0.5680    0.0000 C   0  0  0  0  0  0  0  0  0
   -3.7626    0.1555    0.0000 C   0  0  0  0  0  0  0  0  0
   -3.7626   -0.6695    0.0000 C   0  0  0  0  0  0  0  0  0
   -3.0482   -1.0820    0.0000 C   0  0  0  0  0  0  0  0  0
   -3.0482   -1.9070    0.0000 C   0  0  0  0  0  0  0  0  0
   -2.3337   -2.3195    0.0000 N   0  0  0  0  0  0  0  0  0
   -2.3337   -3.1445    0.0000 C   0  0  0  0  0  0  0  0  0
   -1.6192   -3.5570    0.0000 C   0  0  0  0  0  0  0  0  0
   -0.9048   -3.1445    0.0000 C   0  0  0  0  0  0  0  0  0
   -0.9048   -2.3195    0.0000 C   0  0  0  0  0  0  0  0  0
   -0.1903   -1.9070    0.0000 C   0  0  0  0  0  0  0  0  0
    0.5242   -2.3195    0.0000 C   0  0  0  0  0  0  0  0  0
    0.5242   -3.1445    0.0000 C   0  0  0  0  0  0  0  0  0
   -0.1903   -3.5570    0.0000 C   0  0  0  0  0  0  0  0  0
   -1.6192   -1.9070    0.0000 C   0  0  0  0  0  0  0  0  0
   -1.6192   -1.0820    0.0000 O   0  0  0  0  0  0  0  0  0
   -7.3350    1.3930    0.0000 C   0  0  0  0  0  0  0  0  0
   -8.0495    1.8055    0.0000 C   0  0  0  0  0  0  0  0  0
   -8.0495    2.6305    0.0000 C   0  0  0  0  0  0  0  0  0
   -7.3350    3.0430    0.0000 C   0  0  0  0  0  0  0  0  0
   -7.3350    3.8680    0.0000 Cl  0  0  0  0  0  0  0  0  0
  1  2  1  0  0  0  0
  2  3  4  0  0  0  0
  2 28  4  0  0  0  0
  3  4  1  0  0  0  0
  3 25  4  0  0  0  0
  4  5  1  0  0  0  0
  4  9  1  0  0  0  0
  5  6  1  0  0  0  0
  6  7  1  0  0  0  0
  7  8  1  0  0  0  0
  7 10  1  0  0  0  0
  8  9  1  0  0  0  0
 10 11  1  0  0  0  0
 11 12  1  0  0  0  0
 12 13  1  0  0  0  0
 13 14  1  0  0  0  0
 14 15  1  0  0  0  0
 14 23  1  0  0  0  0
 15 16  1  0  0  0  0
 16 17  1  0  0  0  0
 17 18  4  0  0  0  0
 17 22  4  0  0  0  0
 18 19  4  0  0  0  0
 18 23  1  0  0  0  0
 19 20  4  0  0  0  0
 20 21  4  0  0  0  0
 21 22  4  0  0  0  0
 23 24  2  0  0  0  0
 25 26  4  0  0  0  0
 26 27  4  0  0  0  0
 27 28  4  0  0  0  0
 28 29  1  0  0  0  0
M  END
>  <Name_Molregno>
497393

>  <DOPAMINE D1>
5.75

>  <DOPAMINE D2>
7.94

>  <DOPAMINE D3>
6.79

$$$$
497394
  Marvin  02231216192D 0   1.00000     0.00000     0

 28 31  0  0  0  0  0  0  0  0999 V2000
   -7.5970    0.8482    0.0000 Cl  0  0  0  0  0  0  0  0  0
   -7.5970    1.6732    0.0000 C   0  0  0  0  0  0  0  0  0
   -8.3114    2.0857    0.0000 C   0  0  0  0  0  0  0  0  0
   -8.3114    2.9107    0.0000 C   0  0  0  0  0  0  0  0  0
   -7.5970    3.3232    0.0000 C   0  0  0  0  0  0  0  0  0
   -6.8825    2.9107    0.0000 C   0  0  0  0  0  0  0  0  0
   -6.8825    2.0857    0.0000 C   0  0  0  0  0  0  0  0  0
   -6.1680    1.6732    0.0000 N   0  0  0  0  0  0  0  0  0
   -5.4535    2.0857    0.0000 C   0  0  0  0  0  0  0  0  0
   -4.7391    1.6732    0.0000 C   0  0  0  0  0  0  0  0  0
   -4.7391    0.8482    0.0000 N   0  0  0  0  0  0  0  0  0
   -5.4535    0.4357    0.0000 C   0  0  0  0  0  0  0  0  0
   -6.1680    0.8482    0.0000 C   0  0  0  0  0  0  0  0  0
   -4.0246    0.4357    0.0000 C   0  0  0  0  0  0  0  0  0
   -4.0246   -0.3893    0.0000 C   0  0  0  0  0  0  0  0  0
   -3.3101   -0.8018    0.0000 C   0  0  0  0  0  0  0  0  0
   -3.3101   -1.6268    0.0000 C   0  0  0  0  0  0  0  0  0
   -2.5957   -2.0393    0.0000 N   0  0  0  0  0  0  0  0  0
   -2.5957   -2.8643    0.0000 C   0  0  0  0  0  0  0  0  0
   -1.8812   -3.2768    0.0000 C   0  0  0  0  0  0  0  0  0
   -1.1667   -2.8643    0.0000 C   0  0  0  0  0  0  0  0  0
   -1.1667   -2.0393    0.0000 C   0  0  0  0  0  0  0  0  0
   -0.4522   -1.6268    0.0000 C   0  0  0  0  0  0  0  0  0
    0.2622   -2.0393    0.0000 C   0  0  0  0  0  0  0  0  0
    0.2622   -2.8643    0.0000 C   0  0  0  0  0  0  0  0  0
   -0.4522   -3.2768    0.0000 C   0  0  0  0  0  0  0  0  0
   -1.8812   -1.6268    0.0000 C   0  0  0  0  0  0  0  0  0
   -1.8812   -0.8018    0.0000 O   0  0  0  0  0  0  0  0  0
  1  2  1  0  0  0  0
  2  3  4  0  0  0  0
  2  7  4  0  0  0  0
  3  4  4  0  0  0  0
  4  5  4  0  0  0  0
  5  6  4  0  0  0  0
  6  7  4  0  0  0  0
  7  8  1  0  0  0  0
  8  9  1  0  0  0  0
  8 13  1  0  0  0  0
  9 10  1  0  0  0  0
 10 11  1  0  0  0  0
 11 12  1  0  0  0  0
 11 14  1  0  0  0  0
 12 13  1  0  0  0  0
 14 15  1  0  0  0  0
 15 16  1  0  0  0  0
 16 17  1  0  0  0  0
 17 18  1  0  0  0  0
 18 19  1  0  0  0  0
 18 27  1  0  0  0  0
 19 20  1  0  0  0  0
 20 21  1  0  0  0  0
 21 22  4  0  0  0  0
 21 26  4  0  0  0  0
 22 23  4  0  0  0  0
 22 27  1  0  0  0  0
 23 24  4  0  0  0  0
 24 25  4  0  0  0  0
 25 26  4  0  0  0  0
 27 28  2  0  0  0  0
M  END
>  <Name_Molregno>
497394

>  <DOPAMINE D1>
6.46

>  <DOPAMINE D2>
7.45

>  <DOPAMINE D3>
8.17

$$$$
497475
  Marvin  02231216192D 0   1.00000     0.00000     0

 29 32  0  0  0  0  0  0  0  0999 V2000
   -8.5801    3.4082    0.0000 O   0  0  0  0  0  0  0  0  0
   -9.2945    3.8207    0.0000 C   0  0  0  0  0  0  0  0  0
   -8.5801    2.5832    0.0000 C   0  0  0  0  0  0  0  0  0
   -7.8656    2.1707    0.0000 C   0  0  0  0  0  0  0  0  0
   -7.8656    1.3457    0.0000 C   0  0  0  0  0  0  0  0  0
   -7.1511    0.9332    0.0000 N   0  0  0  0  0  0  0  0  0
   -6.4367    1.3457    0.0000 C   0  0  0  0  0  0  0  0  0
   -5.7222    0.9332    0.0000 C   0  0  0  0  0  0  0  0  0
   -5.7222    0.1082    0.0000 N   0  0  0  0  0  0  0  0  0
   -6.4367   -0.3043    0.0000 C   0  0  0  0  0  0  0  0  0
   -7.1511    0.1082    0.0000 C   0  0  0  0  0  0  0  0  0
   -5.0077   -0.3043    0.0000 C   0  0  0  0  0  0  0  0  0
   -5.0077   -1.1293    0.0000 C   0  0  0  0  0  0  0  0  0
   -4.2932   -1.5418    0.0000 C   0  0  0  0  0  0  0  0  0
   -4.2932   -2.3668    0.0000 C   0  0  0  0  0  0  0  0  0
   -3.5788   -2.7793    0.0000 N   0  0  0  0  0  0  0  0  0
   -3.5788   -3.6043    0.0000 C   0  0  0  0  0  0  0  0  0
   -2.8643   -4.0168    0.0000 C   0  0  0  0  0  0  0  0  0
   -2.1498   -3.6043    0.0000 C   0  0  0  0  0  0  0  0  0
   -2.1498   -2.7793    0.0000 C   0  0  0  0  0  0  0  0  0
   -1.4354   -2.3668    0.0000 C   0  0  0  0  0  0  0  0  0
   -0.7209   -2.7793    0.0000 C   0  0  0  0  0  0  0  0  0
   -0.7209   -3.6043    0.0000 C   0  0  0  0  0  0  0  0  0
   -1.4354   -4.0168    0.0000 C   0  0  0  0  0  0  0  0  0
   -2.8643   -2.3668    0.0000 C   0  0  0  0  0  0  0  0  0
   -2.8643   -1.5418    0.0000 O   0  0  0  0  0  0  0  0  0
   -8.5801    0.9332    0.0000 C   0  0  0  0  0  0  0  0  0
   -9.2945    1.3457    0.0000 C   0  0  0  0  0  0  0  0  0
   -9.2945    2.1707    0.0000 C   0  0  0  0  0  0  0  0  0
  1  2  1  0  0  0  0
  1  3  1  0  0  0  0
  3  4  4  0  0  0  0
  3 29  4  0  0  0  0
  4  5  4  0  0  0  0
  5  6  1  0  0  0  0
  5 27  4  0  0  0  0
  6  7  1  0  0  0  0
  6 11  1  0  0  0  0
  7  8  1  0  0  0  0
  8  9  1  0  0  0  0
  9 10  1  0  0  0  0
  9 12  1  0  0  0  0
 10 11  1  0  0  0  0
 12 13  1  0  0  0  0
 13 14  1  0  0  0  0
 14 15  1  0  0  0  0
 15 16  1  0  0  0  0
 16 17  1  0  0  0  0
 16 25  1  0  0  0  0
 17 18  1  0  0  0  0
 18 19  1  0  0  0  0
 19 20  4  0  0  0  0
 19 24  4  0  0  0  0
 20 21  4  0  0  0  0
 20 25  1  0  0  0  0
 21 22  4  0  0  0  0
 22 23  4  0  0  0  0
 23 24  4  0  0  0  0
 25 26  2  0  0  0  0
 27 28  4  0  0  0  0
 28 29  4  0  0  0  0
M  END
>  <Name_Molregno>
497475

>  <DOPAMINE D1>
6.37

>  <DOPAMINE D2>
6.8

>  <DOPAMINE D3>
7.39

$$$$
497600
  Marvin  02231216192D 0   1.00000     0.00000     0

 30 33  0  0  0  0  0  0  0  0999 V2000
   -2.1655    3.1653    0.0000 O   0  0  0  0  0  0  0  0  0
   -2.4669    3.9332    0.0000 C   0  0  0  0  0  0  0  0  0
   -1.3497    3.0423    0.0000 C   0  0  0  0  0  0  0  0  0
   -0.8354    3.6873    0.0000 C   0  0  0  0  0  0  0  0  0
   -0.0196    3.5643    0.0000 C   0  0  0  0  0  0  0  0  0
    0.2818    2.7964    0.0000 C   0  0  0  0  0  0  0  0  0
   -0.2325    2.1514    0.0000 C   0  0  0  0  0  0  0  0  0
   -1.0483    2.2743    0.0000 C   0  0  0  0  0  0  0  0  0
   -1.5627    1.6293    0.0000 N   0  0  0  0  0  0  0  0  0
   -1.2613    0.8613    0.0000 C   0  0  0  0  0  0  0  0  0
   -1.7757    0.2163    0.0000 C   0  0  0  0  0  0  0  0  0
   -2.5915    0.3393    0.0000 N   0  0  0  0  0  0  0  0  0
   -2.8929    1.1073    0.0000 C   0  0  0  0  0  0  0  0  0
   -2.3785    1.7523    0.0000 C   0  0  0  0  0  0  0  0  0
   -3.1058   -0.3057    0.0000 C   0  0  0  0  0  0  0  0  0
   -3.9216   -0.1828    0.0000 C   0  0  0  0  0  0  0  0  0
   -4.4360   -0.8278    0.0000 C   0  0  0  0  0  0  0  0  0
   -5.2518   -0.7048    0.0000 C   0  0  0  0  0  0  0  0  0
   -5.7662   -1.3498    0.0000 N   0  0  0  0  0  0  0  0  0
   -5.4082   -2.0931    0.0000 C   0  0  0  0  0  0  0  0  0
   -5.7662   -2.8364    0.0000 C   0  0  0  0  0  0  0  0  0
   -6.5705   -3.0200    0.0000 C   0  0  0  0  0  0  0  0  0
   -7.2155   -2.5056    0.0000 C   0  0  0  0  0  0  0  0  0
   -7.2155   -1.6806    0.0000 C   0  0  0  0  0  0  0  0  0
   -7.9300   -1.2681    0.0000 C   0  0  0  0  0  0  0  0  0
   -8.6444   -1.6806    0.0000 C   0  0  0  0  0  0  0  0  0
   -8.6444   -2.5056    0.0000 C   0  0  0  0  0  0  0  0  0
   -7.9300   -2.9181    0.0000 C   0  0  0  0  0  0  0  0  0
   -6.5705   -1.1662    0.0000 C   0  0  0  0  0  0  0  0  0
   -6.7541   -0.3619    0.0000 O   0  0  0  0  0  0  0  0  0
  1  2  1  0  0  0  0
  1  3  1  0  0  0  0
  3  4  4  0  0  0  0
  3  8  4  0  0  0  0
  4  5  4  0  0  0  0
  5  6  4  0  0  0  0
  6  7  4  0  0  0  0
  7  8  4  0  0  0  0
  8  9  1  0  0  0  0
  9 10  1  0  0  0  0
  9 14  1  0  0  0  0
 10 11  1  0  0  0  0
 11 12  1  0  0  0  0
 12 13  1  0  0  0  0
 12 15  1  0  0  0  0
 13 14  1  0  0  0  0
 15 16  1  0  0  0  0
 16 17  1  0  0  0  0
 17 18  1  0  0  0  0
 18 19  1  0  0  0  0
 19 20  1  0  0  0  0
 19 29  1  0  0  0  0
 20 21  1  0  0  0  0
 21 22  1  0  0  0  0
 22 23  1  0  0  0  0
 23 24  4  0  0  0  0
 23 28  4  0  0  0  0
 24 25  4  0  0  0  0
 24 29  1  0  0  0  0
 25 26  4  0  0  0  0
 26 27  4  0  0  0  0
 27 28  4  0  0  0  0
 29 30  2  0  0  0  0
M  END
>  <Name_Molregno>
497600

>  <DOPAMINE D1>
5.57

>  <DOPAMINE D2>
8.44

>  <DOPAMINE D3>
8.8

$$$$
497602
  Marvin  02231216192D 0   1.00000     0.00000     0

 28 31  0  0  0  0  0  0  0  0999 V2000
    0.7643   -2.3815    0.0000 O   0  0  0  0  0  0  0  0  0
    0.9479   -3.1859    0.0000 C   0  0  0  0  0  0  0  0  0
    1.7522   -3.3694    0.0000 N   0  0  0  0  0  0  0  0  0
    2.1101   -4.1127    0.0000 C   0  0  0  0  0  0  0  0  0
    1.7522   -4.8560    0.0000 C   0  0  0  0  0  0  0  0  0
    0.9479   -5.0396    0.0000 C   0  0  0  0  0  0  0  0  0
    0.3028   -4.5252    0.0000 C   0  0  0  0  0  0  0  0  0
    0.3028   -3.7002    0.0000 C   0  0  0  0  0  0  0  0  0
   -0.4116   -3.2877    0.0000 C   0  0  0  0  0  0  0  0  0
   -1.1261   -3.7002    0.0000 C   0  0  0  0  0  0  0  0  0
   -1.1261   -4.5252    0.0000 C   0  0  0  0  0  0  0  0  0
   -0.4116   -4.9377    0.0000 C   0  0  0  0  0  0  0  0  0
    2.2666   -2.7244    0.0000 C   0  0  0  0  0  0  0  0  0
    1.9651   -1.9565    0.0000 C   0  0  0  0  0  0  0  0  0
    2.4795   -1.3114    0.0000 C   0  0  0  0  0  0  0  0  0
    2.1781   -0.5435    0.0000 C   0  0  0  0  0  0  0  0  0
    2.6925    0.1015    0.0000 N   0  0  0  0  0  0  0  0  0
    2.3911    0.8695    0.0000 C   0  0  0  0  0  0  0  0  0
    2.9055    1.5145    0.0000 C   0  0  0  0  0  0  0  0  0
    3.7213    1.3916    0.0000 N   0  0  0  0  0  0  0  0  0
    4.0227    0.6236    0.0000 C   0  0  0  0  0  0  0  0  0
    3.5083   -0.0214    0.0000 C   0  0  0  0  0  0  0  0  0
    4.2356    2.0366    0.0000 C   0  0  0  0  0  0  0  0  0
    3.9342    2.8045    0.0000 N   0  0  0  0  0  0  0  0  0
    4.4486    3.4495    0.0000 C   0  0  0  0  0  0  0  0  0
    5.2644    3.3266    0.0000 C   0  0  0  0  0  0  0  0  0
    5.5658    2.5586    0.0000 C   0  0  0  0  0  0  0  0  0
    5.0514    1.9136    0.0000 C   0  0  0  0  0  0  0  0  0
  1  2  2  0  0  0  0
  2  3  1  0  0  0  0
  2  8  1  0  0  0  0
  3  4  1  0  0  0  0
  3 13  1  0  0  0  0
  4  5  1  0  0  0  0
  5  6  1  0  0  0  0
  6  7  1  0  0  0  0
  7  8  4  0  0  0  0
  7 12  4  0  0  0  0
  8  9  4  0  0  0  0
  9 10  4  0  0  0  0
 10 11  4  0  0  0  0
 11 12  4  0  0  0  0
 13 14  1  0  0  0  0
 14 15  1  0  0  0  0
 15 16  1  0  0  0  0
 16 17  1  0  0  0  0
 17 18  1  0  0  0  0
 17 22  1  0  0  0  0
 18 19  1  0  0  0  0
 19 20  1  0  0  0  0
 20 21  1  0  0  0  0
 20 23  1  0  0  0  0
 21 22  1  0  0  0  0
 23 24  4  0  0  0  0
 23 28  4  0  0  0  0
 24 25  4  0  0  0  0
 25 26  4  0  0  0  0
 26 27  4  0  0  0  0
 27 28  4  0  0  0  0
M  END
>  <Name_Molregno>
497602

>  <DOPAMINE D1>
6.55

>  <DOPAMINE D2>
6.64

>  <DOPAMINE D3>
6.4

$$$$
497603
  Marvin  02231216192D 0   1.00000     0.00000     0

 28 31  0  0  0  0  0  0  0  0999 V2000
    0.7643   -2.3815    0.0000 O   0  0  0  0  0  0  0  0  0
    0.9479   -3.1859    0.0000 C   0  0  0  0  0  0  0  0  0
    1.7522   -3.3694    0.0000 N   0  0  0  0  0  0  0  0  0
    2.1101   -4.1127    0.0000 C   0  0  0  0  0  0  0  0  0
    1.7522   -4.8560    0.0000 C   0  0  0  0  0  0  0  0  0
    0.9479   -5.0396    0.0000 C   0  0  0  0  0  0  0  0  0
    0.3028   -4.5252    0.0000 C   0  0  0  0  0  0  0  0  0
    0.3028   -3.7002    0.0000 C   0  0  0  0  0  0  0  0  0
   -0.4116   -3.2877    0.0000 C   0  0  0  0  0  0  0  0  0
   -1.1261   -3.7002    0.0000 C   0  0  0  0  0  0  0  0  0
   -1.1261   -4.5252    0.0000 C   0  0  0  0  0  0  0  0  0
   -0.4116   -4.9377    0.0000 C   0  0  0  0  0  0  0  0  0
    2.2666   -2.7244    0.0000 C   0  0  0  0  0  0  0  0  0
    1.9651   -1.9565    0.0000 C   0  0  0  0  0  0  0  0  0
    2.4795   -1.3114    0.0000 C   0  0  0  0  0  0  0  0  0
    2.1781   -0.5435    0.0000 C   0  0  0  0  0  0  0  0  0
    2.6925    0.1015    0.0000 N   0  0  0  0  0  0  0  0  0
    2.3911    0.8695    0.0000 C   0  0  0  0  0  0  0  0  0
    2.9055    1.5145    0.0000 C   0  0  0  0  0  0  0  0  0
    3.7213    1.3916    0.0000 N   0  0  0  0  0  0  0  0  0
    4.0227    0.6236    0.0000 C   0  0  0  0  0  0  0  0  0
    3.5083   -0.0214    0.0000 C   0  0  0  0  0  0  0  0  0
    4.2356    2.0366    0.0000 C   0  0  0  0  0  0  0  0  0
    3.9342    2.8045    0.0000 N   0  0  0  0  0  0  0  0  0
    4.4486    3.4495    0.0000 C   0  0  0  0  0  0  0  0  0
    5.2644    3.3266    0.0000 C   0  0  0  0  0  0  0  0  0
    5.5658    2.5586    0.0000 C   0  0  0  0  0  0  0  0  0
    5.0514    1.9136    0.0000 N   0  0  0  0  0  0  0  0  0
  1  2  2  0  0  0  0
  2  3  1  0  0  0  0
  2  8  1  0  0  0  0
  3  4  1  0  0  0  0
  3 13  1  0  0  0  0
  4  5  1  0  0  0  0
  5  6  1  0  0  0  0
  6  7  1  0  0  0  0
  7  8  4  0  0  0  0
  7 12  4  0  0  0  0
  8  9  4  0  0  0  0
  9 10  4  0  0  0  0
 10 11  4  0  0  0  0
 11 12  4  0  0  0  0
 13 14  1  0  0  0  0
 14 15  1  0  0  0  0
 15 16  1  0  0  0  0
 16 17  1  0  0  0  0
 17 18  1  0  0  0  0
 17 22  1  0  0  0  0
 18 19  1  0  0  0  0
 19 20  1  0  0  0  0
 20 21  1  0  0  0  0
 20 23  1  0  0  0  0
 21 22  1  0  0  0  0
 23 24  4  0  0  0  0
 23 28  4  0  0  0  0
 24 25  4  0  0  0  0
 25 26  4  0  0  0  0
 26 27  4  0  0  0  0
 27 28  4  0  0  0  0
M  END
>  <Name_Molregno>
497603

>  <DOPAMINE D1>
5.06

>  <DOPAMINE D2>
6.82

>  <DOPAMINE D3>
6.2

$$$$
497604
  Marvin  02231216192D 0   1.00000     0.00000     0

 30 33  0  0  0  0  0  0  0  0999 V2000
    7.9486    1.1222    0.0000 Cl  0  0  0  0  0  0  0  0  0
    7.6471    1.8902    0.0000 C   0  0  0  0  0  0  0  0  0
    6.8314    2.0131    0.0000 C   0  0  0  0  0  0  0  0  0
    6.3170    1.3681    0.0000 N   0  0  0  0  0  0  0  0  0
    6.6184    0.6001    0.0000 C   0  0  0  0  0  0  0  0  0
    6.1040   -0.0449    0.0000 C   0  0  0  0  0  0  0  0  0
    5.2882    0.0781    0.0000 N   0  0  0  0  0  0  0  0  0
    4.9868    0.8461    0.0000 C   0  0  0  0  0  0  0  0  0
    5.5012    1.4911    0.0000 C   0  0  0  0  0  0  0  0  0
    4.7738   -0.5669    0.0000 C   0  0  0  0  0  0  0  0  0
    3.9581   -0.4440    0.0000 C   0  0  0  0  0  0  0  0  0
    3.4437   -1.0890    0.0000 C   0  0  0  0  0  0  0  0  0
    2.6279   -0.9660    0.0000 C   0  0  0  0  0  0  0  0  0
    2.1135   -1.6110    0.0000 N   0  0  0  0  0  0  0  0  0
    2.4715   -2.3543    0.0000 C   0  0  0  0  0  0  0  0  0
    2.1135   -3.0976    0.0000 C   0  0  0  0  0  0  0  0  0
    1.3092   -3.2812    0.0000 C   0  0  0  0  0  0  0  0  0
    0.6642   -2.7668    0.0000 C   0  0  0  0  0  0  0  0  0
    0.6642   -1.9418    0.0000 C   0  0  0  0  0  0  0  0  0
   -0.0503   -1.5293    0.0000 C   0  0  0  0  0  0  0  0  0
   -0.7648   -1.9418    0.0000 C   0  0  0  0  0  0  0  0  0
   -0.7648   -2.7668    0.0000 C   0  0  0  0  0  0  0  0  0
   -0.0503   -3.1793    0.0000 C   0  0  0  0  0  0  0  0  0
    1.3092   -1.4274    0.0000 C   0  0  0  0  0  0  0  0  0
    1.1256   -0.6231    0.0000 O   0  0  0  0  0  0  0  0  0
    6.5300    2.7811    0.0000 C   0  0  0  0  0  0  0  0  0
    7.0443    3.4261    0.0000 C   0  0  0  0  0  0  0  0  0
    7.8601    3.3031    0.0000 C   0  0  0  0  0  0  0  0  0
    8.1615    2.5352    0.0000 C   0  0  0  0  0  0  0  0  0
    8.9773    2.4122    0.0000 Cl  0  0  0  0  0  0  0  0  0
  1  2  1  0  0  0  0
  2  3  4  0  0  0  0
  2 29  4  0  0  0  0
  3  4  1  0  0  0  0
  3 26  4  0  0  0  0
  4  5  1  0  0  0  0
  4  9  1  0  0  0  0
  5  6  1  0  0  0  0
  6  7  1  0  0  0  0
  7  8  1  0  0  0  0
  7 10  1  0  0  0  0
  8  9  1  0  0  0  0
 10 11  1  0  0  0  0
 11 12  1  0  0  0  0
 12 13  1  0  0  0  0
 13 14  1  0  0  0  0
 14 15  1  0  0  0  0
 14 24  1  0  0  0  0
 15 16  1  0  0  0  0
 16 17  1  0  0  0  0
 17 18  1  0  0  0  0
 18 19  4  0  0  0  0
 18 23  4  0  0  0  0
 19 20  4  0  0  0  0
 19 24  1  0  0  0  0
 20 21  4  0  0  0  0
 21 22  4  0  0  0  0
 22 23  4  0  0  0  0
 24 25  2  0  0  0  0
 26 27  4  0  0  0  0
 27 28  4  0  0  0  0
 28 29  4  0  0  0  0
 29 30  1  0  0  0  0
M  END
>  <Name_Molregno>
497604

>  <DOPAMINE D1>
5.76

>  <DOPAMINE D2>
7.44

>  <DOPAMINE D3>
7.84

$$$$
497669
  Marvin  02231216192D 0   1.00000     0.00000     0

 30 33  0  0  0  0  0  0  0  0999 V2000
   -0.7362   -0.7018    0.0000 O   0  0  0  0  0  0  0  0  0
   -1.4506   -1.1143    0.0000 C   0  0  0  0  0  0  0  0  0
   -0.7362    0.1232    0.0000 C   0  0  0  0  0  0  0  0  0
   -1.4506    0.5357    0.0000 C   0  0  0  0  0  0  0  0  0
   -1.4506    1.3607    0.0000 C   0  0  0  0  0  0  0  0  0
   -0.7362    1.7732    0.0000 C   0  0  0  0  0  0  0  0  0
   -0.0217    1.3607    0.0000 C   0  0  0  0  0  0  0  0  0
   -0.0217    0.5357    0.0000 C   0  0  0  0  0  0  0  0  0
    0.6928    0.1232    0.0000 N   0  0  0  0  0  0  0  0  0
    1.4072    0.5357    0.0000 C   0  0  0  0  0  0  0  0  0
    2.1217    0.1232    0.0000 C   0  0  0  0  0  0  0  0  0
    2.1217   -0.7018    0.0000 N   0  0  0  0  0  0  0  0  0
    1.4072   -1.1143    0.0000 C   0  0  0  0  0  0  0  0  0
    0.6928   -0.7018    0.0000 C   0  0  0  0  0  0  0  0  0
    2.8362   -1.1143    0.0000 C   0  0  0  0  0  0  0  0  0
    3.5507   -0.7018    0.0000 C   0  0  0  0  0  0  0  0  0
    4.2651   -1.1143    0.0000 C   0  0  0  0  0  0  0  0  0
    4.9796   -0.7018    0.0000 C   0  0  0  0  0  0  0  0  0
    5.6941   -1.1143    0.0000 C   0  0  0  0  0  0  0  0  0
    6.4085   -0.7018    0.0000 N   0  0  0  0  0  0  0  0  0
    7.1230   -1.1143    0.0000 C   0  0  0  0  0  0  0  0  0
    7.8375   -0.7018    0.0000 C   0  0  0  0  0  0  0  0  0
    7.8375    0.1232    0.0000 C   0  0  0  0  0  0  0  0  0
    7.1230    0.5357    0.0000 C   0  0  0  0  0  0  0  0  0
    7.1230    1.3607    0.0000 C   0  0  0  0  0  0  0  0  0
    7.8375    1.7732    0.0000 C   0  0  0  0  0  0  0  0  0
    8.5520    1.3607    0.0000 C   0  0  0  0  0  0  0  0  0
    8.5520    0.5357    0.0000 C   0  0  0  0  0  0  0  0  0
    6.4085    0.1232    0.0000 C   0  0  0  0  0  0  0  0  0
    5.6941    0.5357    0.0000 O   0  0  0  0  0  0  0  0  0
  1  2  1  0  0  0  0
  1  3  1  0  0  0  0
  3  4  4  0  0  0  0
  3  8  4  0  0  0  0
  4  5  4  0  0  0  0
  5  6  4  0  0  0  0
  6  7  4  0  0  0  0
  7  8  4  0  0  0  0
  8  9  1  0  0  0  0
  9 10  1  0  0  0  0
  9 14  1  0  0  0  0
 10 11  1  0  0  0  0
 11 12  1  0  0  0  0
 12 13  1  0  0  0  0
 12 15  1  0  0  0  0
 13 14  1  0  0  0  0
 15 16  1  0  0  0  0
 16 17  1  0  0  0  0
 17 18  1  0  0  0  0
 18 19  1  0  0  0  0
 19 20  1  0  0  0  0
 20 21  1  0  0  0  0
 20 29  1  0  0  0  0
 21 22  1  0  0  0  0
 22 23  1  0  0  0  0
 23 24  4  0  0  0  0
 23 28  4  0  0  0  0
 24 25  4  0  0  0  0
 24 29  1  0  0  0  0
 25 26  4  0  0  0  0
 26 27  4  0  0  0  0
 27 28  4  0  0  0  0
 29 30  2  0  0  0  0
M  END
>  <Name_Molregno>
497669

>  <DOPAMINE D1>
6.01

>  <DOPAMINE D2>
7.69

>  <DOPAMINE D3>
7.49

$$$$
498401
  Marvin  02231216192D 0   1.00000     0.00000     0

 26 29  0  0  0  0  0  0  0  0999 V2000
   -2.0281   -1.2048    0.0000 O   0  0  0  0  0  0  0  0  0
   -2.0281   -2.0298    0.0000 C   0  0  0  0  0  0  0  0  0
   -2.7426   -2.4423    0.0000 N   0  0  0  0  0  0  0  0  0
   -2.7426   -3.2673    0.0000 C   0  0  0  0  0  0  0  0  0
   -2.0281   -3.6798    0.0000 C   0  0  0  0  0  0  0  0  0
   -1.3136   -3.2673    0.0000 C   0  0  0  0  0  0  0  0  0
   -1.3136   -2.4423    0.0000 C   0  0  0  0  0  0  0  0  0
   -0.5992   -2.0298    0.0000 C   0  0  0  0  0  0  0  0  0
    0.1153   -2.4423    0.0000 C   0  0  0  0  0  0  0  0  0
    0.1153   -3.2673    0.0000 C   0  0  0  0  0  0  0  0  0
   -0.5992   -3.6798    0.0000 C   0  0  0  0  0  0  0  0  0
   -3.4570   -2.0298    0.0000 C   0  0  0  0  0  0  0  0  0
   -3.4570   -1.2048    0.0000 C   0  0  0  0  0  0  0  0  0
   -4.1715   -0.7923    0.0000 C   0  0  0  0  0  0  0  0  0
   -4.1715    0.0327    0.0000 N   0  0  0  0  0  0  0  0  0
   -4.8860    0.4452    0.0000 C   0  0  0  0  0  0  0  0  0
   -4.8860    1.2702    0.0000 C   0  0  0  0  0  0  0  0  0
   -4.1715    1.6827    0.0000 N   0  0  0  0  0  0  0  0  0
   -3.4570    1.2702    0.0000 C   0  0  0  0  0  0  0  0  0
   -3.4570    0.4452    0.0000 C   0  0  0  0  0  0  0  0  0
   -4.1715    2.5077    0.0000 C   0  0  0  0  0  0  0  0  0
   -4.8860    2.9202    0.0000 N   0  0  0  0  0  0  0  0  0
   -4.8860    3.7452    0.0000 C   0  0  0  0  0  0  0  0  0
   -4.1715    4.1577    0.0000 C   0  0  0  0  0  0  0  0  0
   -3.4570    3.7452    0.0000 C   0  0  0  0  0  0  0  0  0
   -3.4570    2.9202    0.0000 C   0  0  0  0  0  0  0  0  0
  1  2  2  0  0  0  0
  2  3  1  0  0  0  0
  2  7  1  0  0  0  0
  3  4  1  0  0  0  0
  3 12  1  0  0  0  0
  4  5  1  0  0  0  0
  5  6  1  0  0  0  0
  6  7  4  0  0  0  0
  6 11  4  0  0  0  0
  7  8  4  0  0  0  0
  8  9  4  0  0  0  0
  9 10  4  0  0  0  0
 10 11  4  0  0  0  0
 12 13  1  0  0  0  0
 13 14  1  0  0  0  0
 14 15  1  0  0  0  0
 15 16  1  0  0  0  0
 15 20  1  0  0  0  0
 16 17  1  0  0  0  0
 17 18  1  0  0  0  0
 18 19  1  0  0  0  0
 18 21  1  0  0  0  0
 19 20  1  0  0  0  0
 21 22  4  0  0  0  0
 21 26  4  0  0  0  0
 22 23  4  0  0  0  0
 23 24  4  0  0  0  0
 24 25  4  0  0  0  0
 25 26  4  0  0  0  0
M  END
>  <Name_Molregno>
498401

>  <DOPAMINE D1>
5.77

>  <DOPAMINE D3>
5.08

$$$$
498475
  Marvin  02231216192D 0   1.00000     0.00000     0

 30 33  0  0  0  0  0  0  0  0999 V2000
    4.9975    3.7939    0.0000 F   0  0  0  0  0  0  0  0  0
    4.2830    3.3814    0.0000 C   0  0  0  0  0  0  0  0  0
    3.8705    4.0959    0.0000 F   0  0  0  0  0  0  0  0  0
    4.6955    2.6669    0.0000 F   0  0  0  0  0  0  0  0  0
    3.5686    2.9689    0.0000 C   0  0  0  0  0  0  0  0  0
    3.5686    2.1439    0.0000 C   0  0  0  0  0  0  0  0  0
    2.8541    1.7314    0.0000 C   0  0  0  0  0  0  0  0  0
    2.8541    0.9064    0.0000 N   0  0  0  0  0  0  0  0  0
    3.5686    0.4939    0.0000 C   0  0  0  0  0  0  0  0  0
    3.5686   -0.3311    0.0000 C   0  0  0  0  0  0  0  0  0
    2.8541   -0.7436    0.0000 N   0  0  0  0  0  0  0  0  0
    2.1396   -0.3311    0.0000 C   0  0  0  0  0  0  0  0  0
    2.1396    0.4939    0.0000 C   0  0  0  0  0  0  0  0  0
    2.8541   -1.5686    0.0000 C   0  0  0  0  0  0  0  0  0
    3.5686   -1.9811    0.0000 C   0  0  0  0  0  0  0  0  0
    3.5686   -2.8061    0.0000 C   0  0  0  0  0  0  0  0  0
    4.2830   -3.2186    0.0000 N   0  0  0  0  0  0  0  0  0
    4.2830   -4.0436    0.0000 C   0  0  0  0  0  0  0  0  0
    4.9975   -4.4561    0.0000 C   0  0  0  0  0  0  0  0  0
    5.7120   -4.0436    0.0000 C   0  0  0  0  0  0  0  0  0
    5.7120   -3.2186    0.0000 C   0  0  0  0  0  0  0  0  0
    6.4264   -2.8061    0.0000 C   0  0  0  0  0  0  0  0  0
    7.1409   -3.2186    0.0000 C   0  0  0  0  0  0  0  0  0
    7.1409   -4.0436    0.0000 C   0  0  0  0  0  0  0  0  0
    6.4264   -4.4561    0.0000 C   0  0  0  0  0  0  0  0  0
    4.9975   -2.8061    0.0000 C   0  0  0  0  0  0  0  0  0
    4.9975   -1.9811    0.0000 O   0  0  0  0  0  0  0  0  0
    2.1396    2.1439    0.0000 C   0  0  0  0  0  0  0  0  0
    2.1396    2.9689    0.0000 C   0  0  0  0  0  0  0  0  0
    2.8541    3.3814    0.0000 C   0  0  0  0  0  0  0  0  0
  1  2  1  0  0  0  0
  2  3  1  0  0  0  0
  2  4  1  0  0  0  0
  2  5  1  0  0  0  0
  5  6  4  0  0  0  0
  5 30  4  0  0  0  0
  6  7  4  0  0  0  0
  7  8  1  0  0  0  0
  7 28  4  0  0  0  0
  8  9  1  0  0  0  0
  8 13  1  0  0  0  0
  9 10  1  0  0  0  0
 10 11  1  0  0  0  0
 11 12  1  0  0  0  0
 11 14  1  0  0  0  0
 12 13  1  0  0  0  0
 14 15  1  0  0  0  0
 15 16  1  0  0  0  0
 16 17  1  0  0  0  0
 17 18  1  0  0  0  0
 17 26  1  0  0  0  0
 18 19  1  0  0  0  0
 19 20  1  0  0  0  0
 20 21  4  0  0  0  0
 20 25  4  0  0  0  0
 21 22  4  0  0  0  0
 21 26  1  0  0  0  0
 22 23  4  0  0  0  0
 23 24  4  0  0  0  0
 24 25  4  0  0  0  0
 26 27  2  0  0  0  0
 28 29  4  0  0  0  0
 29 30  4  0  0  0  0
M  END
>  <Name_Molregno>
498475

>  <DOPAMINE D1>
5.76

>  <DOPAMINE D3>
5.62

$$$$
498476
  Marvin  02231216192D 0   1.00000     0.00000     0

 28 31  0  0  0  0  0  0  0  0999 V2000
   -0.0977   -0.0043    0.0000 Cl  0  0  0  0  0  0  0  0  0
   -0.0977   -0.8293    0.0000 C   0  0  0  0  0  0  0  0  0
    0.6168   -1.2418    0.0000 C   0  0  0  0  0  0  0  0  0
    1.3313   -0.8293    0.0000 N   0  0  0  0  0  0  0  0  0
    1.3313   -0.0043    0.0000 C   0  0  0  0  0  0  0  0  0
    2.0457    0.4082    0.0000 C   0  0  0  0  0  0  0  0  0
    2.7602   -0.0043    0.0000 N   0  0  0  0  0  0  0  0  0
    2.7602   -0.8293    0.0000 C   0  0  0  0  0  0  0  0  0
    2.0457   -1.2418    0.0000 C   0  0  0  0  0  0  0  0  0
    3.4747    0.4082    0.0000 C   0  0  0  0  0  0  0  0  0
    4.1892   -0.0043    0.0000 C   0  0  0  0  0  0  0  0  0
    4.9036    0.4082    0.0000 C   0  0  0  0  0  0  0  0  0
    5.6181   -0.0043    0.0000 N   0  0  0  0  0  0  0  0  0
    5.6181   -0.8293    0.0000 C   0  0  0  0  0  0  0  0  0
    6.3326   -1.2418    0.0000 C   0  0  0  0  0  0  0  0  0
    7.0470   -0.8293    0.0000 C   0  0  0  0  0  0  0  0  0
    7.0470   -0.0043    0.0000 C   0  0  0  0  0  0  0  0  0
    7.7615    0.4082    0.0000 C   0  0  0  0  0  0  0  0  0
    8.4760   -0.0043    0.0000 C   0  0  0  0  0  0  0  0  0
    8.4760   -0.8293    0.0000 C   0  0  0  0  0  0  0  0  0
    7.7615   -1.2418    0.0000 C   0  0  0  0  0  0  0  0  0
    6.3326    0.4082    0.0000 C   0  0  0  0  0  0  0  0  0
    6.3326    1.2332    0.0000 O   0  0  0  0  0  0  0  0  0
    0.6168   -2.0668    0.0000 C   0  0  0  0  0  0  0  0  0
   -0.0977   -2.4793    0.0000 C   0  0  0  0  0  0  0  0  0
   -0.8121   -2.0668    0.0000 C   0  0  0  0  0  0  0  0  0
   -0.8121   -1.2418    0.0000 C   0  0  0  0  0  0  0  0  0
   -1.5266   -0.8293    0.0000 Cl  0  0  0  0  0  0  0  0  0
  1  2  1  0  0  0  0
  2  3  4  0  0  0  0
  2 27  4  0  0  0  0
  3  4  1  0  0  0  0
  3 24  4  0  0  0  0
  4  5  1  0  0  0  0
  4  9  1  0  0  0  0
  5  6  1  0  0  0  0
  6  7  1  0  0  0  0
  7  8  1  0  0  0  0
  7 10  1  0  0  0  0
  8  9  1  0  0  0  0
 10 11  1  0  0  0  0
 11 12  1  0  0  0  0
 12 13  1  0  0  0  0
 13 14  1  0  0  0  0
 13 22  1  0  0  0  0
 14 15  1  0  0  0  0
 15 16  1  0  0  0  0
 16 17  4  0  0  0  0
 16 21  4  0  0  0  0
 17 18  4  0  0  0  0
 17 22  1  0  0  0  0
 18 19  4  0  0  0  0
 19 20  4  0  0  0  0
 20 21  4  0  0  0  0
 22 23  2  0  0  0  0
 24 25  4  0  0  0  0
 25 26  4  0  0  0  0
 26 27  4  0  0  0  0
 27 28  1  0  0  0  0
M  END
>  <Name_Molregno>
498476

>  <DOPAMINE D1>
5.84

>  <DOPAMINE D3>
6.68

$$$$
498477
  Marvin  02231216192D 0   1.00000     0.00000     0

 29 32  0  0  0  0  0  0  0  0999 V2000
   -0.3182    2.2011    0.0000 O   0  0  0  0  0  0  0  0  0
    0.1962    2.8461    0.0000 C   0  0  0  0  0  0  0  0  0
   -0.0168    1.4331    0.0000 C   0  0  0  0  0  0  0  0  0
    0.7990    1.3101    0.0000 C   0  0  0  0  0  0  0  0  0
    1.1004    0.5422    0.0000 C   0  0  0  0  0  0  0  0  0
    0.5860   -0.1028    0.0000 C   0  0  0  0  0  0  0  0  0
   -0.2298    0.0201    0.0000 C   0  0  0  0  0  0  0  0  0
   -0.5312    0.7881    0.0000 C   0  0  0  0  0  0  0  0  0
   -1.3470    0.9111    0.0000 N   0  0  0  0  0  0  0  0  0
   -1.8614    0.2660    0.0000 C   0  0  0  0  0  0  0  0  0
   -2.6771    0.3890    0.0000 C   0  0  0  0  0  0  0  0  0
   -2.9786    1.1570    0.0000 N   0  0  0  0  0  0  0  0  0
   -2.4642    1.8020    0.0000 C   0  0  0  0  0  0  0  0  0
   -1.6484    1.6790    0.0000 C   0  0  0  0  0  0  0  0  0
   -3.7943    1.2799    0.0000 C   0  0  0  0  0  0  0  0  0
   -4.3087    0.6349    0.0000 C   0  0  0  0  0  0  0  0  0
   -5.1245    0.7579    0.0000 C   0  0  0  0  0  0  0  0  0
   -5.6389    0.1129    0.0000 N   0  0  0  0  0  0  0  0  0
   -5.2809   -0.6304    0.0000 C   0  0  0  0  0  0  0  0  0
   -5.6389   -1.3737    0.0000 C   0  0  0  0  0  0  0  0  0
   -6.4432   -1.5573    0.0000 C   0  0  0  0  0  0  0  0  0
   -7.0882   -1.0429    0.0000 C   0  0  0  0  0  0  0  0  0
   -7.0882   -0.2179    0.0000 C   0  0  0  0  0  0  0  0  0
   -7.8027    0.1946    0.0000 C   0  0  0  0  0  0  0  0  0
   -8.5171   -0.2179    0.0000 C   0  0  0  0  0  0  0  0  0
   -8.5171   -1.0429    0.0000 C   0  0  0  0  0  0  0  0  0
   -7.8027   -1.4554    0.0000 C   0  0  0  0  0  0  0  0  0
   -6.4432    0.2965    0.0000 C   0  0  0  0  0  0  0  0  0
   -6.6268    1.1008    0.0000 O   0  0  0  0  0  0  0  0  0
  1  2  1  0  0  0  0
  1  3  1  0  0  0  0
  3  4  4  0  0  0  0
  3  8  4  0  0  0  0
  4  5  4  0  0  0  0
  5  6  4  0  0  0  0
  6  7  4  0  0  0  0
  7  8  4  0  0  0  0
  8  9  1  0  0  0  0
  9 10  1  0  0  0  0
  9 14  1  0  0  0  0
 10 11  1  0  0  0  0
 11 12  1  0  0  0  0
 12 13  1  0  0  0  0
 12 15  1  0  0  0  0
 13 14  1  0  0  0  0
 15 16  1  0  0  0  0
 16 17  1  0  0  0  0
 17 18  1  0  0  0  0
 18 19  1  0  0  0  0
 18 28  1  0  0  0  0
 19 20  1  0  0  0  0
 20 21  1  0  0  0  0
 21 22  1  0  0  0  0
 22 23  4  0  0  0  0
 22 27  4  0  0  0  0
 23 24  4  0  0  0  0
 23 28  1  0  0  0  0
 24 25  4  0  0  0  0
 25 26  4  0  0  0  0
 26 27  4  0  0  0  0
 28 29  2  0  0  0  0
M  END
>  <Name_Molregno>
498477

>  <DOPAMINE D1>
5.6

>  <DOPAMINE D2>
6.1

>  <DOPAMINE D3>
6.68

$$$$
498540
  Marvin  02231216192D 0   1.00000     0.00000     0

 31 34  0  0  0  0  0  0  0  0999 V2000
    8.8070   -2.1158    0.0000 F   0  0  0  0  0  0  0  0  0
    8.5055   -1.3478    0.0000 C   0  0  0  0  0  0  0  0  0
    9.2735   -1.0464    0.0000 F   0  0  0  0  0  0  0  0  0
    7.7376   -1.6492    0.0000 F   0  0  0  0  0  0  0  0  0
    8.2041   -0.5798    0.0000 C   0  0  0  0  0  0  0  0  0
    7.3884   -0.4569    0.0000 C   0  0  0  0  0  0  0  0  0
    7.0869    0.3111    0.0000 C   0  0  0  0  0  0  0  0  0
    6.2712    0.4341    0.0000 N   0  0  0  0  0  0  0  0  0
    5.7568   -0.2109    0.0000 C   0  0  0  0  0  0  0  0  0
    4.9410   -0.0880    0.0000 C   0  0  0  0  0  0  0  0  0
    4.6396    0.6800    0.0000 N   0  0  0  0  0  0  0  0  0
    5.1540    1.3250    0.0000 C   0  0  0  0  0  0  0  0  0
    5.9698    1.2020    0.0000 C   0  0  0  0  0  0  0  0  0
    3.8238    0.8030    0.0000 C   0  0  0  0  0  0  0  0  0
    3.3094    0.1579    0.0000 C   0  0  0  0  0  0  0  0  0
    2.4936    0.2809    0.0000 C   0  0  0  0  0  0  0  0  0
    1.9793   -0.3641    0.0000 N   0  0  0  0  0  0  0  0  0
    2.3372   -1.1074    0.0000 C   0  0  0  0  0  0  0  0  0
    1.9793   -1.8507    0.0000 C   0  0  0  0  0  0  0  0  0
    1.1749   -2.0343    0.0000 C   0  0  0  0  0  0  0  0  0
    0.5299   -1.5199    0.0000 C   0  0  0  0  0  0  0  0  0
    0.5299   -0.6949    0.0000 C   0  0  0  0  0  0  0  0  0
   -0.1845   -0.2824    0.0000 C   0  0  0  0  0  0  0  0  0
   -0.8990   -0.6949    0.0000 C   0  0  0  0  0  0  0  0  0
   -0.8990   -1.5199    0.0000 C   0  0  0  0  0  0  0  0  0
   -0.1845   -1.9324    0.0000 C   0  0  0  0  0  0  0  0  0
    1.1749   -0.1805    0.0000 C   0  0  0  0  0  0  0  0  0
    0.9914    0.6238    0.0000 O   0  0  0  0  0  0  0  0  0
    7.6013    0.9561    0.0000 C   0  0  0  0  0  0  0  0  0
    8.4171    0.8332    0.0000 C   0  0  0  0  0  0  0  0  0
    8.7185    0.0652    0.0000 C   0  0  0  0  0  0  0  0  0
  1  2  1  0  0  0  0
  2  3  1  0  0  0  0
  2  4  1  0  0  0  0
  2  5  1  0  0  0  0
  5  6  4  0  0  0  0
  5 31  4  0  0  0  0
  6  7  4  0  0  0  0
  7  8  1  0  0  0  0
  7 29  4  0  0  0  0
  8  9  1  0  0  0  0
  8 13  1  0  0  0  0
  9 10  1  0  0  0  0
 10 11  1  0  0  0  0
 11 12  1  0  0  0  0
 11 14  1  0  0  0  0
 12 13  1  0  0  0  0
 14 15  1  0  0  0  0
 15 16  1  0  0  0  0
 16 17  1  0  0  0  0
 17 18  1  0  0  0  0
 17 27  1  0  0  0  0
 18 19  1  0  0  0  0
 19 20  1  0  0  0  0
 20 21  1  0  0  0  0
 21 22  4  0  0  0  0
 21 26  4  0  0  0  0
 22 23  4  0  0  0  0
 22 27  1  0  0  0  0
 23 24  4  0  0  0  0
 24 25  4  0  0  0  0
 25 26  4  0  0  0  0
 27 28  2  0  0  0  0
 29 30  4  0  0  0  0
 30 31  4  0  0  0  0
M  END
>  <Name_Molregno>
498540

>  <DOPAMINE D1>
5.31

>  <DOPAMINE D3>
5.98

$$$$
498541
  Marvin  02231216192D 0   1.00000     0.00000     0

 29 32  0  0  0  0  0  0  0  0999 V2000
    5.1079    2.8983    0.0000 Cl  0  0  0  0  0  0  0  0  0
    4.2921    3.0213    0.0000 C   0  0  0  0  0  0  0  0  0
    3.7777    2.3763    0.0000 C   0  0  0  0  0  0  0  0  0
    4.0791    1.6083    0.0000 N   0  0  0  0  0  0  0  0  0
    4.8949    1.4854    0.0000 C   0  0  0  0  0  0  0  0  0
    5.1963    0.7174    0.0000 C   0  0  0  0  0  0  0  0  0
    4.6820    0.0724    0.0000 N   0  0  0  0  0  0  0  0  0
    3.8662    0.1953    0.0000 C   0  0  0  0  0  0  0  0  0
    3.5648    0.9633    0.0000 C   0  0  0  0  0  0  0  0  0
    4.9834   -0.6956    0.0000 C   0  0  0  0  0  0  0  0  0
    4.4690   -1.3406    0.0000 C   0  0  0  0  0  0  0  0  0
    4.7704   -2.1086    0.0000 C   0  0  0  0  0  0  0  0  0
    4.2560   -2.7536    0.0000 N   0  0  0  0  0  0  0  0  0
    4.6140   -3.4969    0.0000 C   0  0  0  0  0  0  0  0  0
    4.2560   -4.2402    0.0000 C   0  0  0  0  0  0  0  0  0
    3.4517   -4.4238    0.0000 C   0  0  0  0  0  0  0  0  0
    2.8067   -3.9094    0.0000 C   0  0  0  0  0  0  0  0  0
    2.8067   -3.0844    0.0000 C   0  0  0  0  0  0  0  0  0
    2.0922   -2.6719    0.0000 C   0  0  0  0  0  0  0  0  0
    1.3777   -3.0844    0.0000 C   0  0  0  0  0  0  0  0  0
    1.3777   -3.9094    0.0000 C   0  0  0  0  0  0  0  0  0
    2.0922   -4.3219    0.0000 C   0  0  0  0  0  0  0  0  0
    3.4517   -2.5700    0.0000 C   0  0  0  0  0  0  0  0  0
    3.2681   -1.7657    0.0000 O   0  0  0  0  0  0  0  0  0
    2.9620    2.4993    0.0000 C   0  0  0  0  0  0  0  0  0
    2.6605    3.2672    0.0000 C   0  0  0  0  0  0  0  0  0
    3.1749    3.9122    0.0000 C   0  0  0  0  0  0  0  0  0
    3.9907    3.7893    0.0000 C   0  0  0  0  0  0  0  0  0
    4.5051    4.4343    0.0000 Cl  0  0  0  0  0  0  0  0  0
  1  2  1  0  0  0  0
  2  3  4  0  0  0  0
  2 28  4  0  0  0  0
  3  4  1  0  0  0  0
  3 25  4  0  0  0  0
  4  5  1  0  0  0  0
  4  9  1  0  0  0  0
  5  6  1  0  0  0  0
  6  7  1  0  0  0  0
  7  8  1  0  0  0  0
  7 10  1  0  0  0  0
  8  9  1  0  0  0  0
 10 11  1  0  0  0  0
 11 12  1  0  0  0  0
 12 13  1  0  0  0  0
 13 14  1  0  0  0  0
 13 23  1  0  0  0  0
 14 15  1  0  0  0  0
 15 16  1  0  0  0  0
 16 17  1  0  0  0  0
 17 18  4  0  0  0  0
 17 22  4  0  0  0  0
 18 19  4  0  0  0  0
 18 23  1  0  0  0  0
 19 20  4  0  0  0  0
 20 21  4  0  0  0  0
 21 22  4  0  0  0  0
 23 24  2  0  0  0  0
 25 26  4  0  0  0  0
 26 27  4  0  0  0  0
 27 28  4  0  0  0  0
 28 29  1  0  0  0  0
M  END
>  <Name_Molregno>
498541

>  <DOPAMINE D1>
5.62

>  <DOPAMINE D2>
6.66

>  <DOPAMINE D3>
6.41

$$$$
498962
  Marvin  02231216192D 0   1.00000     0.00000     0

 29 31  0  0  0  0  0  0  0  0999 V2000
    4.6273    6.8992    0.0000 F   0  0  0  0  0  0  0  0  0
    4.6273    6.0742    0.0000 C   0  0  0  0  0  0  0  0  0
    5.3417    5.6617    0.0000 C   0  0  0  0  0  0  0  0  0
    5.3417    4.8367    0.0000 C   0  0  0  0  0  0  0  0  0
    4.6273    4.4242    0.0000 C   0  0  0  0  0  0  0  0  0
    3.9128    4.8367    0.0000 C   0  0  0  0  0  0  0  0  0
    3.9128    5.6617    0.0000 C   0  0  0  0  0  0  0  0  0
    4.6273    3.5992    0.0000 C   0  0  0  0  0  0  0  0  0
    5.3417    3.1867    0.0000 C   0  0  0  0  0  0  0  0  0
    5.3417    2.3617    0.0000 N   0  0  0  0  0  0  0  0  0
    6.0562    1.9492    0.0000 C   0  0  0  0  0  0  0  0  0
    6.0562    1.1242    0.0000 C   0  0  0  0  0  0  0  0  0
    5.3417    0.7117    0.0000 C   0  0  0  0  0  0  0  0  0
    4.6273    1.1242    0.0000 C   0  0  0  0  0  0  0  0  0
    4.6273    1.9492    0.0000 C   0  0  0  0  0  0  0  0  0
    5.3417   -0.1133    0.0000 C   0  0  0  0  0  0  0  0  0
    4.6273   -0.5258    0.0000 O   0  0  0  0  0  0  0  0  0
    6.0562   -0.5258    0.0000 C   0  0  0  0  0  0  0  0  0
    6.7707   -0.1133    0.0000 C   0  0  0  0  0  0  0  0  0
    7.4851   -0.5258    0.0000 C   0  0  0  0  0  0  0  0  0
    7.4851   -1.3508    0.0000 C   0  0  0  0  0  0  0  0  0
    6.7707   -1.7633    0.0000 C   0  0  0  0  0  0  0  0  0
    6.7707   -2.5883    0.0000 O   0  0  0  0  0  0  0  0  0
    7.4851   -3.0008    0.0000 C   0  0  0  0  0  0  0  0  0
    7.4851   -3.8258    0.0000 C   0  0  0  0  0  0  0  0  0
    8.1996   -4.2383    0.0000 F   0  0  0  0  0  0  0  0  0
    6.0562   -1.3508    0.0000 C   0  0  0  0  0  0  0  0  0
    5.3417   -1.7633    0.0000 O   0  0  0  0  0  0  0  0  0
    5.3417   -2.5883    0.0000 C   0  0  0  0  0  0  0  0  0
  1  2  1  0  0  0  0
  2  3  4  0  0  0  0
  2  7  4  0  0  0  0
  3  4  4  0  0  0  0
  4  5  4  0  0  0  0
  5  6  4  0  0  0  0
  5  8  1  0  0  0  0
  6  7  4  0  0  0  0
  8  9  1  0  0  0  0
  9 10  1  0  0  0  0
 10 11  1  0  0  0  0
 10 15  1  0  0  0  0
 11 12  1  0  0  0  0
 12 13  1  0  0  0  0
 13 14  1  0  0  0  0
 13 16  1  0  0  0  0
 14 15  1  0  0  0  0
 16 17  2  0  0  0  0
 16 18  1  0  0  0  0
 18 19  4  0  0  0  0
 18 27  4  0  0  0  0
 19 20  4  0  0  0  0
 20 21  4  0  0  0  0
 21 22  4  0  0  0  0
 22 23  1  0  0  0  0
 22 27  4  0  0  0  0
 23 24  1  0  0  0  0
 24 25  1  0  0  0  0
 25 26  1  0  0  0  0
 27 28  1  0  0  0  0
 28 29  1  0  0  0  0
M  END
>  <Name_Molregno>
498962

>  <5-HT1A>
5.77

>  <5-HT1B>
5.66

>  <5-HT1D>
6.15

>  <5-HT1E>
5

>  <5-HT2C>
6.89

>  <5-HT3>
5

>  <5-HT5>
5.8

>  <5-HT6>
5

>  <5-HT7>
6.68

>  <Alpha-1A>
6.84

>  <Alpha-1B>
6.26

>  <Alpha-2A>
6.06

>  <Alpha-2C>
6.48

>  <DOPAMINE D1>
5.85

>  <DOPAMINE D2>
5.42

>  <DOPAMINE D4>
6.76

>  <DOPAMINE D5>
5.13

>  <Dopamine transporter>
5

>  <HISTAMINE H1>
6.03

>  <HISTAMINE H2>
5.76

>  <HISTAMINE H3>
5

>  <Serotonin transporter>
5.51

$$$$
498964
  Marvin  02231216192D 0   1.00000     0.00000     0

 29 31  0  0  1  0  0  0  0  0999 V2000
    7.7806    5.8078    0.0000 F   0  0  0  0  0  0  0  0  0
    7.0662    5.3953    0.0000 C   0  0  0  0  0  0  0  0  0
    7.0662    4.5703    0.0000 C   0  0  0  0  0  0  0  0  0
    6.3517    4.1578    0.0000 O   0  0  0  0  0  0  0  0  0
    6.3517    3.3328    0.0000 C   0  0  0  0  0  0  0  0  0
    7.0662    2.9203    0.0000 C   0  0  0  0  0  0  0  0  0
    7.0662    2.0953    0.0000 C   0  0  0  0  0  0  0  0  0
    6.3517    1.6828    0.0000 C   0  0  0  0  0  0  0  0  0
    5.6372    2.0953    0.0000 C   0  0  0  0  0  0  0  0  0
    4.9227    1.6828    0.0000 C   0  0  0  0  0  0  0  0  0
    4.2083    2.0953    0.0000 O   0  0  0  0  0  0  0  0  0
    4.9227    0.8578    0.0000 C   0  0  0  0  0  0  0  0  0
    5.6372    0.4453    0.0000 C   0  0  0  0  0  0  0  0  0
    5.6372   -0.3797    0.0000 C   0  0  0  0  0  0  0  0  0
    4.9227   -0.7922    0.0000 N   0  0  0  0  0  0  0  0  0
    4.2083   -0.3797    0.0000 C   0  0  0  0  0  0  0  0  0
    4.2083    0.4453    0.0000 C   0  0  0  0  0  0  0  0  0
    4.9227   -1.6172    0.0000 C   0  0  0  0  0  0  0  0  0
    5.6372   -2.0297    0.0000 C   0  0  0  0  0  0  0  0  0
    5.6372   -2.8547    0.0000 C   0  0  0  0  0  0  0  0  0
    6.3517   -3.2672    0.0000 C   0  0  0  0  0  0  0  0  0
    6.3517   -4.0922    0.0000 C   0  0  0  0  0  0  0  0  0
    5.6372   -4.5047    0.0000 C   0  0  0  0  0  0  0  0  0
    4.9227   -4.0922    0.0000 C   0  0  0  0  0  0  0  0  0
    4.9227   -3.2672    0.0000 C   0  0  0  0  0  0  0  0  0
    5.6372   -5.3297    0.0000 C   0  0  0  0  0  0  0  0  0
    5.6372    2.9203    0.0000 C   0  0  0  0  0  0  0  0  0
    4.9227    3.3328    0.0000 O   0  0  0  0  0  0  0  0  0
    4.2083    2.9203    0.0000 C   0  0  0  0  0  0  0  0  0
  1  2  1  0  0  0  0
  2  3  1  0  0  0  0
  3  4  1  0  0  0  0
  4  5  1  0  0  0  0
  5  6  4  0  0  0  0
  5 27  4  0  0  0  0
  6  7  4  0  0  0  0
  7  8  4  0  0  0  0
  8  9  4  0  0  0  0
  9 10  1  0  0  0  0
  9 27  4  0  0  0  0
 10 11  1  0  0  0  0
 10 12  1  0  0  0  0
 12 13  1  0  0  0  0
 12 17  1  0  0  0  0
 13 14  1  0  0  0  0
 14 15  1  0  0  0  0
 15 16  1  0  0  0  0
 15 18  1  0  0  0  0
 16 17  1  0  0  0  0
 18 19  1  0  0  0  0
 19 20  1  0  0  0  0
 20 21  4  0  0  0  0
 20 25  4  0  0  0  0
 21 22  4  0  0  0  0
 22 23  4  0  0  0  0
 23 24  4  0  0  0  0
 23 26  1  0  0  0  0
 24 25  4  0  0  0  0
 27 28  1  0  0  0  0
 28 29  1  0  0  0  0
M  END
>  <Name_Molregno>
498964

>  <5-HT1A>
5

>  <5-HT1B>
5.31

>  <5-HT1D>
5.84

>  <5-HT1E>
5

>  <5-HT2C>
6.29

>  <5-HT3>
5

>  <5-HT5>
5

>  <5-HT6>
5

>  <5-HT7>
6.3

>  <Alpha-1B>
5

>  <Alpha-2A>
5

>  <Alpha-2C>
6.84

>  <DOPAMINE D1>
5.75

>  <DOPAMINE D2>
5

>  <DOPAMINE D4>
5.57

>  <Dopamine transporter>
5

>  <HISTAMINE H1>
6.36

>  <HISTAMINE H2>
5.94

>  <HISTAMINE H3>
5

>  <Serotonin transporter>
5.58

$$$$
499028
  Marvin  02231216192D 0   1.00000     0.00000     0

 29 31  0  0  0  0  0  0  0  0999 V2000
    7.7806    5.8078    0.0000 F   0  0  0  0  0  0  0  0  0
    7.0662    5.3953    0.0000 C   0  0  0  0  0  0  0  0  0
    7.0662    4.5703    0.0000 C   0  0  0  0  0  0  0  0  0
    6.3517    4.1578    0.0000 O   0  0  0  0  0  0  0  0  0
    6.3517    3.3328    0.0000 C   0  0  0  0  0  0  0  0  0
    7.0662    2.9203    0.0000 C   0  0  0  0  0  0  0  0  0
    7.0662    2.0953    0.0000 C   0  0  0  0  0  0  0  0  0
    6.3517    1.6828    0.0000 C   0  0  0  0  0  0  0  0  0
    5.6372    2.0953    0.0000 C   0  0  0  0  0  0  0  0  0
    4.9227    1.6828    0.0000 C   0  0  0  0  0  0  0  0  0
    4.2083    2.0953    0.0000 O   0  0  0  0  0  0  0  0  0
    4.9227    0.8578    0.0000 C   0  0  0  0  0  0  0  0  0
    5.6372    0.4453    0.0000 C   0  0  0  0  0  0  0  0  0
    5.6372   -0.3797    0.0000 C   0  0  0  0  0  0  0  0  0
    4.9227   -0.7922    0.0000 N   0  0  0  0  0  0  0  0  0
    4.2083   -0.3797    0.0000 C   0  0  0  0  0  0  0  0  0
    4.2083    0.4453    0.0000 C   0  0  0  0  0  0  0  0  0
    4.9227   -1.6172    0.0000 C   0  0  0  0  0  0  0  0  0
    5.6372   -2.0297    0.0000 C   0  0  0  0  0  0  0  0  0
    5.6372   -2.8547    0.0000 C   0  0  0  0  0  0  0  0  0
    6.3517   -3.2672    0.0000 C   0  0  0  0  0  0  0  0  0
    6.3517   -4.0922    0.0000 C   0  0  0  0  0  0  0  0  0
    5.6372   -4.5047    0.0000 C   0  0  0  0  0  0  0  0  0
    4.9227   -4.0922    0.0000 C   0  0  0  0  0  0  0  0  0
    4.9227   -3.2672    0.0000 C   0  0  0  0  0  0  0  0  0
    5.6372   -5.3297    0.0000 C   0  0  0  0  0  0  0  0  0
    5.6372    2.9203    0.0000 C   0  0  0  0  0  0  0  0  0
    4.9227    3.3328    0.0000 O   0  0  0  0  0  0  0  0  0
    4.2083    2.9203    0.0000 C   0  0  0  0  0  0  0  0  0
  1  2  1  0  0  0  0
  2  3  1  0  0  0  0
  3  4  1  0  0  0  0
  4  5  1  0  0  0  0
  5  6  4  0  0  0  0
  5 27  4  0  0  0  0
  6  7  4  0  0  0  0
  7  8  4  0  0  0  0
  8  9  4  0  0  0  0
  9 10  1  0  0  0  0
  9 27  4  0  0  0  0
 10 11  2  0  0  0  0
 10 12  1  0  0  0  0
 12 13  1  0  0  0  0
 12 17  1  0  0  0  0
 13 14  1  0  0  0  0
 14 15  1  0  0  0  0
 15 16  1  0  0  0  0
 15 18  1  0  0  0  0
 16 17  1  0  0  0  0
 18 19  1  0  0  0  0
 19 20  1  0  0  0  0
 20 21  4  0  0  0  0
 20 25  4  0  0  0  0
 21 22  4  0  0  0  0
 22 23  4  0  0  0  0
 23 24  4  0  0  0  0
 23 26  1  0  0  0  0
 24 25  4  0  0  0  0
 27 28  1  0  0  0  0
 28 29  1  0  0  0  0
M  END
>  <Name_Molregno>
499028

>  <5-HT1A>
5.73

>  <5-HT1B>
5.47

>  <5-HT1E>
5

>  <5-HT2C>
6.3

>  <5-HT3>
5

>  <5-HT5>
5.77

>  <5-HT6>
5

>  <5-HT7>
6.14

>  <Alpha-2C>
6.81

>  <DOPAMINE D1>
5.71

>  <DOPAMINE D2>
5

>  <DOPAMINE D4>
6.03

>  <HISTAMINE H1>
6.18

>  <HISTAMINE H2>
6.08

>  <HISTAMINE H3>
5.04

>  <Serotonin transporter>
6

$$$$
513010
  Marvin  02231216192D 0   1.00000     0.00000     0

 22 24  0  0  1  0  0  0  0  0999 V2000
   -0.2296   -0.4433    0.0000 O   0  0  0  0  0  0  0  0  0
    0.5954   -0.4441    0.0000 C   0  0  0  0  0  0  0  0  0
    1.0086    0.2700    0.0000 O   0  0  0  0  0  0  0  0  0
    1.0072   -1.1590    0.0000 C   0  0  0  0  0  0  0  0  0
    1.8322   -1.1598    0.0000 C   0  0  0  0  0  0  0  0  0
    2.2440   -1.8747    0.0000 C   0  0  0  0  0  0  0  0  0
    1.8308   -2.5887    0.0000 C   0  0  0  0  0  0  0  0  0
    1.0058   -2.5879    0.0000 C   0  0  0  0  0  0  0  0  0
    0.5940   -1.8730    0.0000 C   0  0  0  0  0  0  0  0  0
   -0.6414    0.2716    0.0000 C   0  0  0  0  0  0  0  0  0
   -0.7796    1.0890    0.0000 C   0  0  0  0  0  0  0  0  0
   -1.7084    1.0735    0.0000 C   0  0  0  0  0  0  0  0  0
   -2.2690    1.5134    0.0000 N   0  0  0  0  0  0  0  0  0
   -2.1293    0.7003    0.0000 C   0  0  0  0  0  0  0  0  0
   -2.6492   -0.0120    0.0000 C   0  0  0  0  0  0  0  0  0
   -2.0289    0.3649    0.0000 C   0  0  0  0  0  0  0  0  0
   -1.1576    0.7003    0.0000 C   0  0  0  0  0  0  0  0  0
   -1.4378   -0.0757    0.0000 C   0  0  0  0  0  0  0  0  0
   -2.2499   -0.2210    0.0000 O   0  0  0  0  0  0  0  0  0
   -2.5301   -0.9969    0.0000 C   0  0  0  0  0  0  0  0  0
   -0.9059   -0.7063    0.0000 O   0  0  0  0  0  0  0  0  0
   -2.6916    2.2219    0.0000 C   0  0  0  0  0  0  0  0  0
  1  2  1  0  0  0  0
  1 10  1  0  0  0  0
  2  3  2  0  0  0  0
  2  4  1  0  0  0  0
  4  5  4  0  0  0  0
  4  9  4  0  0  0  0
  5  6  4  0  0  0  0
  6  7  4  0  0  0  0
  7  8  4  0  0  0  0
  8  9  4  0  0  0  0
 10 11  1  0  0  0  0
 10 17  1  0  0  0  0
 11 12  1  0  0  0  0
 12 13  1  0  0  0  0
 12 16  1  0  0  0  0
 13 14  1  0  0  0  0
 13 22  1  0  0  0  0
 14 15  1  0  0  0  0
 14 17  1  0  0  0  0
 15 16  1  0  0  0  0
 17 18  1  0  0  0  0
 18 19  1  0  0  0  0
 18 21  2  0  0  0  0
 19 20  1  0  0  0  0
M  END
>  <Name_Molregno>
513010

>  <5-HT1A>
5

>  <5-HT1B>
5.47

>  <5-HT1D>
5

>  <5-HT1E>
5

>  <5-HT3>
5.31

>  <5-HT5>
5

>  <5-HT6>
5

>  <5-HT7>
5

>  <Alpha-1A>
5.68

>  <Alpha-1B>
5

>  <Alpha-2A>
5

>  <Alpha-2C>
5

>  <Beta-1>
5

>  <Beta-2>
5

>  <DOPAMINE D1>
5

>  <DOPAMINE D2>
5

>  <DOPAMINE D4>
5

>  <DOPAMINE D5>
5

>  <Dopamine transporter>
6.67

>  <HISTAMINE H1>
5.67

>  <HISTAMINE H2>
5

>  <HISTAMINE H4>
5

>  <Muscarinic acetylcholine receptor M1>
5

>  <Muscarinic acetylcholine receptor M2>
5

>  <Muscarinic acetylcholine receptor M3>
5

>  <Muscarinic acetylcholine receptor M4>
5

>  <Muscarinic acetylcholine receptor M5>
5

>  <Norepinephrine transporter>
5.76

>  <Serotonin transporter>
6.68

$$$$
514509
  Marvin  02231216192D 0   1.00000     0.00000     0

 19 21  0  0  1  0  0  0  0  0999 V2000
   -2.0695   -2.0649    0.0000 O   0  0  0  0  0  0  0  0  0
   -1.3550   -1.6524    0.0000 C   0  0  0  0  0  0  0  0  0
   -0.6406   -2.0649    0.0000 C   0  0  0  0  0  0  0  0  0
    0.0739   -1.6524    0.0000 C   0  0  0  0  0  0  0  0  0
    0.0739   -0.8274    0.0000 C   0  0  0  0  0  0  0  0  0
   -0.6406   -0.4149    0.0000 C   0  0  0  0  0  0  0  0  0
   -1.3550   -0.8274    0.0000 C   0  0  0  0  0  0  0  0  0
   -2.0695   -0.4149    0.0000 O   0  0  0  0  0  0  0  0  0
    0.7189   -0.3131    0.0000 C   0  0  0  0  0  0  0  0  0
    1.5232   -0.4966    0.0000 C   0  0  0  0  0  0  0  0  0
    1.8812   -1.2399    0.0000 N   0  0  0  0  0  0  0  0  0
    1.5232   -1.9832    0.0000 C   0  0  0  0  0  0  0  0  0
    0.7189   -2.1668    0.0000 C   0  0  0  0  0  0  0  0  0
    0.5353   -2.9711    0.0000 C   0  0  0  0  0  0  0  0  0
    1.1401   -3.5323    0.0000 C   0  0  0  0  0  0  0  0  0
    0.9565   -4.3366    0.0000 C   0  0  0  0  0  0  0  0  0
    0.1682   -4.5798    0.0000 C   0  0  0  0  0  0  0  0  0
   -0.4366   -4.0186    0.0000 C   0  0  0  0  0  0  0  0  0
   -0.2530   -3.2143    0.0000 C   0  0  0  0  0  0  0  0  0
  1  2  1  0  0  0  0
  2  3  4  0  0  0  0
  2  7  4  0  0  0  0
  3  4  4  0  0  0  0
  4  5  4  0  0  0  0
  4 13  1  0  0  0  0
  5  6  4  0  0  0  0
  5  9  1  0  0  0  0
  6  7  4  0  0  0  0
  7  8  1  0  0  0  0
  9 10  1  0  0  0  0
 10 11  1  0  0  0  0
 11 12  1  0  0  0  0
 12 13  1  0  0  0  0
 13 14  1  0  0  0  0
 14 15  4  0  0  0  0
 14 19  4  0  0  0  0
 15 16  4  0  0  0  0
 16 17  4  0  0  0  0
 17 18  4  0  0  0  0
 18 19  4  0  0  0  0
M  END
>  <Name_Molregno>
514509

>  <5-HT1A>
5.51

>  <DOPAMINE D1>
6.88

>  <DOPAMINE D2>
5.11

>  <DOPAMINE D3>
5

>  <DOPAMINE D5>
7

>  <HISTAMINE H1>
5.6

$$$$
514511
  Marvin  02231216192D 0   1.00000     0.00000     0

 22 24  0  0  1  0  0  0  0  0999 V2000
    1.7542   -1.9189    0.0000 Cl  0  0  0  0  0  0  0  0  0
    1.7542   -1.0939    0.0000 C   0  0  0  0  0  0  0  0  0
    2.4686   -0.6814    0.0000 C   0  0  0  0  0  0  0  0  0
    2.4686    0.1436    0.0000 C   0  0  0  0  0  0  0  0  0
    1.7542    0.5561    0.0000 C   0  0  0  0  0  0  0  0  0
    1.0397    0.1436    0.0000 C   0  0  0  0  0  0  0  0  0
    0.3252    0.5561    0.0000 O   0  0  0  0  0  0  0  0  0
    1.0397   -0.6814    0.0000 C   0  0  0  0  0  0  0  0  0
    0.3252   -1.0939    0.0000 O   0  0  0  0  0  0  0  0  0
    3.1136    0.6579    0.0000 C   0  0  0  0  0  0  0  0  0
    3.9180    0.4744    0.0000 C   0  0  0  0  0  0  0  0  0
    4.2759   -0.2689    0.0000 N   0  0  0  0  0  0  0  0  0
    3.9180   -1.0122    0.0000 C   0  0  0  0  0  0  0  0  0
    3.1136   -1.1958    0.0000 C   0  0  0  0  0  0  0  0  0
    5.1009   -0.2689    0.0000 C   0  0  0  0  0  0  0  0  0
    2.9301    1.4623    0.0000 C   0  0  0  0  0  0  0  0  0
    2.1417    1.7054    0.0000 C   0  0  0  0  0  0  0  0  0
    1.9581    2.5097    0.0000 C   0  0  0  0  0  0  0  0  0
    2.5629    3.0709    0.0000 C   0  0  0  0  0  0  0  0  0
    3.3512    2.8277    0.0000 C   0  0  0  0  0  0  0  0  0
    3.5348    2.0234    0.0000 C   0  0  0  0  0  0  0  0  0
    1.1698    2.7529    0.0000 C   0  0  0  0  0  0  0  0  0
  1  2  1  0  0  0  0
  2  3  4  0  0  0  0
  2  8  4  0  0  0  0
  3  4  4  0  0  0  0
  3 14  1  0  0  0  0
  4  5  4  0  0  0  0
  4 10  1  0  0  0  0
  5  6  4  0  0  0  0
  6  7  1  0  0  0  0
  6  8  4  0  0  0  0
  8  9  1  0  0  0  0
 10 11  1  0  0  0  0
 10 16  1  0  0  0  0
 11 12  1  0  0  0  0
 12 13  1  0  0  0  0
 12 15  1  0  0  0  0
 13 14  1  0  0  0  0
 16 17  4  0  0  0  0
 16 21  4  0  0  0  0
 17 18  4  0  0  0  0
 18 19  4  0  0  0  0
 18 22  1  0  0  0  0
 19 20  4  0  0  0  0
 20 21  4  0  0  0  0
M  END
>  <Name_Molregno>
514511

>  <DOPAMINE D1>
8.93

>  <DOPAMINE D3>
6.4

>  <DOPAMINE D5>
8.12

$$$$
514512
  Marvin  02231216192D 0   1.00000     0.00000     0

 25 28  0  0  1  0  0  0  0  0999 V2000
   -1.1201   -2.7262    0.0000 O   0  0  0  0  0  0  0  0  0
   -0.4056   -2.3137    0.0000 C   0  0  0  0  0  0  0  0  0
    0.3089   -2.7262    0.0000 C   0  0  0  0  0  0  0  0  0
    1.0234   -2.3137    0.0000 C   0  0  0  0  0  0  0  0  0
    1.0234   -1.4887    0.0000 C   0  0  0  0  0  0  0  0  0
    0.3089   -1.0762    0.0000 C   0  0  0  0  0  0  0  0  0
   -0.4056   -1.4887    0.0000 C   0  0  0  0  0  0  0  0  0
   -1.1201   -1.0762    0.0000 O   0  0  0  0  0  0  0  0  0
    1.6684   -0.9743    0.0000 C   0  0  0  0  0  0  0  0  0
    2.4727   -1.1579    0.0000 C   0  0  0  0  0  0  0  0  0
    2.8306   -1.9012    0.0000 N   0  0  0  0  0  0  0  0  0
    2.4727   -2.6445    0.0000 C   0  0  0  0  0  0  0  0  0
    1.6684   -2.8280    0.0000 C   0  0  0  0  0  0  0  0  0
    1.4848   -0.1700    0.0000 C   0  0  0  0  0  0  0  0  0
    0.6964    0.0732    0.0000 C   0  0  0  0  0  0  0  0  0
    0.5129    0.8775    0.0000 C   0  0  0  0  0  0  0  0  0
    1.1176    1.4387    0.0000 C   0  0  0  0  0  0  0  0  0
    1.9060    1.1955    0.0000 C   0  0  0  0  0  0  0  0  0
    2.0896    0.3912    0.0000 C   0  0  0  0  0  0  0  0  0
    0.3089   -3.5512    0.0000 C   0  0  0  0  0  0  0  0  0
    1.0234   -3.9637    0.0000 C   0  0  0  0  0  0  0  0  0
    1.0234   -4.7887    0.0000 C   0  0  0  0  0  0  0  0  0
    0.3089   -5.2012    0.0000 C   0  0  0  0  0  0  0  0  0
   -0.4056   -4.7887    0.0000 C   0  0  0  0  0  0  0  0  0
   -0.4056   -3.9637    0.0000 C   0  0  0  0  0  0  0  0  0
  1  2  1  0  0  0  0
  2  3  4  0  0  0  0
  2  7  4  0  0  0  0
  3  4  4  0  0  0  0
  3 20  1  0  0  0  0
  4  5  4  0  0  0  0
  4 13  1  0  0  0  0
  5  6  4  0  0  0  0
  5  9  1  0  0  0  0
  6  7  4  0  0  0  0
  7  8  1  0  0  0  0
  9 10  1  0  0  0  0
  9 14  1  0  0  0  0
 10 11  1  0  0  0  0
 11 12  1  0  0  0  0
 12 13  1  0  0  0  0
 14 15  4  0  0  0  0
 14 19  4  0  0  0  0
 15 16  4  0  0  0  0
 16 17  4  0  0  0  0
 17 18  4  0  0  0  0
 18 19  4  0  0  0  0
 20 21  4  0  0  0  0
 20 25  4  0  0  0  0
 21 22  4  0  0  0  0
 22 23  4  0  0  0  0
 23 24  4  0  0  0  0
 24 25  4  0  0  0  0
M  END
>  <Name_Molregno>
514512

>  <DOPAMINE D1>
6.46

$$$$
514576
  Marvin  02231216192D 0   1.00000     0.00000     0

 26 29  0  0  1  0  0  0  0  0999 V2000
   -1.2834    1.1034    0.0000 O   0  0  0  0  0  0  0  0  0
   -0.5689    1.5159    0.0000 C   0  0  0  0  0  0  0  0  0
    0.1456    1.1034    0.0000 C   0  0  0  0  0  0  0  0  0
    0.8600    1.5159    0.0000 C   0  0  0  0  0  0  0  0  0
    0.8600    2.3409    0.0000 C   0  0  0  0  0  0  0  0  0
    0.1456    2.7534    0.0000 C   0  0  0  0  0  0  0  0  0
   -0.5689    2.3409    0.0000 C   0  0  0  0  0  0  0  0  0
   -1.2834    2.7534    0.0000 O   0  0  0  0  0  0  0  0  0
    1.5050    2.8552    0.0000 C   0  0  0  0  0  0  0  0  0
    2.3094    2.6716    0.0000 C   0  0  0  0  0  0  0  0  0
    2.6673    1.9284    0.0000 N   0  0  0  0  0  0  0  0  0
    2.3094    1.1851    0.0000 C   0  0  0  0  0  0  0  0  0
    1.5050    1.0015    0.0000 C   0  0  0  0  0  0  0  0  0
    1.3215    3.6595    0.0000 C   0  0  0  0  0  0  0  0  0
    0.5331    3.9027    0.0000 C   0  0  0  0  0  0  0  0  0
    0.3495    4.7070    0.0000 C   0  0  0  0  0  0  0  0  0
    0.9543    5.2682    0.0000 C   0  0  0  0  0  0  0  0  0
    1.7426    5.0250    0.0000 C   0  0  0  0  0  0  0  0  0
    1.9262    4.2207    0.0000 C   0  0  0  0  0  0  0  0  0
    0.1456    0.2784    0.0000 C   0  0  0  0  0  0  0  0  0
    0.8600   -0.1341    0.0000 C   0  0  0  0  0  0  0  0  0
    0.8600   -0.9591    0.0000 C   0  0  0  0  0  0  0  0  0
    0.1456   -1.3716    0.0000 C   0  0  0  0  0  0  0  0  0
   -0.5689   -0.9591    0.0000 C   0  0  0  0  0  0  0  0  0
   -0.5689   -0.1341    0.0000 C   0  0  0  0  0  0  0  0  0
    1.5745   -1.3716    0.0000 C   0  0  0  0  0  0  0  0  0
  1  2  1  0  0  0  0
  2  3  4  0  0  0  0
  2  7  4  0  0  0  0
  3  4  4  0  0  0  0
  3 20  1  0  0  0  0
  4  5  4  0  0  0  0
  4 13  1  0  0  0  0
  5  6  4  0  0  0  0
  5  9  1  0  0  0  0
  6  7  4  0  0  0  0
  7  8  1  0  0  0  0
  9 10  1  0  0  0  0
  9 14  1  0  0  0  0
 10 11  1  0  0  0  0
 11 12  1  0  0  0  0
 12 13  1  0  0  0  0
 14 15  4  0  0  0  0
 14 19  4  0  0  0  0
 15 16  4  0  0  0  0
 16 17  4  0  0  0  0
 17 18  4  0  0  0  0
 18 19  4  0  0  0  0
 20 21  4  0  0  0  0
 20 25  4  0  0  0  0
 21 22  4  0  0  0  0
 22 23  4  0  0  0  0
 22 26  1  0  0  0  0
 23 24  4  0  0  0  0
 24 25  4  0  0  0  0
M  END
>  <Name_Molregno>
514576

>  <DOPAMINE D1>
7.41

$$$$
514577
  Marvin  02231216192D 0   1.00000     0.00000     0

 26 29  0  0  1  0  0  0  0  0999 V2000
    3.3853   -3.4717    0.0000 Cl  0  0  0  0  0  0  0  0  0
    3.3853   -2.6467    0.0000 C   0  0  0  0  0  0  0  0  0
    2.6708   -2.2342    0.0000 C   0  0  0  0  0  0  0  0  0
    2.6708   -1.4092    0.0000 C   0  0  0  0  0  0  0  0  0
    3.3853   -0.9967    0.0000 C   0  0  0  0  0  0  0  0  0
    4.0998   -1.4092    0.0000 C   0  0  0  0  0  0  0  0  0
    4.0998   -2.2342    0.0000 C   0  0  0  0  0  0  0  0  0
    3.3853   -0.1717    0.0000 C   0  0  0  0  0  0  0  0  0
    4.0998    0.2408    0.0000 C   0  0  0  0  0  0  0  0  0
    4.0998    1.0658    0.0000 C   0  0  0  0  0  0  0  0  0
    3.3853    1.4783    0.0000 C   0  0  0  0  0  0  0  0  0
    2.6708    1.0658    0.0000 C   0  0  0  0  0  0  0  0  0
    1.9564    1.4783    0.0000 O   0  0  0  0  0  0  0  0  0
    2.6708    0.2408    0.0000 C   0  0  0  0  0  0  0  0  0
    1.9564   -0.1717    0.0000 O   0  0  0  0  0  0  0  0  0
    4.7448    1.5802    0.0000 C   0  0  0  0  0  0  0  0  0
    5.5491    1.3966    0.0000 C   0  0  0  0  0  0  0  0  0
    5.9071    0.6533    0.0000 N   0  0  0  0  0  0  0  0  0
    5.5491   -0.0900    0.0000 C   0  0  0  0  0  0  0  0  0
    4.7448   -0.2735    0.0000 C   0  0  0  0  0  0  0  0  0
    4.5612    2.3845    0.0000 C   0  0  0  0  0  0  0  0  0
    3.7729    2.6277    0.0000 C   0  0  0  0  0  0  0  0  0
    3.5893    3.4320    0.0000 C   0  0  0  0  0  0  0  0  0
    4.1940    3.9932    0.0000 C   0  0  0  0  0  0  0  0  0
    4.9824    3.7500    0.0000 C   0  0  0  0  0  0  0  0  0
    5.1660    2.9457    0.0000 C   0  0  0  0  0  0  0  0  0
  1  2  1  0  0  0  0
  2  3  4  0  0  0  0
  2  7  4  0  0  0  0
  3  4  4  0  0  0  0
  4  5  4  0  0  0  0
  5  6  4  0  0  0  0
  5  8  1  0  0  0  0
  6  7  4  0  0  0  0
  8  9  4  0  0  0  0
  8 14  4  0  0  0  0
  9 10  4  0  0  0  0
  9 20  1  0  0  0  0
 10 11  4  0  0  0  0
 10 16  1  0  0  0  0
 11 12  4  0  0  0  0
 12 13  1  0  0  0  0
 12 14  4  0  0  0  0
 14 15  1  0  0  0  0
 16 17  1  0  0  0  0
 16 21  1  0  0  0  0
 17 18  1  0  0  0  0
 18 19  1  0  0  0  0
 19 20  1  0  0  0  0
 21 22  4  0  0  0  0
 21 26  4  0  0  0  0
 22 23  4  0  0  0  0
 23 24  4  0  0  0  0
 24 25  4  0  0  0  0
 25 26  4  0  0  0  0
M  END
>  <Name_Molregno>
514577

>  <DOPAMINE D1>
6.72

$$$$
514578
  Marvin  02231216192D 0   1.00000     0.00000     0

 26 29  0  0  1  0  0  0  0  0999 V2000
    3.3853   -3.4717    0.0000 F   0  0  0  0  0  0  0  0  0
    3.3853   -2.6467    0.0000 C   0  0  0  0  0  0  0  0  0
    2.6708   -2.2342    0.0000 C   0  0  0  0  0  0  0  0  0
    2.6708   -1.4092    0.0000 C   0  0  0  0  0  0  0  0  0
    3.3853   -0.9967    0.0000 C   0  0  0  0  0  0  0  0  0
    4.0998   -1.4092    0.0000 C   0  0  0  0  0  0  0  0  0
    4.0998   -2.2342    0.0000 C   0  0  0  0  0  0  0  0  0
    3.3853   -0.1717    0.0000 C   0  0  0  0  0  0  0  0  0
    4.0998    0.2408    0.0000 C   0  0  0  0  0  0  0  0  0
    4.0998    1.0658    0.0000 C   0  0  0  0  0  0  0  0  0
    3.3853    1.4783    0.0000 C   0  0  0  0  0  0  0  0  0
    2.6708    1.0658    0.0000 C   0  0  0  0  0  0  0  0  0
    1.9564    1.4783    0.0000 O   0  0  0  0  0  0  0  0  0
    2.6708    0.2408    0.0000 C   0  0  0  0  0  0  0  0  0
    1.9564   -0.1717    0.0000 O   0  0  0  0  0  0  0  0  0
    4.7448    1.5802    0.0000 C   0  0  0  0  0  0  0  0  0
    5.5491    1.3966    0.0000 C   0  0  0  0  0  0  0  0  0
    5.9071    0.6533    0.0000 N   0  0  0  0  0  0  0  0  0
    5.5491   -0.0900    0.0000 C   0  0  0  0  0  0  0  0  0
    4.7448   -0.2735    0.0000 C   0  0  0  0  0  0  0  0  0
    4.5612    2.3845    0.0000 C   0  0  0  0  0  0  0  0  0
    3.7729    2.6277    0.0000 C   0  0  0  0  0  0  0  0  0
    3.5893    3.4320    0.0000 C   0  0  0  0  0  0  0  0  0
    4.1940    3.9932    0.0000 C   0  0  0  0  0  0  0  0  0
    4.9824    3.7500    0.0000 C   0  0  0  0  0  0  0  0  0
    5.1660    2.9457    0.0000 C   0  0  0  0  0  0  0  0  0
  1  2  1  0  0  0  0
  2  3  4  0  0  0  0
  2  7  4  0  0  0  0
  3  4  4  0  0  0  0
  4  5  4  0  0  0  0
  5  6  4  0  0  0  0
  5  8  1  0  0  0  0
  6  7  4  0  0  0  0
  8  9  4  0  0  0  0
  8 14  4  0  0  0  0
  9 10  4  0  0  0  0
  9 20  1  0  0  0  0
 10 11  4  0  0  0  0
 10 16  1  0  0  0  0
 11 12  4  0  0  0  0
 12 13  1  0  0  0  0
 12 14  4  0  0  0  0
 14 15  1  0  0  0  0
 16 17  1  0  0  0  0
 16 21  1  0  0  0  0
 17 18  1  0  0  0  0
 18 19  1  0  0  0  0
 19 20  1  0  0  0  0
 21 22  4  0  0  0  0
 21 26  4  0  0  0  0
 22 23  4  0  0  0  0
 23 24  4  0  0  0  0
 24 25  4  0  0  0  0
 25 26  4  0  0  0  0
M  END
>  <Name_Molregno>
514578

>  <DOPAMINE D1>
6.37

$$$$
514579
  Marvin  02231216192D 0   1.00000     0.00000     0

 29 33  0  0  1  0  0  0  0  0999 V2000
    1.4030    0.3281    0.0000 O   0  0  0  0  0  0  0  0  0
    0.6885    0.7406    0.0000 C   0  0  0  0  0  0  0  0  0
    0.6885    1.5656    0.0000 C   0  0  0  0  0  0  0  0  0
   -0.0260    1.9781    0.0000 C   0  0  0  0  0  0  0  0  0
   -0.7404    1.5656    0.0000 C   0  0  0  0  0  0  0  0  0
   -0.7404    0.7406    0.0000 C   0  0  0  0  0  0  0  0  0
   -0.0260    0.3281    0.0000 C   0  0  0  0  0  0  0  0  0
   -0.0260   -0.4969    0.0000 O   0  0  0  0  0  0  0  0  0
   -1.5084    1.8670    0.0000 C   0  0  0  0  0  0  0  0  0
   -1.7516    2.6554    0.0000 C   0  0  0  0  0  0  0  0  0
   -1.2868    3.3370    0.0000 N   0  0  0  0  0  0  0  0  0
   -0.4641    3.3987    0.0000 C   0  0  0  0  0  0  0  0  0
    0.0970    2.7939    0.0000 C   0  0  0  0  0  0  0  0  0
   -2.1132    1.3059    0.0000 C   0  0  0  0  0  0  0  0  0
   -1.9296    0.5016    0.0000 C   0  0  0  0  0  0  0  0  0
   -2.5344   -0.0596    0.0000 C   0  0  0  0  0  0  0  0  0
   -3.3227    0.1836    0.0000 C   0  0  0  0  0  0  0  0  0
   -3.5063    0.9879    0.0000 C   0  0  0  0  0  0  0  0  0
   -2.9015    1.5491    0.0000 C   0  0  0  0  0  0  0  0  0
    1.4030    1.9781    0.0000 C   0  0  0  0  0  0  0  0  0
    2.1175    1.5656    0.0000 C   0  0  0  0  0  0  0  0  0
    2.8319    1.9781    0.0000 C   0  0  0  0  0  0  0  0  0
    2.8319    2.8031    0.0000 C   0  0  0  0  0  0  0  0  0
    2.1175    3.2156    0.0000 C   0  0  0  0  0  0  0  0  0
    1.4030    2.8031    0.0000 C   0  0  0  0  0  0  0  0  0
    3.5464    3.2156    0.0000 C   0  0  0  0  0  0  0  0  0
    4.2609    2.8031    0.0000 C   0  0  0  0  0  0  0  0  0
    4.2609    1.9781    0.0000 C   0  0  0  0  0  0  0  0  0
    3.5464    1.5656    0.0000 C   0  0  0  0  0  0  0  0  0
  1  2  1  0  0  0  0
  2  3  4  0  0  0  0
  2  7  4  0  0  0  0
  3  4  4  0  0  0  0
  3 20  1  0  0  0  0
  4  5  4  0  0  0  0
  4 13  1  0  0  0  0
  5  6  4  0  0  0  0
  5  9  1  0  0  0  0
  6  7  4  0  0  0  0
  7  8  1  0  0  0  0
  9 10  1  0  0  0  0
  9 14  1  0  0  0  0
 10 11  1  0  0  0  0
 11 12  1  0  0  0  0
 12 13  1  0  0  0  0
 14 15  4  0  0  0  0
 14 19  4  0  0  0  0
 15 16  4  0  0  0  0
 16 17  4  0  0  0  0
 17 18  4  0  0  0  0
 18 19  4  0  0  0  0
 20 21  4  0  0  0  0
 20 25  4  0  0  0  0
 21 22  4  0  0  0  0
 22 23  4  0  0  0  0
 22 29  4  0  0  0  0
 23 24  4  0  0  0  0
 23 26  4  0  0  0  0
 24 25  4  0  0  0  0
 26 27  4  0  0  0  0
 27 28  4  0  0  0  0
 28 29  4  0  0  0  0
M  END
>  <Name_Molregno>
514579

>  <DOPAMINE D1>
7.25

$$$$
514662
  Marvin  02231216192D 0   1.00000     0.00000     0

 28 31  0  0  1  0  0  0  0  0999 V2000
   -1.2087    1.1508    0.0000 O   0  0  0  0  0  0  0  0  0
   -0.4942    1.5633    0.0000 C   0  0  0  0  0  0  0  0  0
    0.2203    1.1508    0.0000 C   0  0  0  0  0  0  0  0  0
    0.9347    1.5633    0.0000 C   0  0  0  0  0  0  0  0  0
    0.9347    2.3883    0.0000 C   0  0  0  0  0  0  0  0  0
    0.2203    2.8008    0.0000 C   0  0  0  0  0  0  0  0  0
   -0.4942    2.3883    0.0000 C   0  0  0  0  0  0  0  0  0
   -1.2087    2.8008    0.0000 O   0  0  0  0  0  0  0  0  0
    1.5798    2.9026    0.0000 C   0  0  0  0  0  0  0  0  0
    2.3841    2.7191    0.0000 C   0  0  0  0  0  0  0  0  0
    2.7420    1.9758    0.0000 N   0  0  0  0  0  0  0  0  0
    2.3841    1.2325    0.0000 C   0  0  0  0  0  0  0  0  0
    1.5798    1.0489    0.0000 C   0  0  0  0  0  0  0  0  0
    3.5670    1.9758    0.0000 C   0  0  0  0  0  0  0  0  0
    1.3962    3.7070    0.0000 C   0  0  0  0  0  0  0  0  0
    0.6078    3.9501    0.0000 C   0  0  0  0  0  0  0  0  0
    0.4243    4.7544    0.0000 C   0  0  0  0  0  0  0  0  0
    1.0290    5.3156    0.0000 C   0  0  0  0  0  0  0  0  0
    1.8174    5.0724    0.0000 C   0  0  0  0  0  0  0  0  0
    2.0009    4.2681    0.0000 C   0  0  0  0  0  0  0  0  0
   -0.3641    4.9976    0.0000 C   0  0  0  0  0  0  0  0  0
    0.2203    0.3258    0.0000 C   0  0  0  0  0  0  0  0  0
    0.9347   -0.0867    0.0000 C   0  0  0  0  0  0  0  0  0
    0.9347   -0.9117    0.0000 C   0  0  0  0  0  0  0  0  0
    0.2203   -1.3242    0.0000 C   0  0  0  0  0  0  0  0  0
   -0.4942   -0.9117    0.0000 C   0  0  0  0  0  0  0  0  0
   -0.4942   -0.0867    0.0000 C   0  0  0  0  0  0  0  0  0
    1.6492   -1.3242    0.0000 C   0  0  0  0  0  0  0  0  0
  1  2  1  0  0  0  0
  2  3  4  0  0  0  0
  2  7  4  0  0  0  0
  3  4  4  0  0  0  0
  3 22  1  0  0  0  0
  4  5  4  0  0  0  0
  4 13  1  0  0  0  0
  5  6  4  0  0  0  0
  5  9  1  0  0  0  0
  6  7  4  0  0  0  0
  7  8  1  0  0  0  0
  9 10  1  0  0  0  0
  9 15  1  0  0  0  0
 10 11  1  0  0  0  0
 11 12  1  0  0  0  0
 11 14  1  0  0  0  0
 12 13  1  0  0  0  0
 15 16  4  0  0  0  0
 15 20  4  0  0  0  0
 16 17  4  0  0  0  0
 17 18  4  0  0  0  0
 17 21  1  0  0  0  0
 18 19  4  0  0  0  0
 19 20  4  0  0  0  0
 22 23  4  0  0  0  0
 22 27  4  0  0  0  0
 23 24  4  0  0  0  0
 24 25  4  0  0  0  0
 24 28  1  0  0  0  0
 25 26  4  0  0  0  0
 26 27  4  0  0  0  0
M  END
>  <Name_Molregno>
514662

>  <DOPAMINE D1>
8.17

>  <DOPAMINE D2>
6.68

$$$$
514663
  Marvin  02231216192D 0   1.00000     0.00000     0

 31 35  0  0  1  0  0  0  0  0999 V2000
    1.6850    0.4924    0.0000 O   0  0  0  0  0  0  0  0  0
    0.9705    0.9049    0.0000 C   0  0  0  0  0  0  0  0  0
    0.9705    1.7299    0.0000 C   0  0  0  0  0  0  0  0  0
    0.2560    2.1424    0.0000 C   0  0  0  0  0  0  0  0  0
   -0.4584    1.7299    0.0000 C   0  0  0  0  0  0  0  0  0
   -0.4584    0.9049    0.0000 C   0  0  0  0  0  0  0  0  0
    0.2560    0.4924    0.0000 C   0  0  0  0  0  0  0  0  0
    0.2560   -0.3326    0.0000 O   0  0  0  0  0  0  0  0  0
   -1.2264    2.0313    0.0000 C   0  0  0  0  0  0  0  0  0
   -1.4696    2.8196    0.0000 C   0  0  0  0  0  0  0  0  0
   -1.0049    3.5013    0.0000 N   0  0  0  0  0  0  0  0  0
   -0.1822    3.5629    0.0000 C   0  0  0  0  0  0  0  0  0
    0.3790    2.9582    0.0000 C   0  0  0  0  0  0  0  0  0
   -1.4174    4.2157    0.0000 C   0  0  0  0  0  0  0  0  0
   -1.8312    1.4701    0.0000 C   0  0  0  0  0  0  0  0  0
   -1.6476    0.6658    0.0000 C   0  0  0  0  0  0  0  0  0
   -2.2524    0.1047    0.0000 C   0  0  0  0  0  0  0  0  0
   -3.0407    0.3478    0.0000 C   0  0  0  0  0  0  0  0  0
   -3.2243    1.1522    0.0000 C   0  0  0  0  0  0  0  0  0
   -2.6195    1.7133    0.0000 C   0  0  0  0  0  0  0  0  0
   -2.0688   -0.6996    0.0000 C   0  0  0  0  0  0  0  0  0
    1.6850    2.1424    0.0000 C   0  0  0  0  0  0  0  0  0
    2.3994    1.7299    0.0000 C   0  0  0  0  0  0  0  0  0
    3.1139    2.1424    0.0000 C   0  0  0  0  0  0  0  0  0
    3.1139    2.9674    0.0000 C   0  0  0  0  0  0  0  0  0
    2.3994    3.3799    0.0000 C   0  0  0  0  0  0  0  0  0
    1.6850    2.9674    0.0000 C   0  0  0  0  0  0  0  0  0
    3.8284    3.3799    0.0000 C   0  0  0  0  0  0  0  0  0
    4.5429    2.9674    0.0000 C   0  0  0  0  0  0  0  0  0
    4.5429    2.1424    0.0000 C   0  0  0  0  0  0  0  0  0
    3.8284    1.7299    0.0000 C   0  0  0  0  0  0  0  0  0
  1  2  1  0  0  0  0
  2  3  4  0  0  0  0
  2  7  4  0  0  0  0
  3  4  4  0  0  0  0
  3 22  1  0  0  0  0
  4  5  4  0  0  0  0
  4 13  1  0  0  0  0
  5  6  4  0  0  0  0
  5  9  1  0  0  0  0
  6  7  4  0  0  0  0
  7  8  1  0  0  0  0
  9 10  1  0  0  0  0
  9 15  1  0  0  0  0
 10 11  1  0  0  0  0
 11 12  1  0  0  0  0
 11 14  1  0  0  0  0
 12 13  1  0  0  0  0
 15 16  4  0  0  0  0
 15 20  4  0  0  0  0
 16 17  4  0  0  0  0
 17 18  4  0  0  0  0
 17 21  1  0  0  0  0
 18 19  4  0  0  0  0
 19 20  4  0  0  0  0
 22 23  4  0  0  0  0
 22 27  4  0  0  0  0
 23 24  4  0  0  0  0
 24 25  4  0  0  0  0
 24 31  4  0  0  0  0
 25 26  4  0  0  0  0
 25 28  4  0  0  0  0
 26 27  4  0  0  0  0
 28 29  4  0  0  0  0
 29 30  4  0  0  0  0
 30 31  4  0  0  0  0
M  END
>  <Name_Molregno>
514663

>  <DOPAMINE D1>
8.31

>  <DOPAMINE D2>
7.54

$$$$
515852
  Marvin  02231216192D 0   1.00000     0.00000     0

 24 28  0  0  1  0  0  0  0  0999 V2000
    3.5696   -0.3324    0.0000 O   0  0  0  0  0  0  0  0  0
    3.9434   -1.0678    0.0000 C   0  0  0  0  0  0  0  0  0
    3.3594   -1.6506    0.0000 C   0  0  0  0  0  0  0  0  0
    2.6247   -1.2753    0.0000 C   0  0  0  0  0  0  0  0  0
    2.7546   -0.4606    0.0000 C   0  0  0  0  0  0  0  0  0
    2.1140    0.0593    0.0000 C   0  0  0  0  0  0  0  0  0
    1.3435   -0.2355    0.0000 C   0  0  0  0  0  0  0  0  0
    1.2136   -1.0502    0.0000 C   0  0  0  0  0  0  0  0  0
    1.8542   -1.5701    0.0000 C   0  0  0  0  0  0  0  0  0
    1.7243   -2.3848    0.0000 N   0  0  0  0  0  0  0  0  0
    0.9537   -2.6797    0.0000 C   0  0  0  0  0  0  0  0  0
    0.3131   -2.1598    0.0000 N   0  0  0  0  0  0  0  0  0
    0.4431   -1.3451    0.0000 C   0  0  0  0  0  0  0  0  0
   -0.1975   -0.8252    0.0000 N   0  0  0  0  0  0  0  0  0
   -0.9680   -1.1201    0.0000 C   0  0  0  0  0  0  0  0  0
   -1.6086   -0.6002    0.0000 C   0  0  0  0  0  0  0  0  0
   -1.4787    0.2145    0.0000 N   0  0  0  0  0  0  0  0  0
   -0.7082    0.5094    0.0000 C   0  0  0  0  0  0  0  0  0
   -0.0676   -0.0105    0.0000 C   0  0  0  0  0  0  0  0  0
    0.8238   -3.4944    0.0000 N   0  0  0  0  0  0  0  0  0
    3.5721   -2.4477    0.0000 C   0  0  0  0  0  0  0  0  0
    4.3687   -2.6621    0.0000 C   0  0  0  0  0  0  0  0  0
    4.9527   -2.0793    0.0000 C   0  0  0  0  0  0  0  0  0
    4.7400   -1.2822    0.0000 C   0  0  0  0  0  0  0  0  0
  1  2  1  0  0  0  0
  1  5  1  0  0  0  0
  2  3  1  0  0  0  0
  2 24  1  0  0  0  0
  3  4  1  0  0  0  0
  3 21  1  0  0  0  0
  4  5  2  0  0  0  0
  4  9  1  0  0  0  0
  5  6  1  0  0  0  0
  6  7  1  0  0  0  0
  7  8  1  0  0  0  0
  8  9  4  0  0  0  0
  8 13  4  0  0  0  0
  9 10  4  0  0  0  0
 10 11  4  0  0  0  0
 11 12  4  0  0  0  0
 11 20  1  0  0  0  0
 12 13  4  0  0  0  0
 13 14  1  0  0  0  0
 14 15  1  0  0  0  0
 14 19  1  0  0  0  0
 15 16  1  0  0  0  0
 16 17  1  0  0  0  0
 17 18  1  0  0  0  0
 18 19  1  0  0  0  0
 21 22  1  0  0  0  0
 22 23  1  0  0  0  0
 23 24  1  0  0  0  0
M  END
>  <Name_Molregno>
515852

>  <5-HT1A>
9.18

>  <5-HT1B>
7.74

>  <5-HT2A>
8.89

>  <5-HT2C>
8.41

>  <5-HT3>
8.18

>  <5-HT5>
6.96

>  <5-HT6>
7.03

>  <5-HT7>
9.66

>  <Beta-1>
6.37

>  <Beta-2>
9.3

>  <DOPAMINE D1>
9.42

>  <DOPAMINE D2>
8.54

>  <DOPAMINE D3>
8.85

>  <DOPAMINE D5>
9.32

>  <Dopamine transporter>
8.05

>  <HISTAMINE H1>
7.05

>  <HISTAMINE H2>
5.91

>  <HISTAMINE H3>
6.03

>  <HISTAMINE H4>
8.24

>  <Muscarinic acetylcholine receptor M1>
7.6

>  <Muscarinic acetylcholine receptor M2>
7.44

>  <Muscarinic acetylcholine receptor M3>
9.38

>  <Muscarinic acetylcholine receptor M4>
9.18

>  <Muscarinic acetylcholine receptor M5>
9.38

>  <Norepinephrine transporter>
8.17

>  <Serotonin transporter>
8.49

$$$$
518973
  Marvin  02231216192D 0   1.00000     0.00000     0

 39 43  0  0  0  0  0  0  0  0999 V2000
   -4.2205    3.1345    0.0000 O   0  0  0  0  0  0  0  0  0
   -4.9349    3.5470    0.0000 C   0  0  0  0  0  0  0  0  0
   -4.9349    4.3720    0.0000 C   0  0  0  0  0  0  0  0  0
   -5.6494    4.7845    0.0000 C   0  0  0  0  0  0  0  0  0
   -5.6494    5.6095    0.0000 N   0  0  0  0  0  0  0  0  0
   -6.3639    6.0220    0.0000 C   0  0  0  0  0  0  0  0  0
   -6.3639    6.8470    0.0000 C   0  0  0  0  0  0  0  0  0
   -5.6494    7.2595    0.0000 C   0  0  0  0  0  0  0  0  0
   -4.9349    6.8470    0.0000 C   0  0  0  0  0  0  0  0  0
   -4.9349    6.0220    0.0000 C   0  0  0  0  0  0  0  0  0
   -4.2205    2.3095    0.0000 C   0  0  0  0  0  0  0  0  0
   -3.5060    1.8970    0.0000 C   0  0  0  0  0  0  0  0  0
   -3.5060    1.0720    0.0000 C   0  0  0  0  0  0  0  0  0
   -4.2205    0.6595    0.0000 C   0  0  0  0  0  0  0  0  0
   -4.9349    1.0720    0.0000 C   0  0  0  0  0  0  0  0  0
   -4.9349    1.8970    0.0000 C   0  0  0  0  0  0  0  0  0
   -4.2205   -0.1655    0.0000 C   0  0  0  0  0  0  0  0  0
   -3.5060   -0.5780    0.0000 C   0  0  0  0  0  0  0  0  0
   -2.7915   -0.1655    0.0000 O   0  0  0  0  0  0  0  0  0
   -3.5060   -1.4030    0.0000 N   0  0  0  0  0  0  0  0  0
   -2.7915   -1.8155    0.0000 C   0  0  0  0  0  0  0  0  0
   -2.7915   -2.6405    0.0000 C   0  0  0  0  0  0  0  0  0
   -2.0770   -3.0530    0.0000 C   0  0  0  0  0  0  0  0  0
   -2.0770   -3.8780    0.0000 C   0  0  0  0  0  0  0  0  0
   -1.3337   -4.2359    0.0000 C   0  0  0  0  0  0  0  0  0
   -1.1502   -5.0403    0.0000 C   0  0  0  0  0  0  0  0  0
   -1.6645   -5.6853    0.0000 C   0  0  0  0  0  0  0  0  0
   -2.4895   -5.6853    0.0000 C   0  0  0  0  0  0  0  0  0
   -3.0039   -5.0403    0.0000 C   0  0  0  0  0  0  0  0  0
   -2.8203   -4.2359    0.0000 C   0  0  0  0  0  0  0  0  0
   -3.4251   -3.6748    0.0000 C   0  0  0  0  0  0  0  0  0
   -4.2135   -3.9180    0.0000 C   0  0  0  0  0  0  0  0  0
   -4.3970   -4.7223    0.0000 C   0  0  0  0  0  0  0  0  0
   -3.7923   -5.2834    0.0000 C   0  0  0  0  0  0  0  0  0
   -0.3618   -5.2834    0.0000 C   0  0  0  0  0  0  0  0  0
    0.2430   -4.7223    0.0000 C   0  0  0  0  0  0  0  0  0
    0.0594   -3.9180    0.0000 C   0  0  0  0  0  0  0  0  0
   -0.7290   -3.6748    0.0000 C   0  0  0  0  0  0  0  0  0
   -4.2205   -1.8155    0.0000 C   0  0  0  0  0  0  0  0  0
  1  2  1  0  0  0  0
  1 11  1  0  0  0  0
  2  3  1  0  0  0  0
  3  4  1  0  0  0  0
  4  5  1  0  0  0  0
  5  6  1  0  0  0  0
  5 10  1  0  0  0  0
  6  7  1  0  0  0  0
  7  8  1  0  0  0  0
  8  9  1  0  0  0  0
  9 10  1  0  0  0  0
 11 12  4  0  0  0  0
 11 16  4  0  0  0  0
 12 13  4  0  0  0  0
 13 14  4  0  0  0  0
 14 15  4  0  0  0  0
 14 17  1  0  0  0  0
 15 16  4  0  0  0  0
 17 18  1  0  0  0  0
 18 19  2  0  0  0  0
 18 20  1  0  0  0  0
 20 21  1  0  0  0  0
 20 39  1  0  0  0  0
 21 22  1  0  0  0  0
 22 23  1  0  0  0  0
 23 24  2  0  0  0  0
 24 25  1  0  0  0  0
 24 30  1  0  0  0  0
 25 26  4  0  0  0  0
 25 38  4  0  0  0  0
 26 27  1  0  0  0  0
 26 35  4  0  0  0  0
 27 28  1  0  0  0  0
 28 29  1  0  0  0  0
 29 30  4  0  0  0  0
 29 34  4  0  0  0  0
 30 31  4  0  0  0  0
 31 32  4  0  0  0  0
 32 33  4  0  0  0  0
 33 34  4  0  0  0  0
 35 36  4  0  0  0  0
 36 37  4  0  0  0  0
 37 38  4  0  0  0  0
M  END
>  <Name_Molregno>
518973

>  <DOPAMINE D1>
6.06

>  <DOPAMINE D2>
6.04

>  <DOPAMINE D3>
6.49

>  <DOPAMINE D5>
6

>  <HISTAMINE H1>
6.25

>  <HISTAMINE H3>
8.31

$$$$
519116
  Marvin  02231216192D 0   1.00000     0.00000     0

 38 42  0  0  0  0  0  0  0  0999 V2000
   -1.0754    0.9920    0.0000 O   0  0  0  0  0  0  0  0  0
   -1.0754    1.8170    0.0000 C   0  0  0  0  0  0  0  0  0
   -0.3609    2.2295    0.0000 C   0  0  0  0  0  0  0  0  0
   -0.3609    3.0545    0.0000 C   0  0  0  0  0  0  0  0  0
    0.3536    3.4670    0.0000 N   0  0  0  0  0  0  0  0  0
    0.3536    4.2920    0.0000 C   0  0  0  0  0  0  0  0  0
    1.0680    4.7045    0.0000 C   0  0  0  0  0  0  0  0  0
    1.7825    4.2920    0.0000 C   0  0  0  0  0  0  0  0  0
    1.7825    3.4670    0.0000 C   0  0  0  0  0  0  0  0  0
    1.0680    3.0545    0.0000 C   0  0  0  0  0  0  0  0  0
   -1.7898    0.5795    0.0000 C   0  0  0  0  0  0  0  0  0
   -1.7898   -0.2455    0.0000 C   0  0  0  0  0  0  0  0  0
   -2.5043   -0.6580    0.0000 C   0  0  0  0  0  0  0  0  0
   -3.2188   -0.2455    0.0000 C   0  0  0  0  0  0  0  0  0
   -3.2188    0.5795    0.0000 C   0  0  0  0  0  0  0  0  0
   -2.5043    0.9920    0.0000 C   0  0  0  0  0  0  0  0  0
   -3.9333   -0.6580    0.0000 C   0  0  0  0  0  0  0  0  0
   -3.9333   -1.4830    0.0000 O   0  0  0  0  0  0  0  0  0
   -4.6477   -0.2455    0.0000 N   0  0  0  0  0  0  0  0  0
   -5.3622   -0.6580    0.0000 C   0  0  0  0  0  0  0  0  0
   -5.3622   -1.4830    0.0000 C   0  0  0  0  0  0  0  0  0
   -4.6477   -1.8955    0.0000 C   0  0  0  0  0  0  0  0  0
   -4.6477   -2.7205    0.0000 C   0  0  0  0  0  0  0  0  0
   -3.9044   -3.0785    0.0000 C   0  0  0  0  0  0  0  0  0
   -3.7208   -3.8828    0.0000 C   0  0  0  0  0  0  0  0  0
   -4.2352   -4.5278    0.0000 C   0  0  0  0  0  0  0  0  0
   -5.0602   -4.5278    0.0000 C   0  0  0  0  0  0  0  0  0
   -5.5746   -3.8828    0.0000 C   0  0  0  0  0  0  0  0  0
   -5.3910   -3.0785    0.0000 C   0  0  0  0  0  0  0  0  0
   -5.9958   -2.5174    0.0000 C   0  0  0  0  0  0  0  0  0
   -6.7841   -2.7605    0.0000 C   0  0  0  0  0  0  0  0  0
   -6.9677   -3.5648    0.0000 C   0  0  0  0  0  0  0  0  0
   -6.3630   -4.1260    0.0000 C   0  0  0  0  0  0  0  0  0
   -2.9325   -4.1260    0.0000 C   0  0  0  0  0  0  0  0  0
   -2.3277   -3.5648    0.0000 C   0  0  0  0  0  0  0  0  0
   -2.5113   -2.7605    0.0000 C   0  0  0  0  0  0  0  0  0
   -3.2997   -2.5174    0.0000 C   0  0  0  0  0  0  0  0  0
   -4.6477    0.5795    0.0000 C   0  0  0  0  0  0  0  0  0
  1  2  1  0  0  0  0
  1 11  1  0  0  0  0
  2  3  1  0  0  0  0
  3  4  1  0  0  0  0
  4  5  1  0  0  0  0
  5  6  1  0  0  0  0
  5 10  1  0  0  0  0
  6  7  1  0  0  0  0
  7  8  1  0  0  0  0
  8  9  1  0  0  0  0
  9 10  1  0  0  0  0
 11 12  4  0  0  0  0
 11 16  4  0  0  0  0
 12 13  4  0  0  0  0
 13 14  4  0  0  0  0
 14 15  4  0  0  0  0
 14 17  1  0  0  0  0
 15 16  4  0  0  0  0
 17 18  2  0  0  0  0
 17 19  1  0  0  0  0
 19 20  1  0  0  0  0
 19 38  1  0  0  0  0
 20 21  1  0  0  0  0
 21 22  1  0  0  0  0
 22 23  2  0  0  0  0
 23 24  1  0  0  0  0
 23 29  1  0  0  0  0
 24 25  4  0  0  0  0
 24 37  4  0  0  0  0
 25 26  1  0  0  0  0
 25 34  4  0  0  0  0
 26 27  1  0  0  0  0
 27 28  1  0  0  0  0
 28 29  4  0  0  0  0
 28 33  4  0  0  0  0
 29 30  4  0  0  0  0
 30 31  4  0  0  0  0
 31 32  4  0  0  0  0
 32 33  4  0  0  0  0
 34 35  4  0  0  0  0
 35 36  4  0  0  0  0
 36 37  4  0  0  0  0
M  END
>  <Name_Molregno>
519116

>  <DOPAMINE D1>
6

>  <DOPAMINE D2>
6

>  <DOPAMINE D3>
6.61

>  <DOPAMINE D5>
6

>  <HISTAMINE H1>
6.16

>  <HISTAMINE H3>
8.46

$$$$
519117
  Marvin  02231216192D 0   1.00000     0.00000     0

 37 41  0  0  0  0  0  0  0  0999 V2000
   -1.1059    1.0162    0.0000 O   0  0  0  0  0  0  0  0  0
   -1.1059    1.8412    0.0000 C   0  0  0  0  0  0  0  0  0
   -0.3914    2.2537    0.0000 C   0  0  0  0  0  0  0  0  0
   -0.3914    3.0787    0.0000 C   0  0  0  0  0  0  0  0  0
    0.3230    3.4912    0.0000 N   0  0  0  0  0  0  0  0  0
    0.3230    4.3162    0.0000 C   0  0  0  0  0  0  0  0  0
    1.0375    4.7287    0.0000 C   0  0  0  0  0  0  0  0  0
    1.7520    4.3162    0.0000 C   0  0  0  0  0  0  0  0  0
    1.7520    3.4912    0.0000 C   0  0  0  0  0  0  0  0  0
    1.0375    3.0787    0.0000 C   0  0  0  0  0  0  0  0  0
   -1.8204    0.6037    0.0000 C   0  0  0  0  0  0  0  0  0
   -1.8204   -0.2213    0.0000 C   0  0  0  0  0  0  0  0  0
   -2.5349   -0.6338    0.0000 C   0  0  0  0  0  0  0  0  0
   -3.2493   -0.2213    0.0000 C   0  0  0  0  0  0  0  0  0
   -3.2493    0.6037    0.0000 C   0  0  0  0  0  0  0  0  0
   -2.5349    1.0162    0.0000 C   0  0  0  0  0  0  0  0  0
   -3.9638   -0.6338    0.0000 C   0  0  0  0  0  0  0  0  0
   -4.6783   -0.2213    0.0000 N   0  0  0  0  0  0  0  0  0
   -5.3927   -0.6338    0.0000 C   0  0  0  0  0  0  0  0  0
   -5.3927   -1.4588    0.0000 C   0  0  0  0  0  0  0  0  0
   -4.6783   -1.8713    0.0000 C   0  0  0  0  0  0  0  0  0
   -4.6783   -2.6963    0.0000 C   0  0  0  0  0  0  0  0  0
   -3.9350   -3.0543    0.0000 C   0  0  0  0  0  0  0  0  0
   -3.7514   -3.8586    0.0000 C   0  0  0  0  0  0  0  0  0
   -4.2658   -4.5036    0.0000 C   0  0  0  0  0  0  0  0  0
   -5.0908   -4.5036    0.0000 C   0  0  0  0  0  0  0  0  0
   -5.6051   -3.8586    0.0000 C   0  0  0  0  0  0  0  0  0
   -5.4216   -3.0543    0.0000 C   0  0  0  0  0  0  0  0  0
   -6.0263   -2.4932    0.0000 C   0  0  0  0  0  0  0  0  0
   -6.8147   -2.7363    0.0000 C   0  0  0  0  0  0  0  0  0
   -6.9983   -3.5406    0.0000 C   0  0  0  0  0  0  0  0  0
   -6.3935   -4.1018    0.0000 C   0  0  0  0  0  0  0  0  0
   -2.9630   -4.1018    0.0000 C   0  0  0  0  0  0  0  0  0
   -2.3583   -3.5406    0.0000 C   0  0  0  0  0  0  0  0  0
   -2.5418   -2.7363    0.0000 C   0  0  0  0  0  0  0  0  0
   -3.3302   -2.4932    0.0000 C   0  0  0  0  0  0  0  0  0
   -4.6783    0.6037    0.0000 C   0  0  0  0  0  0  0  0  0
  1  2  1  0  0  0  0
  1 11  1  0  0  0  0
  2  3  1  0  0  0  0
  3  4  1  0  0  0  0
  4  5  1  0  0  0  0
  5  6  1  0  0  0  0
  5 10  1  0  0  0  0
  6  7  1  0  0  0  0
  7  8  1  0  0  0  0
  8  9  1  0  0  0  0
  9 10  1  0  0  0  0
 11 12  4  0  0  0  0
 11 16  4  0  0  0  0
 12 13  4  0  0  0  0
 13 14  4  0  0  0  0
 14 15  4  0  0  0  0
 14 17  1  0  0  0  0
 15 16  4  0  0  0  0
 17 18  1  0  0  0  0
 18 19  1  0  0  0  0
 18 37  1  0  0  0  0
 19 20  1  0  0  0  0
 20 21  1  0  0  0  0
 21 22  2  0  0  0  0
 22 23  1  0  0  0  0
 22 28  1  0  0  0  0
 23 24  4  0  0  0  0
 23 36  4  0  0  0  0
 24 25  1  0  0  0  0
 24 33  4  0  0  0  0
 25 26  1  0  0  0  0
 26 27  1  0  0  0  0
 27 28  4  0  0  0  0
 27 32  4  0  0  0  0
 28 29  4  0  0  0  0
 29 30  4  0  0  0  0
 30 31  4  0  0  0  0
 31 32  4  0  0  0  0
 33 34  4  0  0  0  0
 34 35  4  0  0  0  0
 35 36  4  0  0  0  0
M  END
>  <Name_Molregno>
519117

>  <DOPAMINE D1>
6.52

>  <DOPAMINE D2>
7

>  <DOPAMINE D3>
7.17

>  <DOPAMINE D5>
6.56

>  <HISTAMINE H1>
7.1

>  <HISTAMINE H3>
9.57

$$$$
519118
  Marvin  02231216192D 0   1.00000     0.00000     0

 38 43  0  0  0  0  0  0  0  0999 V2000
   -1.1994   -3.5598    0.0000 O   0  0  0  0  0  0  0  0  0
   -0.4829   -3.1509    0.0000 C   0  0  0  0  0  0  0  0  0
    0.2295   -3.5669    0.0000 C   0  0  0  0  0  0  0  0  0
    0.9460   -3.1579    0.0000 C   0  0  0  0  0  0  0  0  0
    1.6584   -3.5740    0.0000 N   0  0  0  0  0  0  0  0  0
    2.3749   -3.1650    0.0000 C   0  0  0  0  0  0  0  0  0
    3.0873   -3.5810    0.0000 C   0  0  0  0  0  0  0  0  0
    3.0833   -4.4060    0.0000 C   0  0  0  0  0  0  0  0  0
    2.3668   -4.8150    0.0000 C   0  0  0  0  0  0  0  0  0
    1.6543   -4.3990    0.0000 C   0  0  0  0  0  0  0  0  0
   -1.9119   -3.1438    0.0000 C   0  0  0  0  0  0  0  0  0
   -2.6284   -3.5528    0.0000 C   0  0  0  0  0  0  0  0  0
   -3.3408   -3.1368    0.0000 C   0  0  0  0  0  0  0  0  0
   -3.3367   -2.3118    0.0000 C   0  0  0  0  0  0  0  0  0
   -2.6202   -1.9028    0.0000 C   0  0  0  0  0  0  0  0  0
   -1.9078   -2.3188    0.0000 C   0  0  0  0  0  0  0  0  0
   -4.0491   -1.8958    0.0000 C   0  0  0  0  0  0  0  0  0
   -4.0451   -1.0708    0.0000 N   0  0  0  0  0  0  0  0  0
   -4.7575   -0.6547    0.0000 C   0  0  0  0  0  0  0  0  0
   -4.7534    0.1702    0.0000 C   0  0  0  0  0  0  0  0  0
   -5.4658    0.5863    0.0000 C   0  0  0  0  0  0  0  0  0
   -5.4618    1.4113    0.0000 C   0  0  0  0  0  0  0  0  0
   -5.3221    2.4499    0.0000 C   0  0  0  0  0  0  0  0  0
   -5.5668    3.0558    0.0000 C   0  0  0  0  0  0  0  0  0
   -5.6045    2.1597    0.0000 C   0  0  0  0  0  0  0  0  0
   -4.8659    1.8274    0.0000 C   0  0  0  0  0  0  0  0  0
   -4.7041    1.0184    0.0000 C   0  0  0  0  0  0  0  0  0
   -3.9226    0.7540    0.0000 C   0  0  0  0  0  0  0  0  0
   -3.3029    1.2986    0.0000 C   0  0  0  0  0  0  0  0  0
   -3.4647    2.1076    0.0000 C   0  0  0  0  0  0  0  0  0
   -4.2462    2.3720    0.0000 C   0  0  0  0  0  0  0  0  0
   -6.4083    1.8078    0.0000 C   0  0  0  0  0  0  0  0  0
   -6.2923    0.9909    0.0000 C   0  0  0  0  0  0  0  0  0
   -6.9418    0.4822    0.0000 C   0  0  0  0  0  0  0  0  0
   -7.7071    0.7902    0.0000 C   0  0  0  0  0  0  0  0  0
   -7.8230    1.6070    0.0000 C   0  0  0  0  0  0  0  0  0
   -7.1736    2.1158    0.0000 C   0  0  0  0  0  0  0  0  0
   -3.3286   -0.6618    0.0000 C   0  0  0  0  0  0  0  0  0
  1  2  1  0  0  0  0
  1 11  1  0  0  0  0
  2  3  1  0  0  0  0
  3  4  1  0  0  0  0
  4  5  1  0  0  0  0
  5  6  1  0  0  0  0
  5 10  1  0  0  0  0
  6  7  1  0  0  0  0
  7  8  1  0  0  0  0
  8  9  1  0  0  0  0
  9 10  1  0  0  0  0
 11 12  4  0  0  0  0
 11 16  4  0  0  0  0
 12 13  4  0  0  0  0
 13 14  4  0  0  0  0
 14 15  4  0  0  0  0
 14 17  1  0  0  0  0
 15 16  4  0  0  0  0
 17 18  1  0  0  0  0
 18 19  1  0  0  0  0
 18 38  1  0  0  0  0
 19 20  1  0  0  0  0
 20 21  1  0  0  0  0
 21 22  1  0  0  0  0
 22 23  1  0  0  0  0
 22 27  1  0  0  0  0
 22 33  1  0  0  0  0
 23 24  1  0  0  0  0
 24 25  1  0  0  0  0
 25 26  1  0  0  0  0
 25 32  1  0  0  0  0
 26 27  4  0  0  0  0
 26 31  4  0  0  0  0
 27 28  4  0  0  0  0
 28 29  4  0  0  0  0
 29 30  4  0  0  0  0
 30 31  4  0  0  0  0
 32 33  4  0  0  0  0
 32 37  4  0  0  0  0
 33 34  4  0  0  0  0
 34 35  4  0  0  0  0
 35 36  4  0  0  0  0
 36 37  4  0  0  0  0
M  END
>  <Name_Molregno>
519118

>  <DOPAMINE D1>
6.69

>  <DOPAMINE D2>
6.84

>  <DOPAMINE D3>
6.83

>  <DOPAMINE D5>
6.58

>  <HISTAMINE H1>
7.4

>  <HISTAMINE H3>
9.45

$$$$
519173
  Marvin  02231216192D 0   1.00000     0.00000     0

 37 41  0  0  0  0  0  0  0  0999 V2000
    4.8594    1.8159    0.0000 Cl  0  0  0  0  0  0  0  0  0
    5.5739    2.2284    0.0000 C   0  0  0  0  0  0  0  0  0
    6.2884    1.8159    0.0000 C   0  0  0  0  0  0  0  0  0
    7.0029    2.2284    0.0000 C   0  0  0  0  0  0  0  0  0
    7.7173    1.8159    0.0000 N   0  0  0  0  0  0  0  0  0
    8.4318    2.2284    0.0000 C   0  0  0  0  0  0  0  0  0
    8.4318    3.0534    0.0000 C   0  0  0  0  0  0  0  0  0
    7.7173    3.4659    0.0000 S   0  0  0  0  0  0  0  0  0
    7.0029    3.0534    0.0000 C   0  0  0  0  0  0  0  0  0
    6.2884    3.4659    0.0000 C   0  0  0  0  0  0  0  0  0
    5.5739    3.0534    0.0000 C   0  0  0  0  0  0  0  0  0
    9.1463    3.4659    0.0000 C   0  0  0  0  0  0  0  0  0
    9.8607    3.0534    0.0000 C   0  0  0  0  0  0  0  0  0
    9.8607    2.2284    0.0000 C   0  0  0  0  0  0  0  0  0
    9.1463    1.8159    0.0000 C   0  0  0  0  0  0  0  0  0
    7.7173    0.9909    0.0000 C   0  0  0  0  0  0  0  0  0
    7.0029    0.5784    0.0000 C   0  0  0  0  0  0  0  0  0
    7.0029   -0.2466    0.0000 C   0  0  0  0  0  0  0  0  0
    6.2884   -0.6591    0.0000 N   0  0  0  0  0  0  0  0  0
    6.2884   -1.4841    0.0000 C   0  0  0  0  0  0  0  0  0
    5.5739   -1.8966    0.0000 C   0  0  0  0  0  0  0  0  0
    5.5739   -2.7216    0.0000 C   0  0  0  0  0  0  0  0  0
    4.8594   -3.1341    0.0000 C   0  0  0  0  0  0  0  0  0
    4.1450   -2.7216    0.0000 C   0  0  0  0  0  0  0  0  0
    3.4305   -3.1341    0.0000 O   0  0  0  0  0  0  0  0  0
    3.4305   -3.9591    0.0000 C   0  0  0  0  0  0  0  0  0
    2.7160   -4.3716    0.0000 C   0  0  0  0  0  0  0  0  0
    2.7160   -5.1966    0.0000 C   0  0  0  0  0  0  0  0  0
    2.0016   -5.6091    0.0000 N   0  0  0  0  0  0  0  0  0
    2.0016   -6.4341    0.0000 C   0  0  0  0  0  0  0  0  0
    1.2871   -6.8466    0.0000 C   0  0  0  0  0  0  0  0  0
    0.5726   -6.4341    0.0000 C   0  0  0  0  0  0  0  0  0
    0.5726   -5.6091    0.0000 C   0  0  0  0  0  0  0  0  0
    1.2871   -5.1966    0.0000 C   0  0  0  0  0  0  0  0  0
    4.1450   -1.8966    0.0000 C   0  0  0  0  0  0  0  0  0
    4.8594   -1.4841    0.0000 C   0  0  0  0  0  0  0  0  0
    5.5739   -0.2466    0.0000 C   0  0  0  0  0  0  0  0  0
  1  2  1  0  0  0  0
  2  3  4  0  0  0  0
  2 11  4  0  0  0  0
  3  4  4  0  0  0  0
  4  5  1  0  0  0  0
  4  9  4  0  0  0  0
  5  6  1  0  0  0  0
  5 16  1  0  0  0  0
  6  7  4  0  0  0  0
  6 15  4  0  0  0  0
  7  8  1  0  0  0  0
  7 12  4  0  0  0  0
  8  9  1  0  0  0  0
  9 10  4  0  0  0  0
 10 11  4  0  0  0  0
 12 13  4  0  0  0  0
 13 14  4  0  0  0  0
 14 15  4  0  0  0  0
 16 17  1  0  0  0  0
 17 18  1  0  0  0  0
 18 19  1  0  0  0  0
 19 20  1  0  0  0  0
 19 37  1  0  0  0  0
 20 21  1  0  0  0  0
 21 22  4  0  0  0  0
 21 36  4  0  0  0  0
 22 23  4  0  0  0  0
 23 24  4  0  0  0  0
 24 25  1  0  0  0  0
 24 35  4  0  0  0  0
 25 26  1  0  0  0  0
 26 27  1  0  0  0  0
 27 28  1  0  0  0  0
 28 29  1  0  0  0  0
 29 30  1  0  0  0  0
 29 34  1  0  0  0  0
 30 31  1  0  0  0  0
 31 32  1  0  0  0  0
 32 33  1  0  0  0  0
 33 34  1  0  0  0  0
 35 36  4  0  0  0  0
M  END
>  <Name_Molregno>
519173

>  <DOPAMINE D1>
6.63

>  <DOPAMINE D2>
7.39

>  <DOPAMINE D3>
7.3

>  <DOPAMINE D5>
6.82

>  <HISTAMINE H1>
6.69

>  <HISTAMINE H3>
8.92

$$$$
519174
  Marvin  02231216192D 0   1.00000     0.00000     0

 37 41  0  0  0  0  0  0  0  0999 V2000
   -0.4896    2.3975    0.0000 Cl  0  0  0  0  0  0  0  0  0
   -1.2040    2.8100    0.0000 C   0  0  0  0  0  0  0  0  0
   -1.9185    2.3975    0.0000 C   0  0  0  0  0  0  0  0  0
   -2.6330    2.8100    0.0000 C   0  0  0  0  0  0  0  0  0
   -2.6330    3.6350    0.0000 C   0  0  0  0  0  0  0  0  0
   -3.3475    4.0475    0.0000 S   0  0  0  0  0  0  0  0  0
   -4.0619    3.6350    0.0000 C   0  0  0  0  0  0  0  0  0
   -4.0619    2.8100    0.0000 C   0  0  0  0  0  0  0  0  0
   -4.7764    2.3975    0.0000 C   0  0  0  0  0  0  0  0  0
   -5.4909    2.8100    0.0000 C   0  0  0  0  0  0  0  0  0
   -5.4909    3.6350    0.0000 C   0  0  0  0  0  0  0  0  0
   -4.7764    4.0475    0.0000 C   0  0  0  0  0  0  0  0  0
   -3.3475    2.3975    0.0000 C   0  0  0  0  0  0  0  0  0
   -3.3475    1.5725    0.0000 C   0  0  0  0  0  0  0  0  0
   -4.0619    1.1600    0.0000 C   0  0  0  0  0  0  0  0  0
   -4.0619    0.3350    0.0000 C   0  0  0  0  0  0  0  0  0
   -4.7764   -0.0775    0.0000 N   0  0  0  0  0  0  0  0  0
   -4.7764   -0.9025    0.0000 C   0  0  0  0  0  0  0  0  0
   -5.4909   -1.3150    0.0000 C   0  0  0  0  0  0  0  0  0
   -5.4909   -2.1400    0.0000 C   0  0  0  0  0  0  0  0  0
   -6.2053   -2.5525    0.0000 C   0  0  0  0  0  0  0  0  0
   -6.9198   -2.1400    0.0000 C   0  0  0  0  0  0  0  0  0
   -7.6343   -2.5525    0.0000 O   0  0  0  0  0  0  0  0  0
   -7.6343   -3.3775    0.0000 C   0  0  0  0  0  0  0  0  0
   -8.3488   -3.7900    0.0000 C   0  0  0  0  0  0  0  0  0
   -8.3488   -4.6150    0.0000 C   0  0  0  0  0  0  0  0  0
   -9.0632   -5.0275    0.0000 N   0  0  0  0  0  0  0  0  0
   -9.0632   -5.8525    0.0000 C   0  0  0  0  0  0  0  0  0
   -9.7777   -6.2650    0.0000 C   0  0  0  0  0  0  0  0  0
  -10.4922   -5.8525    0.0000 C   0  0  0  0  0  0  0  0  0
  -10.4922   -5.0275    0.0000 C   0  0  0  0  0  0  0  0  0
   -9.7777   -4.6150    0.0000 C   0  0  0  0  0  0  0  0  0
   -6.9198   -1.3150    0.0000 C   0  0  0  0  0  0  0  0  0
   -6.2053   -0.9025    0.0000 C   0  0  0  0  0  0  0  0  0
   -5.4909    0.3350    0.0000 C   0  0  0  0  0  0  0  0  0
   -1.9185    4.0475    0.0000 C   0  0  0  0  0  0  0  0  0
   -1.2040    3.6350    0.0000 C   0  0  0  0  0  0  0  0  0
  1  2  1  0  0  0  0
  2  3  4  0  0  0  0
  2 37  4  0  0  0  0
  3  4  4  0  0  0  0
  4  5  4  0  0  0  0
  4 13  1  0  0  0  0
  5  6  1  0  0  0  0
  5 36  4  0  0  0  0
  6  7  1  0  0  0  0
  7  8  4  0  0  0  0
  7 12  4  0  0  0  0
  8  9  4  0  0  0  0
  8 13  1  0  0  0  0
  9 10  4  0  0  0  0
 10 11  4  0  0  0  0
 11 12  4  0  0  0  0
 13 14  2  0  0  0  0
 14 15  1  0  0  0  0
 15 16  1  0  0  0  0
 16 17  1  0  0  0  0
 17 18  1  0  0  0  0
 17 35  1  0  0  0  0
 18 19  1  0  0  0  0
 19 20  4  0  0  0  0
 19 34  4  0  0  0  0
 20 21  4  0  0  0  0
 21 22  4  0  0  0  0
 22 23  1  0  0  0  0
 22 33  4  0  0  0  0
 23 24  1  0  0  0  0
 24 25  1  0  0  0  0
 25 26  1  0  0  0  0
 26 27  1  0  0  0  0
 27 28  1  0  0  0  0
 27 32  1  0  0  0  0
 28 29  1  0  0  0  0
 29 30  1  0  0  0  0
 30 31  1  0  0  0  0
 31 32  1  0  0  0  0
 33 34  4  0  0  0  0
 36 37  4  0  0  0  0
M  END
>  <Name_Molregno>
519174

>  <DOPAMINE D1>
6.61

>  <DOPAMINE D2>
7.28

>  <DOPAMINE D3>
7.3

>  <DOPAMINE D5>
6.53

>  <HISTAMINE H1>
6.53

>  <HISTAMINE H3>
8.81

$$$$
519223
  Marvin  02231216192D 0   1.00000     0.00000     0

 39 44  0  0  0  0  0  0  0  0999 V2000
   -1.5718   -4.2946    0.0000 Cl  0  0  0  0  0  0  0  0  0
   -0.7834   -4.5378    0.0000 C   0  0  0  0  0  0  0  0  0
   -0.1787   -3.9766    0.0000 C   0  0  0  0  0  0  0  0  0
    0.6097   -4.2198    0.0000 C   0  0  0  0  0  0  0  0  0
    1.1241   -3.5748    0.0000 N   0  0  0  0  0  0  0  0  0
    1.9491   -3.5748    0.0000 C   0  0  0  0  0  0  0  0  0
    2.3070   -2.8315    0.0000 N   0  0  0  0  0  0  0  0  0
    1.8423   -2.1499    0.0000 C   0  0  0  0  0  0  0  0  0
    2.2002   -1.4066    0.0000 C   0  0  0  0  0  0  0  0  0
    3.0229   -1.3449    0.0000 N   0  0  0  0  0  0  0  0  0
    3.4877   -2.0265    0.0000 C   0  0  0  0  0  0  0  0  0
    3.1297   -2.7698    0.0000 C   0  0  0  0  0  0  0  0  0
    3.3809   -0.6016    0.0000 C   0  0  0  0  0  0  0  0  0
    4.2036   -0.5399    0.0000 C   0  0  0  0  0  0  0  0  0
    4.5615    0.2034    0.0000 C   0  0  0  0  0  0  0  0  0
    5.3842    0.2650    0.0000 C   0  0  0  0  0  0  0  0  0
    5.8490   -0.4166    0.0000 C   0  0  0  0  0  0  0  0  0
    6.6717   -0.3550    0.0000 O   0  0  0  0  0  0  0  0  0
    7.0296    0.3883    0.0000 C   0  0  0  0  0  0  0  0  0
    7.8523    0.4500    0.0000 C   0  0  0  0  0  0  0  0  0
    8.2103    1.1933    0.0000 C   0  0  0  0  0  0  0  0  0
    9.0329    1.2549    0.0000 N   0  0  0  0  0  0  0  0  0
    9.3909    1.9982    0.0000 C   0  0  0  0  0  0  0  0  0
   10.2136    2.0599    0.0000 C   0  0  0  0  0  0  0  0  0
   10.6783    1.3782    0.0000 C   0  0  0  0  0  0  0  0  0
   10.3204    0.6349    0.0000 C   0  0  0  0  0  0  0  0  0
    9.4977    0.5733    0.0000 C   0  0  0  0  0  0  0  0  0
    5.4910   -1.1599    0.0000 C   0  0  0  0  0  0  0  0  0
    4.6683   -1.2216    0.0000 C   0  0  0  0  0  0  0  0  0
    2.4634   -4.2198    0.0000 C   0  0  0  0  0  0  0  0  0
    2.2799   -5.0241    0.0000 C   0  0  0  0  0  0  0  0  0
    1.5366   -5.3821    0.0000 N   0  0  0  0  0  0  0  0  0
    0.7933   -5.0241    0.0000 C   0  0  0  0  0  0  0  0  0
    0.1885   -5.5853    0.0000 C   0  0  0  0  0  0  0  0  0
   -0.5998   -5.3421    0.0000 C   0  0  0  0  0  0  0  0  0
    2.8846   -5.5853    0.0000 C   0  0  0  0  0  0  0  0  0
    3.6730   -5.3421    0.0000 C   0  0  0  0  0  0  0  0  0
    3.8566   -4.5378    0.0000 C   0  0  0  0  0  0  0  0  0
    3.2518   -3.9766    0.0000 C   0  0  0  0  0  0  0  0  0
  1  2  1  0  0  0  0
  2  3  4  0  0  0  0
  2 35  4  0  0  0  0
  3  4  4  0  0  0  0
  4  5  1  0  0  0  0
  4 33  4  0  0  0  0
  5  6  2  0  0  0  0
  6  7  1  0  0  0  0
  6 30  1  0  0  0  0
  7  8  1  0  0  0  0
  7 12  1  0  0  0  0
  8  9  1  0  0  0  0
  9 10  1  0  0  0  0
 10 11  1  0  0  0  0
 10 13  1  0  0  0  0
 11 12  1  0  0  0  0
 13 14  1  0  0  0  0
 14 15  4  0  0  0  0
 14 29  4  0  0  0  0
 15 16  4  0  0  0  0
 16 17  4  0  0  0  0
 17 18  1  0  0  0  0
 17 28  4  0  0  0  0
 18 19  1  0  0  0  0
 19 20  1  0  0  0  0
 20 21  1  0  0  0  0
 21 22  1  0  0  0  0
 22 23  1  0  0  0  0
 22 27  1  0  0  0  0
 23 24  1  0  0  0  0
 24 25  1  0  0  0  0
 25 26  1  0  0  0  0
 26 27  1  0  0  0  0
 28 29  4  0  0  0  0
 30 31  4  0  0  0  0
 30 39  4  0  0  0  0
 31 32  1  0  0  0  0
 31 36  4  0  0  0  0
 32 33  1  0  0  0  0
 33 34  4  0  0  0  0
 34 35  4  0  0  0  0
 36 37  4  0  0  0  0
 37 38  4  0  0  0  0
 38 39  4  0  0  0  0
M  END
>  <Name_Molregno>
519223

>  <DOPAMINE D1>
6.06

>  <DOPAMINE D2>
6.55

>  <DOPAMINE D3>
6.65

>  <DOPAMINE D5>
6.04

>  <HISTAMINE H1>
6.72

>  <HISTAMINE H3>
8.49

$$$$
519224
  Marvin  02231216192D 0   1.00000     0.00000     0

 48 53  0  0  0  0  0  0  0  0999 V2000
    8.7754   -5.1467    0.0000 S   0  0  0  0  0  0  0  0  0
    9.4898   -4.7342    0.0000 C   0  0  0  0  0  0  0  0  0
    9.4898   -3.9092    0.0000 C   0  0  0  0  0  0  0  0  0
    8.7754   -3.4967    0.0000 N   0  0  0  0  0  0  0  0  0
    8.0609   -3.9092    0.0000 C   0  0  0  0  0  0  0  0  0
    8.0609   -4.7342    0.0000 C   0  0  0  0  0  0  0  0  0
    7.3464   -5.1467    0.0000 C   0  0  0  0  0  0  0  0  0
    6.6319   -4.7342    0.0000 C   0  0  0  0  0  0  0  0  0
    6.6319   -3.9092    0.0000 C   0  0  0  0  0  0  0  0  0
    7.3464   -3.4967    0.0000 C   0  0  0  0  0  0  0  0  0
    8.7754   -2.6717    0.0000 C   0  0  0  0  0  0  0  0  0
    8.0609   -2.2592    0.0000 C   0  0  0  0  0  0  0  0  0
    8.0609   -1.4342    0.0000 C   0  0  0  0  0  0  0  0  0
    7.3464   -1.0217    0.0000 N   0  0  0  0  0  0  0  0  0
    6.6319   -1.4342    0.0000 C   0  0  0  0  0  0  0  0  0
    5.9175   -1.0217    0.0000 C   0  0  0  0  0  0  0  0  0
    5.9175   -0.1967    0.0000 N   0  0  0  0  0  0  0  0  0
    6.6319    0.2158    0.0000 C   0  0  0  0  0  0  0  0  0
    7.3464   -0.1967    0.0000 C   0  0  0  0  0  0  0  0  0
    5.2030    0.2158    0.0000 C   0  0  0  0  0  0  0  0  0
    5.2030    1.0408    0.0000 C   0  0  0  0  0  0  0  0  0
    4.4885    1.4533    0.0000 O   0  0  0  0  0  0  0  0  0
    4.4885    2.2783    0.0000 C   0  0  0  0  0  0  0  0  0
    5.2030    2.6908    0.0000 O   0  0  0  0  0  0  0  0  0
    3.7741    2.6908    0.0000 C   0  0  0  0  0  0  0  0  0
    3.0596    2.2783    0.0000 C   0  0  0  0  0  0  0  0  0
    2.3451    2.6908    0.0000 C   0  0  0  0  0  0  0  0  0
    2.3451    3.5158    0.0000 C   0  0  0  0  0  0  0  0  0
    1.6307    3.9283    0.0000 O   0  0  0  0  0  0  0  0  0
    1.6307    4.7533    0.0000 C   0  0  0  0  0  0  0  0  0
    0.9162    5.1658    0.0000 C   0  0  0  0  0  0  0  0  0
    0.9162    5.9908    0.0000 C   0  0  0  0  0  0  0  0  0
    0.2017    6.4033    0.0000 N   0  0  0  0  0  0  0  0  0
   -0.5128    5.9908    0.0000 C   0  0  0  0  0  0  0  0  0
   -1.2272    6.4033    0.0000 C   0  0  0  0  0  0  0  0  0
   -1.2272    7.2283    0.0000 C   0  0  0  0  0  0  0  0  0
   -0.5128    7.6408    0.0000 C   0  0  0  0  0  0  0  0  0
    0.2017    7.2283    0.0000 C   0  0  0  0  0  0  0  0  0
    3.0596    3.9283    0.0000 C   0  0  0  0  0  0  0  0  0
    3.7741    3.5158    0.0000 C   0  0  0  0  0  0  0  0  0
   10.2043   -3.4967    0.0000 C   0  0  0  0  0  0  0  0  0
   10.9188   -3.9092    0.0000 C   0  0  0  0  0  0  0  0  0
   10.9188   -4.7342    0.0000 C   0  0  0  0  0  0  0  0  0
   10.2043   -5.1467    0.0000 C   0  0  0  0  0  0  0  0  0
   11.6332   -3.4967    0.0000 C   0  0  0  0  0  0  0  0  0
   12.3477   -3.0842    0.0000 F   0  0  0  0  0  0  0  0  0
   12.0457   -4.2112    0.0000 F   0  0  0  0  0  0  0  0  0
   11.2207   -2.7822    0.0000 F   0  0  0  0  0  0  0  0  0
  1  2  1  0  0  0  0
  1  6  1  0  0  0  0
  2  3  4  0  0  0  0
  2 44  4  0  0  0  0
  3  4  1  0  0  0  0
  3 41  4  0  0  0  0
  4  5  1  0  0  0  0
  4 11  1  0  0  0  0
  5  6  4  0  0  0  0
  5 10  4  0  0  0  0
  6  7  4  0  0  0  0
  7  8  4  0  0  0  0
  8  9  4  0  0  0  0
  9 10  4  0  0  0  0
 11 12  1  0  0  0  0
 12 13  1  0  0  0  0
 13 14  1  0  0  0  0
 14 15  1  0  0  0  0
 14 19  1  0  0  0  0
 15 16  1  0  0  0  0
 16 17  1  0  0  0  0
 17 18  1  0  0  0  0
 17 20  1  0  0  0  0
 18 19  1  0  0  0  0
 20 21  1  0  0  0  0
 21 22  1  0  0  0  0
 22 23  1  0  0  0  0
 23 24  2  0  0  0  0
 23 25  1  0  0  0  0
 25 26  4  0  0  0  0
 25 40  4  0  0  0  0
 26 27  4  0  0  0  0
 27 28  4  0  0  0  0
 28 29  1  0  0  0  0
 28 39  4  0  0  0  0
 29 30  1  0  0  0  0
 30 31  1  0  0  0  0
 31 32  1  0  0  0  0
 32 33  1  0  0  0  0
 33 34  1  0  0  0  0
 33 38  1  0  0  0  0
 34 35  1  0  0  0  0
 35 36  1  0  0  0  0
 36 37  1  0  0  0  0
 37 38  1  0  0  0  0
 39 40  4  0  0  0  0
 41 42  4  0  0  0  0
 42 43  4  0  0  0  0
 42 45  1  0  0  0  0
 43 44  4  0  0  0  0
 45 46  1  0  0  0  0
 45 47  1  0  0  0  0
 45 48  1  0  0  0  0
M  END
>  <Name_Molregno>
519224

>  <DOPAMINE D1>
6.69

>  <DOPAMINE D2>
7.33

>  <DOPAMINE D3>
7.82

>  <DOPAMINE D5>
6.58

>  <HISTAMINE H1>
6.41

>  <HISTAMINE H3>
10.38

$$$$
572290
  Marvin  02231216192D 0   1.00000     0.00000     0

 28 32  0  0  1  0  0  0  0  0999 V2000
    2.0491    4.6570    0.0000 F   0  0  0  0  0  0  0  0  0
    2.6011    4.0439    0.0000 C   0  0  0  0  0  0  0  0  0
    3.4081    4.2154    0.0000 C   0  0  0  0  0  0  0  0  0
    3.9601    3.6023    0.0000 C   0  0  0  0  0  0  0  0  0
    4.7851    3.6023    0.0000 O   0  0  0  0  0  0  0  0  0
    5.0401    2.8177    0.0000 N   0  0  0  0  0  0  0  0  0
    4.3726    2.3328    0.0000 C   0  0  0  0  0  0  0  0  0
    3.7052    2.8177    0.0000 C   0  0  0  0  0  0  0  0  0
    2.8982    2.6462    0.0000 C   0  0  0  0  0  0  0  0  0
    2.3462    3.2593    0.0000 C   0  0  0  0  0  0  0  0  0
    4.3726    1.5078    0.0000 C   0  0  0  0  0  0  0  0  0
    5.0871    1.0953    0.0000 C   0  0  0  0  0  0  0  0  0
    5.0871    0.2703    0.0000 C   0  0  0  0  0  0  0  0  0
    4.3726   -0.1422    0.0000 N   0  0  0  0  0  0  0  0  0
    3.6582    0.2703    0.0000 C   0  0  0  0  0  0  0  0  0
    3.6582    1.0953    0.0000 C   0  0  0  0  0  0  0  0  0
    4.3726   -0.9672    0.0000 C   0  0  0  0  0  0  0  0  0
    5.0871   -1.3797    0.0000 C   0  0  0  0  0  0  0  0  0
    5.0871   -2.2047    0.0000 C   0  0  0  0  0  0  0  0  0
    5.8016   -2.6172    0.0000 C   0  0  0  0  0  0  0  0  0
    5.8016   -3.4422    0.0000 O   0  0  0  0  0  0  0  0  0
    6.5161   -2.2047    0.0000 C   0  0  0  0  0  0  0  0  0
    6.5161   -1.3797    0.0000 C   0  0  0  0  0  0  0  0  0
    7.2305   -0.9672    0.0000 N   0  0  0  0  0  0  0  0  0
    7.9450   -1.3797    0.0000 C   0  0  0  0  0  0  0  0  0
    7.9450   -2.2047    0.0000 N   0  0  0  0  0  0  0  0  0
    7.2305   -2.6172    0.0000 C   0  0  0  0  0  0  0  0  0
    5.8016   -0.9672    0.0000 C   0  0  0  0  0  0  0  0  0
  1  2  1  0  0  0  0
  2  3  4  0  0  0  0
  2 10  4  0  0  0  0
  3  4  4  0  0  0  0
  4  5  4  0  0  0  0
  4  8  4  0  0  0  0
  5  6  4  0  0  0  0
  6  7  4  0  0  0  0
  7  8  4  0  0  0  0
  7 11  1  0  0  0  0
  8  9  4  0  0  0  0
  9 10  4  0  0  0  0
 11 12  1  0  0  0  0
 11 16  1  0  0  0  0
 12 13  1  0  0  0  0
 13 14  1  0  0  0  0
 14 15  1  0  0  0  0
 14 17  1  0  0  0  0
 15 16  1  0  0  0  0
 17 18  1  0  0  0  0
 18 19  1  0  0  0  0
 18 28  1  0  0  0  0
 19 20  1  0  0  0  0
 20 21  2  0  0  0  0
 20 22  1  0  0  0  0
 22 23  4  0  0  0  0
 22 27  4  0  0  0  0
 23 24  4  0  0  0  0
 23 28  1  0  0  0  0
 24 25  4  0  0  0  0
 25 26  4  0  0  0  0
 26 27  4  0  0  0  0
M  END
>  <Name_Molregno>
572290

>  <5-HT2A>
7.63

>  <5-HT2C>
6.3

>  <DOPAMINE D1>
6.87

>  <DOPAMINE D2>
6.8

>  <DOPAMINE D3>
6.55

$$$$
572298
  Marvin  02231216192D 0   1.00000     0.00000     0

 30 34  0  0  1  0  0  0  0  0999 V2000
   -7.7335    3.0117    0.0000 S   0  0  0  0  0  0  0  0  0
   -8.5405    3.1832    0.0000 C   0  0  0  0  0  0  0  0  0
   -7.4785    2.2271    0.0000 C   0  0  0  0  0  0  0  0  0
   -6.6716    2.0555    0.0000 N   0  0  0  0  0  0  0  0  0
   -6.4166    1.2709    0.0000 C   0  0  0  0  0  0  0  0  0
   -5.6097    1.0994    0.0000 C   0  0  0  0  0  0  0  0  0
   -5.3547    0.3148    0.0000 C   0  0  0  0  0  0  0  0  0
   -5.9068   -0.2983    0.0000 C   0  0  0  0  0  0  0  0  0
   -6.7137   -0.1268    0.0000 C   0  0  0  0  0  0  0  0  0
   -7.2658   -0.7399    0.0000 O   0  0  0  0  0  0  0  0  0
   -6.9687    0.6578    0.0000 C   0  0  0  0  0  0  0  0  0
   -7.7756    0.8293    0.0000 C   0  0  0  0  0  0  0  0  0
   -8.0306    1.6140    0.0000 N   0  0  0  0  0  0  0  0  0
   -4.5477    0.1432    0.0000 C   0  0  0  0  0  0  0  0  0
   -4.2928   -0.6414    0.0000 N   0  0  0  0  0  0  0  0  0
   -3.4858   -0.8129    0.0000 C   0  0  0  0  0  0  0  0  0
   -3.2309   -1.5975    0.0000 C   0  0  0  0  0  0  0  0  0
   -3.7829   -2.2106    0.0000 C   0  0  0  0  0  0  0  0  0
   -4.5899   -2.0391    0.0000 C   0  0  0  0  0  0  0  0  0
   -4.8448   -1.2545    0.0000 C   0  0  0  0  0  0  0  0  0
   -3.5280   -2.9953    0.0000 C   0  0  0  0  0  0  0  0  0
   -4.0129   -3.6627    0.0000 N   0  0  0  0  0  0  0  0  0
   -3.5280   -4.3301    0.0000 O   0  0  0  0  0  0  0  0  0
   -2.7434   -4.0752    0.0000 C   0  0  0  0  0  0  0  0  0
   -2.7434   -3.2502    0.0000 C   0  0  0  0  0  0  0  0  0
   -2.0289   -2.8377    0.0000 C   0  0  0  0  0  0  0  0  0
   -1.3144   -3.2502    0.0000 C   0  0  0  0  0  0  0  0  0
   -1.3144   -4.0752    0.0000 C   0  0  0  0  0  0  0  0  0
   -0.6000   -4.4877    0.0000 F   0  0  0  0  0  0  0  0  0
   -2.0289   -4.4877    0.0000 C   0  0  0  0  0  0  0  0  0
  1  2  1  0  0  0  0
  1  3  1  0  0  0  0
  3  4  4  0  0  0  0
  3 13  4  0  0  0  0
  4  5  4  0  0  0  0
  5  6  1  0  0  0  0
  5 11  4  0  0  0  0
  6  7  1  0  0  0  0
  7  8  1  0  0  0  0
  7 14  1  0  0  0  0
  8  9  1  0  0  0  0
  9 10  2  0  0  0  0
  9 11  1  0  0  0  0
 11 12  4  0  0  0  0
 12 13  4  0  0  0  0
 14 15  1  0  0  0  0
 15 16  1  0  0  0  0
 15 20  1  0  0  0  0
 16 17  1  0  0  0  0
 17 18  1  0  0  0  0
 18 19  1  0  0  0  0
 18 21  1  0  0  0  0
 19 20  1  0  0  0  0
 21 22  4  0  0  0  0
 21 25  4  0  0  0  0
 22 23  4  0  0  0  0
 23 24  4  0  0  0  0
 24 25  4  0  0  0  0
 24 30  4  0  0  0  0
 25 26  4  0  0  0  0
 26 27  4  0  0  0  0
 27 28  4  0  0  0  0
 28 29  1  0  0  0  0
 28 30  4  0  0  0  0
M  END
>  <Name_Molregno>
572298

>  <5-HT2A>
8.34

>  <5-HT2C>
5

>  <DOPAMINE D1>
7.48

>  <DOPAMINE D2>
7.49

>  <DOPAMINE D3>
7.35

$$$$
572334
  Marvin  02231216192D 0   1.00000     0.00000     0

 30 34  0  0  1  0  0  0  0  0999 V2000
    1.8876   -2.7225    0.0000 F   0  0  0  0  0  0  0  0  0
    2.1426   -1.9379    0.0000 C   0  0  0  0  0  0  0  0  0
    1.5905   -1.3248    0.0000 C   0  0  0  0  0  0  0  0  0
    1.8455   -0.5402    0.0000 C   0  0  0  0  0  0  0  0  0
    1.4330    0.1743    0.0000 O   0  0  0  0  0  0  0  0  0
    1.9850    0.7874    0.0000 N   0  0  0  0  0  0  0  0  0
    2.7387    0.4518    0.0000 C   0  0  0  0  0  0  0  0  0
    2.6524   -0.3686    0.0000 C   0  0  0  0  0  0  0  0  0
    3.2045   -0.9817    0.0000 C   0  0  0  0  0  0  0  0  0
    2.9495   -1.7664    0.0000 C   0  0  0  0  0  0  0  0  0
    3.4531    0.8643    0.0000 C   0  0  0  0  0  0  0  0  0
    3.4531    1.6893    0.0000 C   0  0  0  0  0  0  0  0  0
    4.1676    2.1018    0.0000 C   0  0  0  0  0  0  0  0  0
    4.8821    1.6893    0.0000 N   0  0  0  0  0  0  0  0  0
    4.8821    0.8643    0.0000 C   0  0  0  0  0  0  0  0  0
    4.1676    0.4518    0.0000 C   0  0  0  0  0  0  0  0  0
    5.5966    2.1018    0.0000 C   0  0  0  0  0  0  0  0  0
    6.3110    1.6893    0.0000 C   0  0  0  0  0  0  0  0  0
    6.3110    0.8643    0.0000 C   0  0  0  0  0  0  0  0  0
    7.0255    0.4518    0.0000 C   0  0  0  0  0  0  0  0  0
    7.0255   -0.3732    0.0000 O   0  0  0  0  0  0  0  0  0
    7.7400    0.8643    0.0000 C   0  0  0  0  0  0  0  0  0
    7.7400    1.6893    0.0000 C   0  0  0  0  0  0  0  0  0
    8.4544    2.1018    0.0000 N   0  0  0  0  0  0  0  0  0
    9.1689    1.6893    0.0000 C   0  0  0  0  0  0  0  0  0
    9.1689    0.8643    0.0000 N   0  0  0  0  0  0  0  0  0
    8.4544    0.4518    0.0000 C   0  0  0  0  0  0  0  0  0
    9.8834    2.1018    0.0000 N   0  0  0  0  0  0  0  0  0
    9.8834    2.9268    0.0000 C   0  0  0  0  0  0  0  0  0
    7.0255    2.1018    0.0000 C   0  0  0  0  0  0  0  0  0
  1  2  1  0  0  0  0
  2  3  4  0  0  0  0
  2 10  4  0  0  0  0
  3  4  4  0  0  0  0
  4  5  4  0  0  0  0
  4  8  4  0  0  0  0
  5  6  4  0  0  0  0
  6  7  4  0  0  0  0
  7  8  4  0  0  0  0
  7 11  1  0  0  0  0
  8  9  4  0  0  0  0
  9 10  4  0  0  0  0
 11 12  1  0  0  0  0
 11 16  1  0  0  0  0
 12 13  1  0  0  0  0
 13 14  1  0  0  0  0
 14 15  1  0  0  0  0
 14 17  1  0  0  0  0
 15 16  1  0  0  0  0
 17 18  1  0  0  0  0
 18 19  1  0  0  0  0
 18 30  1  0  0  0  0
 19 20  1  0  0  0  0
 20 21  2  0  0  0  0
 20 22  1  0  0  0  0
 22 23  4  0  0  0  0
 22 27  4  0  0  0  0
 23 24  4  0  0  0  0
 23 30  1  0  0  0  0
 24 25  4  0  0  0  0
 25 26  4  0  0  0  0
 25 28  1  0  0  0  0
 26 27  4  0  0  0  0
 28 29  1  0  0  0  0
M  END
>  <Name_Molregno>
572334

>  <5-HT2A>
8.62

>  <5-HT2C>
5

>  <DOPAMINE D1>
7.37

>  <DOPAMINE D2>
7.31

>  <DOPAMINE D3>
6.7

$$$$
576063
  Marvin  02231216192D 0   1.00000     0.00000     0

 25 28  0  0  0  0  0  0  0  0999 V2000
    1.3546   -3.1200    0.0000 Cl  0  0  0  0  0  0  0  0  0
    1.8689   -2.4750    0.0000 C   0  0  0  0  0  0  0  0  0
    1.5675   -1.7070    0.0000 C   0  0  0  0  0  0  0  0  0
    2.0819   -1.0620    0.0000 C   0  0  0  0  0  0  0  0  0
    1.6694   -0.3475    0.0000 C   0  0  0  0  0  0  0  0  0
    1.9708    0.4204    0.0000 C   0  0  0  0  0  0  0  0  0
    2.7592    0.6636    0.0000 N   0  0  0  0  0  0  0  0  0
    3.4408    0.1989    0.0000 C   0  0  0  0  0  0  0  0  0
    3.5025   -0.6238    0.0000 N   0  0  0  0  0  0  0  0  0
    2.8977   -1.1850    0.0000 C   0  0  0  0  0  0  0  0  0
    3.1991   -1.9529    0.0000 C   0  0  0  0  0  0  0  0  0
    2.6847   -2.5980    0.0000 C   0  0  0  0  0  0  0  0  0
    2.9861   -3.3659    0.0000 O   0  0  0  0  0  0  0  0  0
    4.1553    0.6114    0.0000 C   0  0  0  0  0  0  0  0  0
    4.8698    0.1989    0.0000 C   0  0  0  0  0  0  0  0  0
    5.5842    0.6114    0.0000 C   0  0  0  0  0  0  0  0  0
    5.5842    1.4364    0.0000 C   0  0  0  0  0  0  0  0  0
    6.2987    1.8489    0.0000 C   0  0  0  0  0  0  0  0  0
    7.0132    1.4364    0.0000 C   0  0  0  0  0  0  0  0  0
    7.7276    1.8489    0.0000 O   0  0  0  0  0  0  0  0  0
    7.7276    2.6739    0.0000 C   0  0  0  0  0  0  0  0  0
    7.0132    0.6114    0.0000 C   0  0  0  0  0  0  0  0  0
    6.2987    0.1989    0.0000 C   0  0  0  0  0  0  0  0  0
    4.8698    1.8489    0.0000 C   0  0  0  0  0  0  0  0  0
    4.1553    1.4364    0.0000 C   0  0  0  0  0  0  0  0  0
  1  2  1  0  0  0  0
  2  3  4  0  0  0  0
  2 12  4  0  0  0  0
  3  4  4  0  0  0  0
  4  5  1  0  0  0  0
  4 10  4  0  0  0  0
  5  6  1  0  0  0  0
  6  7  1  0  0  0  0
  7  8  2  0  0  0  0
  8  9  1  0  0  0  0
  8 14  1  0  0  0  0
  9 10  1  0  0  0  0
 10 11  4  0  0  0  0
 11 12  4  0  0  0  0
 12 13  1  0  0  0  0
 14 15  4  0  0  0  0
 14 25  4  0  0  0  0
 15 16  4  0  0  0  0
 16 17  4  0  0  0  0
 16 23  4  0  0  0  0
 17 18  4  0  0  0  0
 17 24  4  0  0  0  0
 18 19  4  0  0  0  0
 19 20  1  0  0  0  0
 19 22  4  0  0  0  0
 20 21  1  0  0  0  0
 22 23  4  0  0  0  0
 24 25  4  0  0  0  0
M  END
>  <Name_Molregno>
576063

>  <DOPAMINE D1>
6.7

$$$$
576065
  Marvin  02231216192D 0   1.00000     0.00000     0

 17 18  0  0  0  0  0  0  0  0999 V2000
    0.3979    1.0102    0.0000 Cl  0  0  0  0  0  0  0  0  0
    1.1124    0.5977    0.0000 C   0  0  0  0  0  0  0  0  0
    1.8268    1.0102    0.0000 C   0  0  0  0  0  0  0  0  0
    2.5413    0.5977    0.0000 C   0  0  0  0  0  0  0  0  0
    3.1863    1.1121    0.0000 C   0  0  0  0  0  0  0  0  0
    3.9906    0.9285    0.0000 C   0  0  0  0  0  0  0  0  0
    4.3486    0.1852    0.0000 N   0  0  0  0  0  0  0  0  0
    3.9906   -0.5581    0.0000 C   0  0  0  0  0  0  0  0  0
    3.1863   -0.7417    0.0000 N   0  0  0  0  0  0  0  0  0
    2.5413   -0.2273    0.0000 C   0  0  0  0  0  0  0  0  0
    1.8268   -0.6398    0.0000 C   0  0  0  0  0  0  0  0  0
    1.1124   -0.2273    0.0000 C   0  0  0  0  0  0  0  0  0
    0.3979   -0.6398    0.0000 O   0  0  0  0  0  0  0  0  0
    4.5050   -1.2031    0.0000 C   0  0  0  0  0  0  0  0  0
    4.2036   -1.9711    0.0000 C   0  0  0  0  0  0  0  0  0
    4.7180   -2.6161    0.0000 C   0  0  0  0  0  0  0  0  0
    3.3878   -2.0940    0.0000 C   0  0  0  0  0  0  0  0  0
  1  2  1  0  0  0  0
  2  3  4  0  0  0  0
  2 12  4  0  0  0  0
  3  4  4  0  0  0  0
  4  5  1  0  0  0  0
  4 10  4  0  0  0  0
  5  6  1  0  0  0  0
  6  7  1  0  0  0  0
  7  8  2  0  0  0  0
  8  9  1  0  0  0  0
  8 14  1  0  0  0  0
  9 10  1  0  0  0  0
 10 11  4  0  0  0  0
 11 12  4  0  0  0  0
 12 13  1  0  0  0  0
 14 15  1  0  0  0  0
 15 16  1  0  0  0  0
 15 17  1  0  0  0  0
M  END
>  <Name_Molregno>
576065

>  <DOPAMINE D1>
6.35

$$$$
576066
  Marvin  02231216192D 0   1.00000     0.00000     0

 19 21  0  0  0  0  0  0  0  0999 V2000
    0.2780    1.3543    0.0000 Cl  0  0  0  0  0  0  0  0  0
    0.9925    0.9418    0.0000 C   0  0  0  0  0  0  0  0  0
    1.7070    1.3543    0.0000 C   0  0  0  0  0  0  0  0  0
    2.4215    0.9418    0.0000 C   0  0  0  0  0  0  0  0  0
    3.0665    1.4561    0.0000 C   0  0  0  0  0  0  0  0  0
    3.8708    1.2726    0.0000 C   0  0  0  0  0  0  0  0  0
    4.2287    0.5293    0.0000 N   0  0  0  0  0  0  0  0  0
    3.8708   -0.2140    0.0000 C   0  0  0  0  0  0  0  0  0
    3.0665   -0.3976    0.0000 N   0  0  0  0  0  0  0  0  0
    2.4215    0.1168    0.0000 C   0  0  0  0  0  0  0  0  0
    1.7070   -0.2957    0.0000 C   0  0  0  0  0  0  0  0  0
    0.9925    0.1168    0.0000 C   0  0  0  0  0  0  0  0  0
    0.2780   -0.2957    0.0000 O   0  0  0  0  0  0  0  0  0
    4.3852   -0.8590    0.0000 C   0  0  0  0  0  0  0  0  0
    5.2010   -0.7361    0.0000 C   0  0  0  0  0  0  0  0  0
    5.7153   -1.3811    0.0000 C   0  0  0  0  0  0  0  0  0
    5.4139   -2.1491    0.0000 C   0  0  0  0  0  0  0  0  0
    4.5981   -2.2720    0.0000 C   0  0  0  0  0  0  0  0  0
    4.0838   -1.6270    0.0000 C   0  0  0  0  0  0  0  0  0
  1  2  1  0  0  0  0
  2  3  4  0  0  0  0
  2 12  4  0  0  0  0
  3  4  4  0  0  0  0
  4  5  1  0  0  0  0
  4 10  4  0  0  0  0
  5  6  1  0  0  0  0
  6  7  1  0  0  0  0
  7  8  2  0  0  0  0
  8  9  1  0  0  0  0
  8 14  1  0  0  0  0
  9 10  1  0  0  0  0
 10 11  4  0  0  0  0
 11 12  4  0  0  0  0
 12 13  1  0  0  0  0
 14 15  4  0  0  0  0
 14 19  4  0  0  0  0
 15 16  4  0  0  0  0
 16 17  4  0  0  0  0
 17 18  4  0  0  0  0
 18 19  4  0  0  0  0
M  END
>  <Name_Molregno>
576066

>  <DOPAMINE D1>
6.44

$$$$
576095
  Marvin  02231216192D 0   1.00000     0.00000     0

 23 25  0  0  0  0  0  0  0  0999 V2000
    0.3646    1.7455    0.0000 Cl  0  0  0  0  0  0  0  0  0
    1.0791    1.3330    0.0000 C   0  0  0  0  0  0  0  0  0
    1.7935    1.7455    0.0000 C   0  0  0  0  0  0  0  0  0
    2.5080    1.3330    0.0000 C   0  0  0  0  0  0  0  0  0
    3.1530    1.8474    0.0000 C   0  0  0  0  0  0  0  0  0
    3.9573    1.6638    0.0000 C   0  0  0  0  0  0  0  0  0
    4.3153    0.9205    0.0000 N   0  0  0  0  0  0  0  0  0
    3.9573    0.1772    0.0000 C   0  0  0  0  0  0  0  0  0
    3.1530   -0.0064    0.0000 N   0  0  0  0  0  0  0  0  0
    2.5080    0.5080    0.0000 C   0  0  0  0  0  0  0  0  0
    1.7935    0.0955    0.0000 C   0  0  0  0  0  0  0  0  0
    1.0791    0.5080    0.0000 C   0  0  0  0  0  0  0  0  0
    0.3646    0.0955    0.0000 O   0  0  0  0  0  0  0  0  0
    4.4717   -0.4678    0.0000 C   0  0  0  0  0  0  0  0  0
    5.2875   -0.3448    0.0000 C   0  0  0  0  0  0  0  0  0
    5.8019   -0.9898    0.0000 C   0  0  0  0  0  0  0  0  0
    6.6177   -0.8669    0.0000 C   0  0  0  0  0  0  0  0  0
    7.1320   -1.5119    0.0000 C   0  0  0  0  0  0  0  0  0
    6.8306   -2.2799    0.0000 C   0  0  0  0  0  0  0  0  0
    7.3450   -2.9249    0.0000 O   0  0  0  0  0  0  0  0  0
    8.1608   -2.8019    0.0000 C   0  0  0  0  0  0  0  0  0
    6.0149   -2.4028    0.0000 C   0  0  0  0  0  0  0  0  0
    5.5005   -1.7578    0.0000 C   0  0  0  0  0  0  0  0  0
  1  2  1  0  0  0  0
  2  3  4  0  0  0  0
  2 12  4  0  0  0  0
  3  4  4  0  0  0  0
  4  5  1  0  0  0  0
  4 10  4  0  0  0  0
  5  6  1  0  0  0  0
  6  7  1  0  0  0  0
  7  8  2  0  0  0  0
  8  9  1  0  0  0  0
  8 14  1  0  0  0  0
  9 10  1  0  0  0  0
 10 11  4  0  0  0  0
 11 12  4  0  0  0  0
 12 13  1  0  0  0  0
 14 15  2  0  0  0  0
 15 16  1  0  0  0  0
 16 17  4  0  0  0  0
 16 23  4  0  0  0  0
 17 18  4  0  0  0  0
 18 19  4  0  0  0  0
 19 20  1  0  0  0  0
 19 22  4  0  0  0  0
 20 21  1  0  0  0  0
 22 23  4  0  0  0  0
M  END
>  <Name_Molregno>
576095

>  <DOPAMINE D1>
6.69

$$$$
576109
  Marvin  02231216192D 0   1.00000     0.00000     0

 20 22  0  0  0  0  0  0  0  0999 V2000
    0.4639    1.9659    0.0000 Cl  0  0  0  0  0  0  0  0  0
    1.1784    1.5534    0.0000 C   0  0  0  0  0  0  0  0  0
    1.8929    1.9659    0.0000 C   0  0  0  0  0  0  0  0  0
    2.6074    1.5534    0.0000 C   0  0  0  0  0  0  0  0  0
    3.2524    2.0678    0.0000 C   0  0  0  0  0  0  0  0  0
    4.0567    1.8842    0.0000 C   0  0  0  0  0  0  0  0  0
    4.4146    1.1409    0.0000 N   0  0  0  0  0  0  0  0  0
    4.0567    0.3976    0.0000 C   0  0  0  0  0  0  0  0  0
    3.2524    0.2140    0.0000 N   0  0  0  0  0  0  0  0  0
    2.6074    0.7284    0.0000 C   0  0  0  0  0  0  0  0  0
    1.8929    0.3159    0.0000 C   0  0  0  0  0  0  0  0  0
    1.1784    0.7284    0.0000 C   0  0  0  0  0  0  0  0  0
    0.4639    0.3159    0.0000 O   0  0  0  0  0  0  0  0  0
    3.0688   -0.5903    0.0000 C   0  0  0  0  0  0  0  0  0
    3.6736   -1.1514    0.0000 C   0  0  0  0  0  0  0  0  0
    3.4900   -1.9558    0.0000 C   0  0  0  0  0  0  0  0  0
    2.7016   -2.1989    0.0000 C   0  0  0  0  0  0  0  0  0
    2.0969   -1.6378    0.0000 C   0  0  0  0  0  0  0  0  0
    2.2804   -0.8335    0.0000 C   0  0  0  0  0  0  0  0  0
    4.5711   -0.2474    0.0000 C   0  0  0  0  0  0  0  0  0
  1  2  1  0  0  0  0
  2  3  4  0  0  0  0
  2 12  4  0  0  0  0
  3  4  4  0  0  0  0
  4  5  1  0  0  0  0
  4 10  4  0  0  0  0
  5  6  1  0  0  0  0
  6  7  1  0  0  0  0
  7  8  2  0  0  0  0
  8  9  1  0  0  0  0
  8 20  1  0  0  0  0
  9 10  1  0  0  0  0
  9 14  1  0  0  0  0
 10 11  4  0  0  0  0
 11 12  4  0  0  0  0
 12 13  1  0  0  0  0
 14 15  4  0  0  0  0
 14 19  4  0  0  0  0
 15 16  4  0  0  0  0
 16 17  4  0  0  0  0
 17 18  4  0  0  0  0
 18 19  4  0  0  0  0
M  END
>  <Name_Molregno>
576109

>  <DOPAMINE D1>
6.7

$$$$
576110
  Marvin  02231216192D 0   1.00000     0.00000     0

 24 27  0  0  1  0  0  0  0  0999 V2000
    1.2766    1.8209    0.0000 Cl  0  0  0  0  0  0  0  0  0
    1.9911    1.4084    0.0000 C   0  0  0  0  0  0  0  0  0
    2.7056    1.8209    0.0000 C   0  0  0  0  0  0  0  0  0
    3.4201    1.4084    0.0000 C   0  0  0  0  0  0  0  0  0
    4.0651    1.9227    0.0000 C   0  0  0  0  0  0  0  0  0
    4.8694    1.7392    0.0000 C   0  0  0  0  0  0  0  0  0
    5.2273    0.9959    0.0000 N   0  0  0  0  0  0  0  0  0
    4.8694    0.2526    0.0000 C   0  0  0  0  0  0  0  0  0
    4.0651    0.0690    0.0000 N   0  0  0  0  0  0  0  0  0
    3.4201    0.5834    0.0000 C   0  0  0  0  0  0  0  0  0
    2.7056    0.1709    0.0000 C   0  0  0  0  0  0  0  0  0
    1.9911    0.5834    0.0000 C   0  0  0  0  0  0  0  0  0
    1.2766    0.1709    0.0000 O   0  0  0  0  0  0  0  0  0
    5.3838   -0.3925    0.0000 C   0  0  0  0  0  0  0  0  0
    6.1517   -0.6939    0.0000 C   0  0  0  0  0  0  0  0  0
    5.5067   -1.2082    0.0000 C   0  0  0  0  0  0  0  0  0
    5.2053   -1.9762    0.0000 C   0  0  0  0  0  0  0  0  0
    5.7197   -2.6212    0.0000 C   0  0  0  0  0  0  0  0  0
    5.4183   -3.3892    0.0000 C   0  0  0  0  0  0  0  0  0
    4.6025   -3.5122    0.0000 C   0  0  0  0  0  0  0  0  0
    4.3011   -4.2801    0.0000 O   0  0  0  0  0  0  0  0  0
    4.8155   -4.9251    0.0000 C   0  0  0  0  0  0  0  0  0
    4.0881   -2.8671    0.0000 C   0  0  0  0  0  0  0  0  0
    4.3895   -2.0992    0.0000 C   0  0  0  0  0  0  0  0  0
  1  2  1  0  0  0  0
  2  3  4  0  0  0  0
  2 12  4  0  0  0  0
  3  4  4  0  0  0  0
  4  5  1  0  0  0  0
  4 10  4  0  0  0  0
  5  6  1  0  0  0  0
  6  7  1  0  0  0  0
  7  8  2  0  0  0  0
  8  9  1  0  0  0  0
  8 14  1  0  0  0  0
  9 10  1  0  0  0  0
 10 11  4  0  0  0  0
 11 12  4  0  0  0  0
 12 13  1  0  0  0  0
 14 15  1  0  0  0  0
 14 16  1  0  0  0  0
 15 16  1  0  0  0  0
 16 17  1  0  0  0  0
 17 18  4  0  0  0  0
 17 24  4  0  0  0  0
 18 19  4  0  0  0  0
 19 20  4  0  0  0  0
 20 21  1  0  0  0  0
 20 23  4  0  0  0  0
 21 22  1  0  0  0  0
 23 24  4  0  0  0  0
M  END
>  <Name_Molregno>
576110

>  <DOPAMINE D1>
6.51

$$$$
576111
  Marvin  02231216192D 0   1.00000     0.00000     0

 16 18  0  0  0  0  0  0  0  0999 V2000
    0.1850    0.9461    0.0000 Cl  0  0  0  0  0  0  0  0  0
    0.8995    0.5336    0.0000 C   0  0  0  0  0  0  0  0  0
    1.6139    0.9461    0.0000 C   0  0  0  0  0  0  0  0  0
    2.3284    0.5336    0.0000 C   0  0  0  0  0  0  0  0  0
    2.9734    1.0479    0.0000 C   0  0  0  0  0  0  0  0  0
    3.7777    0.8644    0.0000 C   0  0  0  0  0  0  0  0  0
    4.1357    0.1211    0.0000 N   0  0  0  0  0  0  0  0  0
    3.7777   -0.6222    0.0000 C   0  0  0  0  0  0  0  0  0
    2.9734   -0.8058    0.0000 N   0  0  0  0  0  0  0  0  0
    2.3284   -0.2914    0.0000 C   0  0  0  0  0  0  0  0  0
    1.6139   -0.7039    0.0000 C   0  0  0  0  0  0  0  0  0
    0.8995   -0.2914    0.0000 C   0  0  0  0  0  0  0  0  0
    0.1850   -0.7039    0.0000 O   0  0  0  0  0  0  0  0  0
    4.2921   -1.2672    0.0000 C   0  0  0  0  0  0  0  0  0
    5.0601   -1.5686    0.0000 C   0  0  0  0  0  0  0  0  0
    4.4151   -2.0830    0.0000 C   0  0  0  0  0  0  0  0  0
  1  2  1  0  0  0  0
  2  3  4  0  0  0  0
  2 12  4  0  0  0  0
  3  4  4  0  0  0  0
  4  5  1  0  0  0  0
  4 10  4  0  0  0  0
  5  6  1  0  0  0  0
  6  7  1  0  0  0  0
  7  8  2  0  0  0  0
  8  9  1  0  0  0  0
  8 14  1  0  0  0  0
  9 10  1  0  0  0  0
 10 11  4  0  0  0  0
 11 12  4  0  0  0  0
 12 13  1  0  0  0  0
 14 15  1  0  0  0  0
 14 16  1  0  0  0  0
 15 16  1  0  0  0  0
M  END
>  <Name_Molregno>
576111

>  <DOPAMINE D1>
5.82

$$$$
576112
  Marvin  02231216192D 0   1.00000     0.00000     0

 14 15  0  0  0  0  0  0  0  0999 V2000
    0.1196    0.6645    0.0000 Cl  0  0  0  0  0  0  0  0  0
    0.8341    0.2520    0.0000 C   0  0  0  0  0  0  0  0  0
    1.5486    0.6645    0.0000 C   0  0  0  0  0  0  0  0  0
    2.2631    0.2520    0.0000 C   0  0  0  0  0  0  0  0  0
    2.9081    0.7664    0.0000 C   0  0  0  0  0  0  0  0  0
    3.7124    0.5828    0.0000 C   0  0  0  0  0  0  0  0  0
    4.0703   -0.1605    0.0000 N   0  0  0  0  0  0  0  0  0
    3.7124   -0.9038    0.0000 C   0  0  0  0  0  0  0  0  0
    2.9081   -1.0873    0.0000 N   0  0  0  0  0  0  0  0  0
    2.2631   -0.5730    0.0000 C   0  0  0  0  0  0  0  0  0
    1.5486   -0.9855    0.0000 C   0  0  0  0  0  0  0  0  0
    0.8341   -0.5730    0.0000 C   0  0  0  0  0  0  0  0  0
    0.1196   -0.9855    0.0000 O   0  0  0  0  0  0  0  0  0
    4.2268   -1.5488    0.0000 N   0  0  0  0  0  0  0  0  0
  1  2  1  0  0  0  0
  2  3  4  0  0  0  0
  2 12  4  0  0  0  0
  3  4  4  0  0  0  0
  4  5  1  0  0  0  0
  4 10  4  0  0  0  0
  5  6  1  0  0  0  0
  6  7  1  0  0  0  0
  7  8  2  0  0  0  0
  8  9  1  0  0  0  0
  8 14  1  0  0  0  0
  9 10  1  0  0  0  0
 10 11  4  0  0  0  0
 11 12  4  0  0  0  0
 12 13  1  0  0  0  0
M  END
>  <Name_Molregno>
576112

>  <DOPAMINE D1>
4.99

$$$$
576113
  Marvin  02231216192D 0   1.00000     0.00000     0

 20 22  0  0  0  0  0  0  0  0999 V2000
    0.7718    1.2508    0.0000 Cl  0  0  0  0  0  0  0  0  0
    1.4863    0.8383    0.0000 C   0  0  0  0  0  0  0  0  0
    2.2008    1.2508    0.0000 C   0  0  0  0  0  0  0  0  0
    2.9152    0.8383    0.0000 C   0  0  0  0  0  0  0  0  0
    3.5602    1.3527    0.0000 C   0  0  0  0  0  0  0  0  0
    4.3646    1.1691    0.0000 C   0  0  0  0  0  0  0  0  0
    4.7225    0.4258    0.0000 N   0  0  0  0  0  0  0  0  0
    4.3646   -0.3175    0.0000 C   0  0  0  0  0  0  0  0  0
    3.5602   -0.5011    0.0000 N   0  0  0  0  0  0  0  0  0
    2.9152    0.0133    0.0000 C   0  0  0  0  0  0  0  0  0
    2.2008   -0.3992    0.0000 C   0  0  0  0  0  0  0  0  0
    1.4863    0.0133    0.0000 C   0  0  0  0  0  0  0  0  0
    0.7718   -0.3992    0.0000 O   0  0  0  0  0  0  0  0  0
    4.8789   -0.9625    0.0000 N   0  0  0  0  0  0  0  0  0
    4.5775   -1.7305    0.0000 C   0  0  0  0  0  0  0  0  0
    5.0919   -2.3755    0.0000 C   0  0  0  0  0  0  0  0  0
    4.7905   -3.1435    0.0000 C   0  0  0  0  0  0  0  0  0
    3.9747   -3.2664    0.0000 C   0  0  0  0  0  0  0  0  0
    3.4603   -2.6214    0.0000 C   0  0  0  0  0  0  0  0  0
    3.7617   -1.8535    0.0000 C   0  0  0  0  0  0  0  0  0
  1  2  1  0  0  0  0
  2  3  4  0  0  0  0
  2 12  4  0  0  0  0
  3  4  4  0  0  0  0
  4  5  1  0  0  0  0
  4 10  4  0  0  0  0
  5  6  1  0  0  0  0
  6  7  1  0  0  0  0
  7  8  2  0  0  0  0
  8  9  1  0  0  0  0
  8 14  1  0  0  0  0
  9 10  1  0  0  0  0
 10 11  4  0  0  0  0
 11 12  4  0  0  0  0
 12 13  1  0  0  0  0
 14 15  1  0  0  0  0
 15 16  1  0  0  0  0
 15 20  1  0  0  0  0
 16 17  1  0  0  0  0
 17 18  1  0  0  0  0
 18 19  1  0  0  0  0
 19 20  1  0  0  0  0
M  END
>  <Name_Molregno>
576113

>  <DOPAMINE D1>
6.89

$$$$
576130
  Marvin  02231216192D 0   1.00000     0.00000     0

 19 21  0  0  0  0  0  0  0  0999 V2000
    0.6529    1.1531    0.0000 Cl  0  0  0  0  0  0  0  0  0
    1.3673    0.7406    0.0000 C   0  0  0  0  0  0  0  0  0
    2.0818    1.1531    0.0000 C   0  0  0  0  0  0  0  0  0
    2.7963    0.7406    0.0000 C   0  0  0  0  0  0  0  0  0
    3.4413    1.2550    0.0000 C   0  0  0  0  0  0  0  0  0
    4.2456    1.0714    0.0000 C   0  0  0  0  0  0  0  0  0
    4.6035    0.3281    0.0000 N   0  0  0  0  0  0  0  0  0
    4.2456   -0.4152    0.0000 C   0  0  0  0  0  0  0  0  0
    3.4413   -0.5987    0.0000 N   0  0  0  0  0  0  0  0  0
    2.7963   -0.0844    0.0000 C   0  0  0  0  0  0  0  0  0
    2.0818   -0.4969    0.0000 C   0  0  0  0  0  0  0  0  0
    1.3673   -0.0844    0.0000 C   0  0  0  0  0  0  0  0  0
    0.6529   -0.4969    0.0000 O   0  0  0  0  0  0  0  0  0
    4.7600   -1.0602    0.0000 N   0  0  0  0  0  0  0  0  0
    4.4586   -1.8281    0.0000 C   0  0  0  0  0  0  0  0  0
    4.9027   -2.5234    0.0000 C   0  0  0  0  0  0  0  0  0
    4.3787   -3.1606    0.0000 C   0  0  0  0  0  0  0  0  0
    3.6108   -2.8592    0.0000 C   0  0  0  0  0  0  0  0  0
    3.6601   -2.0357    0.0000 C   0  0  0  0  0  0  0  0  0
  1  2  1  0  0  0  0
  2  3  4  0  0  0  0
  2 12  4  0  0  0  0
  3  4  4  0  0  0  0
  4  5  1  0  0  0  0
  4 10  4  0  0  0  0
  5  6  1  0  0  0  0
  6  7  1  0  0  0  0
  7  8  2  0  0  0  0
  8  9  1  0  0  0  0
  8 14  1  0  0  0  0
  9 10  1  0  0  0  0
 10 11  4  0  0  0  0
 11 12  4  0  0  0  0
 12 13  1  0  0  0  0
 14 15  1  0  0  0  0
 15 16  1  0  0  0  0
 15 19  1  0  0  0  0
 16 17  1  0  0  0  0
 17 18  1  0  0  0  0
 18 19  1  0  0  0  0
M  END
>  <Name_Molregno>
576130

>  <DOPAMINE D1>
6.41

$$$$
576139
  Marvin  02231216192D 0   1.00000     0.00000     0

 21 23  0  0  0  0  0  0  0  0999 V2000
    1.2228    1.0861    0.0000 Cl  0  0  0  0  0  0  0  0  0
    1.9373    0.6736    0.0000 C   0  0  0  0  0  0  0  0  0
    2.6517    1.0861    0.0000 C   0  0  0  0  0  0  0  0  0
    3.3662    0.6736    0.0000 C   0  0  0  0  0  0  0  0  0
    4.0112    1.1880    0.0000 C   0  0  0  0  0  0  0  0  0
    4.8155    1.0044    0.0000 C   0  0  0  0  0  0  0  0  0
    5.1735    0.2611    0.0000 N   0  0  0  0  0  0  0  0  0
    4.8155   -0.4822    0.0000 C   0  0  0  0  0  0  0  0  0
    4.0112   -0.6657    0.0000 N   0  0  0  0  0  0  0  0  0
    3.3662   -0.1514    0.0000 C   0  0  0  0  0  0  0  0  0
    2.6517   -0.5639    0.0000 C   0  0  0  0  0  0  0  0  0
    1.9373   -0.1514    0.0000 C   0  0  0  0  0  0  0  0  0
    1.2228   -0.5639    0.0000 O   0  0  0  0  0  0  0  0  0
    3.8276   -1.4701    0.0000 C   0  0  0  0  0  0  0  0  0
    3.0393   -1.7132    0.0000 C   0  0  0  0  0  0  0  0  0
    2.8557   -2.5175    0.0000 C   0  0  0  0  0  0  0  0  0
    2.0673   -2.7607    0.0000 C   0  0  0  0  0  0  0  0  0
    1.4626   -2.1996    0.0000 C   0  0  0  0  0  0  0  0  0
    1.6462   -1.3953    0.0000 C   0  0  0  0  0  0  0  0  0
    2.4345   -1.1521    0.0000 C   0  0  0  0  0  0  0  0  0
    5.3299   -1.1272    0.0000 C   0  0  0  0  0  0  0  0  0
  1  2  1  0  0  0  0
  2  3  4  0  0  0  0
  2 12  4  0  0  0  0
  3  4  4  0  0  0  0
  4  5  1  0  0  0  0
  4 10  4  0  0  0  0
  5  6  1  0  0  0  0
  6  7  1  0  0  0  0
  7  8  2  0  0  0  0
  8  9  1  0  0  0  0
  8 21  1  0  0  0  0
  9 10  1  0  0  0  0
  9 14  1  0  0  0  0
 10 11  4  0  0  0  0
 11 12  4  0  0  0  0
 12 13  1  0  0  0  0
 14 15  1  0  0  0  0
 15 16  4  0  0  0  0
 15 20  4  0  0  0  0
 16 17  4  0  0  0  0
 17 18  4  0  0  0  0
 18 19  4  0  0  0  0
 19 20  4  0  0  0  0
M  END
>  <Name_Molregno>
576139

>  <DOPAMINE D1>
6.03

$$$$
576140
  Marvin  02231216192D 0   1.00000     0.00000     0

 22 24  0  0  0  0  0  0  0  0999 V2000
    1.1551    1.7316    0.0000 Cl  0  0  0  0  0  0  0  0  0
    1.8696    1.3191    0.0000 C   0  0  0  0  0  0  0  0  0
    2.5841    1.7316    0.0000 C   0  0  0  0  0  0  0  0  0
    3.2985    1.3191    0.0000 C   0  0  0  0  0  0  0  0  0
    3.9435    1.8334    0.0000 C   0  0  0  0  0  0  0  0  0
    4.7479    1.6499    0.0000 C   0  0  0  0  0  0  0  0  0
    5.1058    0.9066    0.0000 N   0  0  0  0  0  0  0  0  0
    4.7479    0.1633    0.0000 C   0  0  0  0  0  0  0  0  0
    3.9435   -0.0203    0.0000 N   0  0  0  0  0  0  0  0  0
    3.2985    0.4941    0.0000 C   0  0  0  0  0  0  0  0  0
    2.5841    0.0816    0.0000 C   0  0  0  0  0  0  0  0  0
    1.8696    0.4941    0.0000 C   0  0  0  0  0  0  0  0  0
    1.1551    0.0816    0.0000 O   0  0  0  0  0  0  0  0  0
    5.2622   -0.4817    0.0000 N   0  0  0  0  0  0  0  0  0
    4.9608   -1.2497    0.0000 C   0  0  0  0  0  0  0  0  0
    5.4752   -1.8947    0.0000 C   0  0  0  0  0  0  0  0  0
    5.1738   -2.6627    0.0000 C   0  0  0  0  0  0  0  0  0
    5.6882   -3.3077    0.0000 C   0  0  0  0  0  0  0  0  0
    5.3868   -4.0757    0.0000 C   0  0  0  0  0  0  0  0  0
    4.5710   -4.1986    0.0000 C   0  0  0  0  0  0  0  0  0
    4.0566   -3.5536    0.0000 C   0  0  0  0  0  0  0  0  0
    4.3580   -2.7857    0.0000 C   0  0  0  0  0  0  0  0  0
  1  2  1  0  0  0  0
  2  3  4  0  0  0  0
  2 12  4  0  0  0  0
  3  4  4  0  0  0  0
  4  5  1  0  0  0  0
  4 10  4  0  0  0  0
  5  6  1  0  0  0  0
  6  7  1  0  0  0  0
  7  8  2  0  0  0  0
  8  9  1  0  0  0  0
  8 14  1  0  0  0  0
  9 10  1  0  0  0  0
 10 11  4  0  0  0  0
 11 12  4  0  0  0  0
 12 13  1  0  0  0  0
 14 15  1  0  0  0  0
 15 16  1  0  0  0  0
 16 17  1  0  0  0  0
 17 18  4  0  0  0  0
 17 22  4  0  0  0  0
 18 19  4  0  0  0  0
 19 20  4  0  0  0  0
 20 21  4  0  0  0  0
 21 22  4  0  0  0  0
M  END
>  <Name_Molregno>
576140

>  <DOPAMINE D1>
6.33

$$$$
576141
  Marvin  02231216192D 0   1.00000     0.00000     0

 21 23  0  0  0  0  0  0  0  0999 V2000
    0.2966    1.4691    0.0000 Cl  0  0  0  0  0  0  0  0  0
    1.0111    1.0566    0.0000 C   0  0  0  0  0  0  0  0  0
    1.7255    1.4691    0.0000 C   0  0  0  0  0  0  0  0  0
    2.4400    1.0566    0.0000 C   0  0  0  0  0  0  0  0  0
    3.0850    1.5710    0.0000 C   0  0  0  0  0  0  0  0  0
    3.8893    1.3874    0.0000 C   0  0  0  0  0  0  0  0  0
    4.2473    0.6441    0.0000 N   0  0  0  0  0  0  0  0  0
    3.8893   -0.0992    0.0000 C   0  0  0  0  0  0  0  0  0
    4.4037   -0.7442    0.0000 S   0  0  0  0  0  0  0  0  0
    5.2195   -0.6212    0.0000 C   0  0  0  0  0  0  0  0  0
    5.7339   -1.2662    0.0000 C   0  0  0  0  0  0  0  0  0
    6.5497   -1.1433    0.0000 C   0  0  0  0  0  0  0  0  0
    7.0640   -1.7883    0.0000 C   0  0  0  0  0  0  0  0  0
    6.7626   -2.5563    0.0000 C   0  0  0  0  0  0  0  0  0
    5.9469   -2.6792    0.0000 C   0  0  0  0  0  0  0  0  0
    5.4325   -2.0342    0.0000 C   0  0  0  0  0  0  0  0  0
    3.0850   -0.2828    0.0000 N   0  0  0  0  0  0  0  0  0
    2.4400    0.2316    0.0000 C   0  0  0  0  0  0  0  0  0
    1.7255   -0.1809    0.0000 C   0  0  0  0  0  0  0  0  0
    1.0111    0.2316    0.0000 C   0  0  0  0  0  0  0  0  0
    0.2966   -0.1809    0.0000 O   0  0  0  0  0  0  0  0  0
  1  2  1  0  0  0  0
  2  3  4  0  0  0  0
  2 20  4  0  0  0  0
  3  4  4  0  0  0  0
  4  5  1  0  0  0  0
  4 18  4  0  0  0  0
  5  6  1  0  0  0  0
  6  7  1  0  0  0  0
  7  8  2  0  0  0  0
  8  9  1  0  0  0  0
  8 17  1  0  0  0  0
  9 10  1  0  0  0  0
 10 11  1  0  0  0  0
 11 12  4  0  0  0  0
 11 16  4  0  0  0  0
 12 13  4  0  0  0  0
 13 14  4  0  0  0  0
 14 15  4  0  0  0  0
 15 16  4  0  0  0  0
 17 18  1  0  0  0  0
 18 19  4  0  0  0  0
 19 20  4  0  0  0  0
 20 21  1  0  0  0  0
M  END
>  <Name_Molregno>
576141

>  <DOPAMINE D1>
6.35

$$$$
576160
  Marvin  02231216192D 0   1.00000     0.00000     0

 19 21  0  0  0  0  0  0  0  0999 V2000
    0.4048    1.7473    0.0000 Cl  0  0  0  0  0  0  0  0  0
    1.1193    1.3348    0.0000 C   0  0  0  0  0  0  0  0  0
    1.8337    1.7473    0.0000 C   0  0  0  0  0  0  0  0  0
    2.5482    1.3348    0.0000 C   0  0  0  0  0  0  0  0  0
    3.1932    1.8492    0.0000 C   0  0  0  0  0  0  0  0  0
    3.9975    1.6656    0.0000 C   0  0  0  0  0  0  0  0  0
    4.3555    0.9223    0.0000 N   0  0  0  0  0  0  0  0  0
    3.9975    0.1790    0.0000 C   0  0  0  0  0  0  0  0  0
    3.1932   -0.0046    0.0000 N   0  0  0  0  0  0  0  0  0
    2.5482    0.5098    0.0000 C   0  0  0  0  0  0  0  0  0
    1.8337    0.0973    0.0000 C   0  0  0  0  0  0  0  0  0
    1.1193    0.5098    0.0000 C   0  0  0  0  0  0  0  0  0
    0.4048    0.0973    0.0000 O   0  0  0  0  0  0  0  0  0
    3.0096   -0.8089    0.0000 C   0  0  0  0  0  0  0  0  0
    3.5524   -1.4302    0.0000 C   0  0  0  0  0  0  0  0  0
    3.1293   -2.1384    0.0000 C   0  0  0  0  0  0  0  0  0
    2.3250   -1.9548    0.0000 S   0  0  0  0  0  0  0  0  0
    2.2510   -1.1332    0.0000 C   0  0  0  0  0  0  0  0  0
    4.5119   -0.4660    0.0000 C   0  0  0  0  0  0  0  0  0
  1  2  1  0  0  0  0
  2  3  4  0  0  0  0
  2 12  4  0  0  0  0
  3  4  4  0  0  0  0
  4  5  1  0  0  0  0
  4 10  4  0  0  0  0
  5  6  1  0  0  0  0
  6  7  1  0  0  0  0
  7  8  2  0  0  0  0
  8  9  1  0  0  0  0
  8 19  1  0  0  0  0
  9 10  1  0  0  0  0
  9 14  1  0  0  0  0
 10 11  4  0  0  0  0
 11 12  4  0  0  0  0
 12 13  1  0  0  0  0
 14 15  4  0  0  0  0
 14 18  4  0  0  0  0
 15 16  4  0  0  0  0
 16 17  4  0  0  0  0
 17 18  4  0  0  0  0
M  END
>  <Name_Molregno>
576160

>  <DOPAMINE D1>
7.06

$$$$
576161
  Marvin  02231216192D 0   1.00000     0.00000     0

 17 19  0  0  0  0  0  0  0  0999 V2000
    0.4387    1.0270    0.0000 Cl  0  0  0  0  0  0  0  0  0
    1.1532    0.6145    0.0000 C   0  0  0  0  0  0  0  0  0
    1.8677    1.0270    0.0000 C   0  0  0  0  0  0  0  0  0
    2.5821    0.6145    0.0000 C   0  0  0  0  0  0  0  0  0
    3.2271    1.1288    0.0000 C   0  0  0  0  0  0  0  0  0
    4.0315    0.9453    0.0000 C   0  0  0  0  0  0  0  0  0
    4.3894    0.2020    0.0000 N   0  0  0  0  0  0  0  0  0
    4.0315   -0.5413    0.0000 C   0  0  0  0  0  0  0  0  0
    3.2271   -0.7249    0.0000 N   0  0  0  0  0  0  0  0  0
    2.5821   -0.2105    0.0000 C   0  0  0  0  0  0  0  0  0
    1.8677   -0.6230    0.0000 C   0  0  0  0  0  0  0  0  0
    1.1532   -0.2105    0.0000 C   0  0  0  0  0  0  0  0  0
    0.4387   -0.6230    0.0000 O   0  0  0  0  0  0  0  0  0
    4.5458   -1.1864    0.0000 N   0  0  0  0  0  0  0  0  0
    4.2444   -1.9543    0.0000 C   0  0  0  0  0  0  0  0  0
    4.3674   -2.7701    0.0000 C   0  0  0  0  0  0  0  0  0
    3.5994   -2.4687    0.0000 C   0  0  0  0  0  0  0  0  0
  1  2  1  0  0  0  0
  2  3  4  0  0  0  0
  2 12  4  0  0  0  0
  3  4  4  0  0  0  0
  4  5  1  0  0  0  0
  4 10  4  0  0  0  0
  5  6  1  0  0  0  0
  6  7  1  0  0  0  0
  7  8  2  0  0  0  0
  8  9  1  0  0  0  0
  8 14  1  0  0  0  0
  9 10  1  0  0  0  0
 10 11  4  0  0  0  0
 11 12  4  0  0  0  0
 12 13  1  0  0  0  0
 14 15  1  0  0  0  0
 15 16  1  0  0  0  0
 15 17  1  0  0  0  0
 16 17  1  0  0  0  0
M  END
>  <Name_Molregno>
576161

>  <DOPAMINE D1>
6.24

$$$$
576162
  Marvin  02231216192D 0   1.00000     0.00000     0

 15 16  0  0  0  0  0  0  0  0999 V2000
    0.1310    0.7431    0.0000 Cl  0  0  0  0  0  0  0  0  0
    0.8455    0.3306    0.0000 C   0  0  0  0  0  0  0  0  0
    1.5599    0.7431    0.0000 C   0  0  0  0  0  0  0  0  0
    2.2744    0.3306    0.0000 C   0  0  0  0  0  0  0  0  0
    2.9194    0.8450    0.0000 C   0  0  0  0  0  0  0  0  0
    3.7237    0.6614    0.0000 C   0  0  0  0  0  0  0  0  0
    4.0817   -0.0819    0.0000 N   0  0  0  0  0  0  0  0  0
    3.7237   -0.8252    0.0000 C   0  0  0  0  0  0  0  0  0
    2.9194   -1.0088    0.0000 N   0  0  0  0  0  0  0  0  0
    2.2744   -0.4944    0.0000 C   0  0  0  0  0  0  0  0  0
    1.5599   -0.9069    0.0000 C   0  0  0  0  0  0  0  0  0
    0.8455   -0.4944    0.0000 C   0  0  0  0  0  0  0  0  0
    0.1310   -0.9069    0.0000 O   0  0  0  0  0  0  0  0  0
    4.2381   -1.4702    0.0000 N   0  0  0  0  0  0  0  0  0
    5.0539   -1.3472    0.0000 C   0  0  0  0  0  0  0  0  0
  1  2  1  0  0  0  0
  2  3  4  0  0  0  0
  2 12  4  0  0  0  0
  3  4  4  0  0  0  0
  4  5  1  0  0  0  0
  4 10  4  0  0  0  0
  5  6  1  0  0  0  0
  6  7  1  0  0  0  0
  7  8  2  0  0  0  0
  8  9  1  0  0  0  0
  8 14  1  0  0  0  0
  9 10  1  0  0  0  0
 10 11  4  0  0  0  0
 11 12  4  0  0  0  0
 12 13  1  0  0  0  0
 14 15  1  0  0  0  0
M  END
>  <Name_Molregno>
576162

>  <DOPAMINE D1>
6.11

$$$$
576173
  Marvin  02231216192D 0   1.00000     0.00000     0

 21 23  0  0  0  0  0  0  0  0999 V2000
   -0.4203   -0.3164    0.0000 Cl  0  0  0  0  0  0  0  0  0
    0.2942   -0.7289    0.0000 C   0  0  0  0  0  0  0  0  0
    1.0087   -0.3164    0.0000 C   0  0  0  0  0  0  0  0  0
    1.7231   -0.7289    0.0000 C   0  0  0  0  0  0  0  0  0
    2.3681   -0.2145    0.0000 C   0  0  0  0  0  0  0  0  0
    3.1725   -0.3981    0.0000 C   0  0  0  0  0  0  0  0  0
    3.5304   -1.1414    0.0000 N   0  0  0  0  0  0  0  0  0
    3.1725   -1.8847    0.0000 C   0  0  0  0  0  0  0  0  0
    2.3681   -2.0682    0.0000 N   0  0  0  0  0  0  0  0  0
    1.7231   -1.5539    0.0000 C   0  0  0  0  0  0  0  0  0
    1.0087   -1.9664    0.0000 C   0  0  0  0  0  0  0  0  0
    0.2942   -1.5539    0.0000 C   0  0  0  0  0  0  0  0  0
   -0.4203   -1.9664    0.0000 O   0  0  0  0  0  0  0  0  0
    2.1846   -2.8725    0.0000 C   0  0  0  0  0  0  0  0  0
    2.7893   -3.4337    0.0000 C   0  0  0  0  0  0  0  0  0
    2.6058   -4.2380    0.0000 C   0  0  0  0  0  0  0  0  0
    1.8174   -4.4812    0.0000 C   0  0  0  0  0  0  0  0  0
    1.2126   -3.9200    0.0000 C   0  0  0  0  0  0  0  0  0
    1.3962   -3.1157    0.0000 C   0  0  0  0  0  0  0  0  0
    1.6338   -5.2855    0.0000 C   0  0  0  0  0  0  0  0  0
    3.6868   -2.5297    0.0000 C   0  0  0  0  0  0  0  0  0
  1  2  1  0  0  0  0
  2  3  4  0  0  0  0
  2 12  4  0  0  0  0
  3  4  4  0  0  0  0
  4  5  1  0  0  0  0
  4 10  4  0  0  0  0
  5  6  1  0  0  0  0
  6  7  1  0  0  0  0
  7  8  2  0  0  0  0
  8  9  1  0  0  0  0
  8 21  1  0  0  0  0
  9 10  1  0  0  0  0
  9 14  1  0  0  0  0
 10 11  4  0  0  0  0
 11 12  4  0  0  0  0
 12 13  1  0  0  0  0
 14 15  4  0  0  0  0
 14 19  4  0  0  0  0
 15 16  4  0  0  0  0
 16 17  4  0  0  0  0
 17 18  4  0  0  0  0
 17 20  1  0  0  0  0
 18 19  4  0  0  0  0
M  END
>  <Name_Molregno>
576173

>  <DOPAMINE D1>
6.74

$$$$
576174
  Marvin  02231216192D 0   1.00000     0.00000     0

 21 23  0  0  0  0  0  0  0  0999 V2000
    0.6070    2.0367    0.0000 Cl  0  0  0  0  0  0  0  0  0
    1.3215    1.6242    0.0000 C   0  0  0  0  0  0  0  0  0
    2.0360    2.0367    0.0000 C   0  0  0  0  0  0  0  0  0
    2.7504    1.6242    0.0000 C   0  0  0  0  0  0  0  0  0
    3.3955    2.1385    0.0000 C   0  0  0  0  0  0  0  0  0
    4.1998    1.9550    0.0000 C   0  0  0  0  0  0  0  0  0
    4.5577    1.2117    0.0000 N   0  0  0  0  0  0  0  0  0
    4.1998    0.4684    0.0000 C   0  0  0  0  0  0  0  0  0
    3.3955    0.2848    0.0000 N   0  0  0  0  0  0  0  0  0
    2.7504    0.7992    0.0000 C   0  0  0  0  0  0  0  0  0
    2.0360    0.3867    0.0000 C   0  0  0  0  0  0  0  0  0
    1.3215    0.7992    0.0000 C   0  0  0  0  0  0  0  0  0
    0.6070    0.3867    0.0000 O   0  0  0  0  0  0  0  0  0
    3.2119   -0.5195    0.0000 C   0  0  0  0  0  0  0  0  0
    3.8166   -1.0807    0.0000 C   0  0  0  0  0  0  0  0  0
    3.6331   -1.8850    0.0000 C   0  0  0  0  0  0  0  0  0
    2.8447   -2.1282    0.0000 C   0  0  0  0  0  0  0  0  0
    2.2399   -1.5670    0.0000 C   0  0  0  0  0  0  0  0  0
    2.4235   -0.7627    0.0000 C   0  0  0  0  0  0  0  0  0
    1.8188   -0.2016    0.0000 C   0  0  0  0  0  0  0  0  0
    4.7141   -0.1766    0.0000 C   0  0  0  0  0  0  0  0  0
  1  2  1  0  0  0  0
  2  3  4  0  0  0  0
  2 12  4  0  0  0  0
  3  4  4  0  0  0  0
  4  5  1  0  0  0  0
  4 10  4  0  0  0  0
  5  6  1  0  0  0  0
  6  7  1  0  0  0  0
  7  8  2  0  0  0  0
  8  9  1  0  0  0  0
  8 21  1  0  0  0  0
  9 10  1  0  0  0  0
  9 14  1  0  0  0  0
 10 11  4  0  0  0  0
 11 12  4  0  0  0  0
 12 13  1  0  0  0  0
 14 15  4  0  0  0  0
 14 19  4  0  0  0  0
 15 16  4  0  0  0  0
 16 17  4  0  0  0  0
 17 18  4  0  0  0  0
 18 19  4  0  0  0  0
 19 20  1  0  0  0  0
M  END
>  <Name_Molregno>
576174

>  <DOPAMINE D1>
6.49

$$$$
576175
  Marvin  02231216192D 0   1.00000     0.00000     0

 15 16  0  0  0  0  0  0  0  0999 V2000
    0.1310    0.7431    0.0000 Cl  0  0  0  0  0  0  0  0  0
    0.8455    0.3306    0.0000 C   0  0  0  0  0  0  0  0  0
    1.5599    0.7431    0.0000 C   0  0  0  0  0  0  0  0  0
    2.2744    0.3306    0.0000 C   0  0  0  0  0  0  0  0  0
    2.9194    0.8450    0.0000 C   0  0  0  0  0  0  0  0  0
    3.7237    0.6614    0.0000 C   0  0  0  0  0  0  0  0  0
    4.0817   -0.0819    0.0000 N   0  0  0  0  0  0  0  0  0
    3.7237   -0.8252    0.0000 C   0  0  0  0  0  0  0  0  0
    4.2381   -1.4702    0.0000 S   0  0  0  0  0  0  0  0  0
    5.0539   -1.3472    0.0000 C   0  0  0  0  0  0  0  0  0
    2.9194   -1.0088    0.0000 N   0  0  0  0  0  0  0  0  0
    2.2744   -0.4944    0.0000 C   0  0  0  0  0  0  0  0  0
    1.5599   -0.9069    0.0000 C   0  0  0  0  0  0  0  0  0
    0.8455   -0.4944    0.0000 C   0  0  0  0  0  0  0  0  0
    0.1310   -0.9069    0.0000 O   0  0  0  0  0  0  0  0  0
  1  2  1  0  0  0  0
  2  3  4  0  0  0  0
  2 14  4  0  0  0  0
  3  4  4  0  0  0  0
  4  5  1  0  0  0  0
  4 12  4  0  0  0  0
  5  6  1  0  0  0  0
  6  7  1  0  0  0  0
  7  8  2  0  0  0  0
  8  9  1  0  0  0  0
  8 11  1  0  0  0  0
  9 10  1  0  0  0  0
 11 12  1  0  0  0  0
 12 13  4  0  0  0  0
 13 14  4  0  0  0  0
 14 15  1  0  0  0  0
M  END
>  <Name_Molregno>
576175

>  <DOPAMINE D1>
6.05

$$$$
576207
  Marvin  02231216192D 0   1.00000     0.00000     0

 30 33  0  0  0  0  0  0  0  0999 V2000
    0.5851    2.5914    0.0000 Cl  0  0  0  0  0  0  0  0  0
    1.2995    2.1789    0.0000 C   0  0  0  0  0  0  0  0  0
    2.0140    2.5914    0.0000 C   0  0  0  0  0  0  0  0  0
    2.7285    2.1789    0.0000 C   0  0  0  0  0  0  0  0  0
    3.3735    2.6932    0.0000 C   0  0  0  0  0  0  0  0  0
    4.1778    2.5096    0.0000 C   0  0  0  0  0  0  0  0  0
    4.5357    1.7664    0.0000 N   0  0  0  0  0  0  0  0  0
    4.1778    1.0231    0.0000 C   0  0  0  0  0  0  0  0  0
    3.3735    0.8395    0.0000 N   0  0  0  0  0  0  0  0  0
    2.7285    1.3539    0.0000 C   0  0  0  0  0  0  0  0  0
    2.0140    0.9414    0.0000 C   0  0  0  0  0  0  0  0  0
    1.2995    1.3539    0.0000 C   0  0  0  0  0  0  0  0  0
    0.5851    0.9414    0.0000 O   0  0  0  0  0  0  0  0  0
    3.1899    0.0352    0.0000 C   0  0  0  0  0  0  0  0  0
    3.7947   -0.5260    0.0000 C   0  0  0  0  0  0  0  0  0
    3.6111   -1.3303    0.0000 C   0  0  0  0  0  0  0  0  0
    2.8227   -1.5735    0.0000 C   0  0  0  0  0  0  0  0  0
    2.2180   -1.0123    0.0000 C   0  0  0  0  0  0  0  0  0
    2.4015   -0.2080    0.0000 C   0  0  0  0  0  0  0  0  0
    4.6922    0.3780    0.0000 C   0  0  0  0  0  0  0  0  0
    5.5080    0.5010    0.0000 C   0  0  0  0  0  0  0  0  0
    6.0223   -0.1440    0.0000 C   0  0  0  0  0  0  0  0  0
    6.8381   -0.0211    0.0000 C   0  0  0  0  0  0  0  0  0
    7.3525   -0.6661    0.0000 C   0  0  0  0  0  0  0  0  0
    7.0511   -1.4340    0.0000 C   0  0  0  0  0  0  0  0  0
    7.5655   -2.0790    0.0000 N   0  0  0  0  0  0  0  0  0
    8.3813   -1.9561    0.0000 C   0  0  0  0  0  0  0  0  0
    7.2641   -2.8470    0.0000 C   0  0  0  0  0  0  0  0  0
    6.2353   -1.5570    0.0000 C   0  0  0  0  0  0  0  0  0
    5.7209   -0.9120    0.0000 C   0  0  0  0  0  0  0  0  0
  1  2  1  0  0  0  0
  2  3  4  0  0  0  0
  2 12  4  0  0  0  0
  3  4  4  0  0  0  0
  4  5  1  0  0  0  0
  4 10  4  0  0  0  0
  5  6  1  0  0  0  0
  6  7  1  0  0  0  0
  7  8  2  0  0  0  0
  8  9  1  0  0  0  0
  8 20  1  0  0  0  0
  9 10  1  0  0  0  0
  9 14  1  0  0  0  0
 10 11  4  0  0  0  0
 11 12  4  0  0  0  0
 12 13  1  0  0  0  0
 14 15  1  0  0  0  0
 14 19  1  0  0  0  0
 15 16  1  0  0  0  0
 16 17  1  0  0  0  0
 17 18  1  0  0  0  0
 18 19  1  0  0  0  0
 20 21  2  0  0  0  0
 21 22  1  0  0  0  0
 22 23  4  0  0  0  0
 22 30  4  0  0  0  0
 23 24  4  0  0  0  0
 24 25  4  0  0  0  0
 25 26  1  0  0  0  0
 25 29  4  0  0  0  0
 26 27  1  0  0  0  0
 26 28  1  0  0  0  0
 29 30  4  0  0  0  0
M  END
>  <Name_Molregno>
576207

>  <DOPAMINE D1>
6.62

$$$$
591110
  Marvin  02231216192D 0   1.00000     0.00000     0

 27 31  0  0  1  0  0  0  0  0999 V2000
    0.4188    1.2437    0.0000 O   0  0  0  0  0  0  0  0  0
   -0.3658    0.9887    0.0000 C   0  0  0  0  0  0  0  0  0
   -0.3658    0.1637    0.0000 C   0  0  0  0  0  0  0  0  0
    0.4188   -0.0912    0.0000 O   0  0  0  0  0  0  0  0  0
    0.9037    0.5762    0.0000 C   0  0  0  0  0  0  0  0  0
   -1.0803   -0.2488    0.0000 C   0  0  0  0  0  0  0  0  0
   -1.7947    0.1637    0.0000 C   0  0  0  0  0  0  0  0  0
   -2.5092   -0.2488    0.0000 C   0  0  0  0  0  0  0  0  0
   -3.2237    0.1637    0.0000 C   0  0  0  0  0  0  0  0  0
   -3.9382   -0.2488    0.0000 N   0  0  0  0  0  0  0  0  0
   -4.6526    0.1637    0.0000 C   0  0  0  0  0  0  0  0  0
   -4.6526    0.9887    0.0000 C   0  0  0  0  0  0  0  0  0
   -3.9382    1.4012    0.0000 C   0  0  0  0  0  0  0  0  0
   -3.9382    2.2262    0.0000 C   0  0  0  0  0  0  0  0  0
   -3.2237    2.6387    0.0000 C   0  0  0  0  0  0  0  0  0
   -3.2237    3.4637    0.0000 C   0  0  0  0  0  0  0  0  0
   -3.9382    3.8762    0.0000 O   0  0  0  0  0  0  0  0  0
   -2.5092    3.8762    0.0000 C   0  0  0  0  0  0  0  0  0
   -2.5092    2.2262    0.0000 C   0  0  0  0  0  0  0  0  0
   -2.5092    1.4012    0.0000 C   0  0  0  0  0  0  0  0  0
   -3.2237    0.9887    0.0000 C   0  0  0  0  0  0  0  0  0
   -1.7947    0.9887    0.0000 C   0  0  0  0  0  0  0  0  0
   -1.0803    1.4012    0.0000 C   0  0  0  0  0  0  0  0  0
   -1.7947    2.6387    0.0000 C   0  0  0  0  0  0  0  0  0
   -1.0803    2.2262    0.0000 O   0  0  0  0  0  0  0  0  0
   -1.7947    3.4637    0.0000 C   0  0  0  0  0  0  0  0  0
   -3.9382   -1.0738    0.0000 C   0  0  0  0  0  0  0  0  0
  1  2  1  0  0  0  0
  1  5  1  0  0  0  0
  2  3  4  0  0  0  0
  2 23  4  0  0  0  0
  3  4  1  0  0  0  0
  3  6  4  0  0  0  0
  4  5  1  0  0  0  0
  6  7  4  0  0  0  0
  7  8  1  0  0  0  0
  7 22  4  0  0  0  0
  8  9  1  0  0  0  0
  9 10  1  0  0  0  0
  9 21  1  0  0  0  0
 10 11  1  0  0  0  0
 10 27  1  0  0  0  0
 11 12  1  0  0  0  0
 12 13  1  0  0  0  0
 13 14  4  0  0  0  0
 13 21  4  0  0  0  0
 14 15  4  0  0  0  0
 15 16  1  0  0  0  0
 15 19  4  0  0  0  0
 16 17  2  0  0  0  0
 16 18  1  0  0  0  0
 19 20  4  0  0  0  0
 19 24  1  0  0  0  0
 20 21  4  0  0  0  0
 20 22  1  0  0  0  0
 22 23  4  0  0  0  0
 24 25  2  0  0  0  0
 24 26  1  0  0  0  0
M  END
>  <Name_Molregno>
591110

>  <5-HT1B>
7

>  <5-HT1D>
7.31

>  <5-HT1E>
5

>  <5-HT2A>
6.08

>  <5-HT2C>
5.97

>  <5-HT3>
5

>  <5-HT5>
5.65

>  <5-HT6>
6.59

>  <5-HT7>
7.17

>  <Alpha-1A>
8.7

>  <Alpha-1B>
5.92

>  <Alpha-2A>
5.89

>  <Alpha-2B>
6.6

>  <Alpha-2C>
6.74

>  <Beta-1>
5.07

>  <Beta-2>
5

>  <DOPAMINE D1>
6.05

>  <DOPAMINE D2>
6.07

>  <DOPAMINE D3>
6.51

>  <DOPAMINE D4>
6.58

>  <DOPAMINE D5>
5.62

>  <Dopamine transporter>
5

>  <HISTAMINE H1>
5

>  <HISTAMINE H2>
6.17

>  <HISTAMINE H3>
5

>  <HISTAMINE H4>
5

>  <Muscarinic acetylcholine receptor M1>
5

>  <Muscarinic acetylcholine receptor M2>
5

>  <Muscarinic acetylcholine receptor M3>
5

>  <Muscarinic acetylcholine receptor M4>
5

>  <Norepinephrine transporter>
5

>  <Serotonin transporter>
6.61

$$$$
594329
  Marvin  02231216192D 0   1.00000     0.00000     0

 22 25  0  0  0  0  0  0  0  0999 V2000
    4.9785    1.6165    0.0000 O   0  0  0  0  0  0  0  0  0
    4.1539    1.5897    0.0000 C   0  0  0  0  0  0  0  0  0
    3.8736    2.3656    0.0000 C   0  0  0  0  0  0  0  0  0
    4.5249    2.8720    0.0000 O   0  0  0  0  0  0  0  0  0
    5.2078    2.4090    0.0000 C   0  0  0  0  0  0  0  0  0
    3.0615    2.5108    0.0000 C   0  0  0  0  0  0  0  0  0
    2.5297    1.8801    0.0000 C   0  0  0  0  0  0  0  0  0
    2.8100    1.1042    0.0000 C   0  0  0  0  0  0  0  0  0
    2.2781    0.4735    0.0000 C   0  0  0  0  0  0  0  0  0
    2.5584   -0.3024    0.0000 C   0  0  0  0  0  0  0  0  0
    2.0266   -0.9331    0.0000 C   0  0  0  0  0  0  0  0  0
    1.2145   -0.7879    0.0000 N   0  0  0  0  0  0  0  0  0
    0.9342   -0.0120    0.0000 C   0  0  0  0  0  0  0  0  0
    1.4660    0.6187    0.0000 C   0  0  0  0  0  0  0  0  0
    1.1857    1.3946    0.0000 C   0  0  0  0  0  0  0  0  0
    1.7176    2.0254    0.0000 C   0  0  0  0  0  0  0  0  0
    1.4373    2.8013    0.0000 C   0  0  0  0  0  0  0  0  0
    0.6251    2.9465    0.0000 C   0  0  0  0  0  0  0  0  0
    0.0933    2.3158    0.0000 C   0  0  0  0  0  0  0  0  0
    0.3736    1.5399    0.0000 C   0  0  0  0  0  0  0  0  0
    0.6827   -1.4186    0.0000 C   0  0  0  0  0  0  0  0  0
    3.6221    0.9590    0.0000 C   0  0  0  0  0  0  0  0  0
  1  2  1  0  0  0  0
  1  5  1  0  0  0  0
  2  3  4  0  0  0  0
  2 22  4  0  0  0  0
  3  4  1  0  0  0  0
  3  6  4  0  0  0  0
  4  5  1  0  0  0  0
  6  7  4  0  0  0  0
  7  8  4  0  0  0  0
  7 16  1  0  0  0  0
  8  9  1  0  0  0  0
  8 22  4  0  0  0  0
  9 10  1  0  0  0  0
 10 11  1  0  0  0  0
 11 12  1  0  0  0  0
 12 13  1  0  0  0  0
 12 21  1  0  0  0  0
 13 14  1  0  0  0  0
 14 15  1  0  0  0  0
 15 16  4  0  0  0  0
 15 20  4  0  0  0  0
 16 17  4  0  0  0  0
 17 18  4  0  0  0  0
 18 19  4  0  0  0  0
 19 20  4  0  0  0  0
M  END
>  <Name_Molregno>
594329

>  <DOPAMINE D1>
5.16

>  <DOPAMINE D2>
5

>  <DOPAMINE D3>
5

>  <DOPAMINE D4>
5

>  <DOPAMINE D5>
5.37

$$$$
594340
  Marvin  02231216192D 0   1.00000     0.00000     0

 20 22  0  0  1  0  0  0  0  0999 V2000
    0.4365   -1.6699    0.0000 O   0  0  0  0  0  0  0  0  0
    1.1510   -1.2574    0.0000 C   0  0  0  0  0  0  0  0  0
    1.8655   -1.6699    0.0000 C   0  0  0  0  0  0  0  0  0
    2.5799   -1.2574    0.0000 C   0  0  0  0  0  0  0  0  0
    2.5799   -0.4324    0.0000 C   0  0  0  0  0  0  0  0  0
    1.8655   -0.0199    0.0000 C   0  0  0  0  0  0  0  0  0
    1.1510   -0.4324    0.0000 C   0  0  0  0  0  0  0  0  0
    3.2944   -0.0199    0.0000 C   0  0  0  0  0  0  0  0  0
    4.0089   -0.4324    0.0000 N   0  0  0  0  0  0  0  0  0
    4.0089   -1.2574    0.0000 C   0  0  0  0  0  0  0  0  0
    3.2944   -1.6699    0.0000 C   0  0  0  0  0  0  0  0  0
    4.7233   -0.0199    0.0000 C   0  0  0  0  0  0  0  0  0
    3.2944    0.8051    0.0000 C   0  0  0  0  0  0  0  0  0
    4.0089    1.2176    0.0000 C   0  0  0  0  0  0  0  0  0
    4.7233    0.8051    0.0000 C   0  0  0  0  0  0  0  0  0
    5.4378    1.2176    0.0000 C   0  0  0  0  0  0  0  0  0
    5.4378    2.0426    0.0000 C   0  0  0  0  0  0  0  0  0
    4.7233    2.4551    0.0000 C   0  0  0  0  0  0  0  0  0
    4.0089    2.0426    0.0000 C   0  0  0  0  0  0  0  0  0
    3.2944    2.4551    0.0000 C   0  0  0  0  0  0  0  0  0
  1  2  1  0  0  0  0
  2  3  4  0  0  0  0
  2  7  4  0  0  0  0
  3  4  4  0  0  0  0
  4  5  4  0  0  0  0
  4 11  1  0  0  0  0
  5  6  4  0  0  0  0
  5  8  1  0  0  0  0
  6  7  4  0  0  0  0
  8  9  1  0  0  0  0
  8 13  1  0  0  0  0
  9 10  1  0  0  0  0
  9 12  1  0  0  0  0
 10 11  1  0  0  0  0
 13 14  1  0  0  0  0
 14 15  4  0  0  0  0
 14 19  4  0  0  0  0
 15 16  4  0  0  0  0
 16 17  4  0  0  0  0
 17 18  4  0  0  0  0
 18 19  4  0  0  0  0
 19 20  1  0  0  0  0
M  END
>  <Name_Molregno>
594340

>  <DOPAMINE D1>
5.52

>  <DOPAMINE D2>
5.56

>  <DOPAMINE D3>
5

>  <DOPAMINE D4>
5

>  <DOPAMINE D5>
5

$$$$
594341
  Marvin  02231216192D 0   1.00000     0.00000     0

 21 23  0  0  1  0  0  0  0  0999 V2000
    0.1787    1.6422    0.0000 O   0  0  0  0  0  0  0  0  0
   -0.5358    1.2297    0.0000 C   0  0  0  0  0  0  0  0  0
    0.8932    1.2297    0.0000 C   0  0  0  0  0  0  0  0  0
    1.6077    1.6422    0.0000 C   0  0  0  0  0  0  0  0  0
    2.3221    1.2297    0.0000 C   0  0  0  0  0  0  0  0  0
    3.0366    1.6422    0.0000 C   0  0  0  0  0  0  0  0  0
    3.7511    1.2297    0.0000 C   0  0  0  0  0  0  0  0  0
    2.3221    0.4047    0.0000 C   0  0  0  0  0  0  0  0  0
    1.6077   -0.0078    0.0000 C   0  0  0  0  0  0  0  0  0
    0.8932    0.4047    0.0000 C   0  0  0  0  0  0  0  0  0
    3.0366   -0.0078    0.0000 C   0  0  0  0  0  0  0  0  0
    3.0366   -0.8328    0.0000 N   0  0  0  0  0  0  0  0  0
    3.7511   -1.2453    0.0000 C   0  0  0  0  0  0  0  0  0
    4.4655   -0.8328    0.0000 C   0  0  0  0  0  0  0  0  0
    4.4655   -0.0078    0.0000 C   0  0  0  0  0  0  0  0  0
    3.7511    0.4047    0.0000 C   0  0  0  0  0  0  0  0  0
    5.1800    0.4047    0.0000 C   0  0  0  0  0  0  0  0  0
    5.8945   -0.0078    0.0000 C   0  0  0  0  0  0  0  0  0
    5.8945   -0.8328    0.0000 C   0  0  0  0  0  0  0  0  0
    5.1800   -1.2453    0.0000 C   0  0  0  0  0  0  0  0  0
    2.3221   -1.2453    0.0000 C   0  0  0  0  0  0  0  0  0
  1  2  1  0  0  0  0
  1  3  1  0  0  0  0
  3  4  4  0  0  0  0
  3 10  4  0  0  0  0
  4  5  4  0  0  0  0
  5  6  1  0  0  0  0
  5  8  4  0  0  0  0
  6  7  1  0  0  0  0
  8  9  4  0  0  0  0
  8 11  1  0  0  0  0
  9 10  4  0  0  0  0
 11 12  1  0  0  0  0
 11 16  1  0  0  0  0
 12 13  1  0  0  0  0
 12 21  1  0  0  0  0
 13 14  1  0  0  0  0
 14 15  4  0  0  0  0
 14 20  4  0  0  0  0
 15 16  1  0  0  0  0
 15 17  4  0  0  0  0
 17 18  4  0  0  0  0
 18 19  4  0  0  0  0
 19 20  4  0  0  0  0
M  END
>  <Name_Molregno>
594341

>  <DOPAMINE D1>
5

>  <DOPAMINE D2>
5

>  <DOPAMINE D3>
5

>  <DOPAMINE D4>
5

>  <DOPAMINE D5>
5

$$$$
594386
  Marvin  02231216192D 0   1.00000     0.00000     0

 19 22  0  0  1  0  0  0  0  0999 V2000
   -0.0338   -0.6455    0.0000 O   0  0  0  0  0  0  0  0  0
    0.7764   -0.4896    0.0000 C   0  0  0  0  0  0  0  0  0
    1.0464    0.2899    0.0000 C   0  0  0  0  0  0  0  0  0
    1.8565    0.4459    0.0000 C   0  0  0  0  0  0  0  0  0
    2.1266    1.2254    0.0000 C   0  0  0  0  0  0  0  0  0
    2.9367    1.3813    0.0000 C   0  0  0  0  0  0  0  0  0
    3.4768    0.7577    0.0000 N   0  0  0  0  0  0  0  0  0
    3.2068   -0.0219    0.0000 C   0  0  0  0  0  0  0  0  0
    3.7468   -0.6455    0.0000 C   0  0  0  0  0  0  0  0  0
    4.5570   -0.4896    0.0000 C   0  0  0  0  0  0  0  0  0
    4.8270    0.2899    0.0000 C   0  0  0  0  0  0  0  0  0
    4.2869    0.9136    0.0000 C   0  0  0  0  0  0  0  0  0
    5.6372    0.4459    0.0000 C   0  0  0  0  0  0  0  0  0
    6.1772   -0.1778    0.0000 C   0  0  0  0  0  0  0  0  0
    5.9072   -0.9573    0.0000 C   0  0  0  0  0  0  0  0  0
    5.0971   -1.1132    0.0000 C   0  0  0  0  0  0  0  0  0
    2.3966   -0.1778    0.0000 C   0  0  0  0  0  0  0  0  0
    2.1266   -0.9573    0.0000 C   0  0  0  0  0  0  0  0  0
    1.3164   -1.1132    0.0000 C   0  0  0  0  0  0  0  0  0
  1  2  1  0  0  0  0
  2  3  4  0  0  0  0
  2 19  4  0  0  0  0
  3  4  4  0  0  0  0
  4  5  1  0  0  0  0
  4 17  4  0  0  0  0
  5  6  1  0  0  0  0
  6  7  1  0  0  0  0
  7  8  1  0  0  0  0
  7 12  1  0  0  0  0
  8  9  1  0  0  0  0
  8 17  1  0  0  0  0
  9 10  1  0  0  0  0
 10 11  4  0  0  0  0
 10 16  4  0  0  0  0
 11 12  1  0  0  0  0
 11 13  4  0  0  0  0
 13 14  4  0  0  0  0
 14 15  4  0  0  0  0
 15 16  4  0  0  0  0
 17 18  4  0  0  0  0
 18 19  4  0  0  0  0
M  END
>  <Name_Molregno>
594386

>  <DOPAMINE D1>
6.87

>  <DOPAMINE D2>
6.31

>  <DOPAMINE D3>
6.51

>  <DOPAMINE D4>
5.29

>  <DOPAMINE D5>
7.39

$$$$
594387
  Marvin  02231216192D 0   1.00000     0.00000     0

 21 23  0  0  1  0  0  0  0  0999 V2000
    0.4314   -1.9047    0.0000 O   0  0  0  0  0  0  0  0  0
   -0.2831   -1.4922    0.0000 C   0  0  0  0  0  0  0  0  0
    1.1458   -1.4922    0.0000 C   0  0  0  0  0  0  0  0  0
    1.8603   -1.9047    0.0000 C   0  0  0  0  0  0  0  0  0
    2.5748   -1.4922    0.0000 C   0  0  0  0  0  0  0  0  0
    2.5748   -0.6672    0.0000 C   0  0  0  0  0  0  0  0  0
    1.8603   -0.2547    0.0000 C   0  0  0  0  0  0  0  0  0
    1.1458   -0.6672    0.0000 C   0  0  0  0  0  0  0  0  0
    3.2892   -0.2547    0.0000 C   0  0  0  0  0  0  0  0  0
    4.0037   -0.6672    0.0000 N   0  0  0  0  0  0  0  0  0
    4.0037   -1.4922    0.0000 C   0  0  0  0  0  0  0  0  0
    3.2892   -1.9047    0.0000 C   0  0  0  0  0  0  0  0  0
    4.7182   -0.2547    0.0000 C   0  0  0  0  0  0  0  0  0
    3.2892    0.5703    0.0000 C   0  0  0  0  0  0  0  0  0
    4.0037    0.9828    0.0000 C   0  0  0  0  0  0  0  0  0
    4.7182    0.5703    0.0000 C   0  0  0  0  0  0  0  0  0
    5.4327    0.9828    0.0000 C   0  0  0  0  0  0  0  0  0
    5.4327    1.8078    0.0000 C   0  0  0  0  0  0  0  0  0
    4.7182    2.2203    0.0000 C   0  0  0  0  0  0  0  0  0
    4.0037    1.8078    0.0000 C   0  0  0  0  0  0  0  0  0
    3.2892    2.2203    0.0000 C   0  0  0  0  0  0  0  0  0
  1  2  1  0  0  0  0
  1  3  1  0  0  0  0
  3  4  4  0  0  0  0
  3  8  4  0  0  0  0
  4  5  4  0  0  0  0
  5  6  4  0  0  0  0
  5 12  1  0  0  0  0
  6  7  4  0  0  0  0
  6  9  1  0  0  0  0
  7  8  4  0  0  0  0
  9 10  1  0  0  0  0
  9 14  1  0  0  0  0
 10 11  1  0  0  0  0
 10 13  1  0  0  0  0
 11 12  1  0  0  0  0
 14 15  1  0  0  0  0
 15 16  4  0  0  0  0
 15 20  4  0  0  0  0
 16 17  4  0  0  0  0
 17 18  4  0  0  0  0
 18 19  4  0  0  0  0
 19 20  4  0  0  0  0
 20 21  1  0  0  0  0
M  END
>  <Name_Molregno>
594387

>  <DOPAMINE D1>
5.63

>  <DOPAMINE D2>
5.13

>  <DOPAMINE D3>
5

>  <DOPAMINE D4>
5.18

>  <DOPAMINE D5>
5

$$$$
594401
  Marvin  02231216192D 0   1.00000     0.00000     0

 21 23  0  0  0  0  0  0  0  0999 V2000
   -6.2340    0.5870    0.0000 O   0  0  0  0  0  0  0  0  0
   -6.7741   -0.0367    0.0000 C   0  0  0  0  0  0  0  0  0
   -5.4239    0.4310    0.0000 C   0  0  0  0  0  0  0  0  0
   -4.8838    1.0547    0.0000 C   0  0  0  0  0  0  0  0  0
   -4.0736    0.8988    0.0000 C   0  0  0  0  0  0  0  0  0
   -3.5336    1.5224    0.0000 C   0  0  0  0  0  0  0  0  0
   -2.7234    1.3665    0.0000 C   0  0  0  0  0  0  0  0  0
   -2.1833    1.9901    0.0000 N   0  0  0  0  0  0  0  0  0
   -1.3732    1.8342    0.0000 C   0  0  0  0  0  0  0  0  0
   -1.1032    1.0547    0.0000 C   0  0  0  0  0  0  0  0  0
   -1.6432    0.4310    0.0000 C   0  0  0  0  0  0  0  0  0
   -2.4534    0.5870    0.0000 C   0  0  0  0  0  0  0  0  0
   -2.9935   -0.0367    0.0000 C   0  0  0  0  0  0  0  0  0
   -3.8036    0.1192    0.0000 C   0  0  0  0  0  0  0  0  0
   -4.3437   -0.5044    0.0000 C   0  0  0  0  0  0  0  0  0
   -5.1538   -0.3485    0.0000 C   0  0  0  0  0  0  0  0  0
   -1.3732   -0.3485    0.0000 C   0  0  0  0  0  0  0  0  0
   -0.5631   -0.5044    0.0000 C   0  0  0  0  0  0  0  0  0
   -0.0230    0.1192    0.0000 C   0  0  0  0  0  0  0  0  0
   -0.2930    0.8988    0.0000 C   0  0  0  0  0  0  0  0  0
   -2.4534    2.7697    0.0000 C   0  0  0  0  0  0  0  0  0
  1  2  1  0  0  0  0
  1  3  1  0  0  0  0
  3  4  4  0  0  0  0
  3 16  4  0  0  0  0
  4  5  4  0  0  0  0
  5  6  1  0  0  0  0
  5 14  4  0  0  0  0
  6  7  1  0  0  0  0
  7  8  1  0  0  0  0
  8  9  1  0  0  0  0
  8 21  1  0  0  0  0
  9 10  1  0  0  0  0
 10 11  4  0  0  0  0
 10 20  4  0  0  0  0
 11 12  1  0  0  0  0
 11 17  4  0  0  0  0
 12 13  1  0  0  0  0
 13 14  1  0  0  0  0
 14 15  4  0  0  0  0
 15 16  4  0  0  0  0
 17 18  4  0  0  0  0
 18 19  4  0  0  0  0
 19 20  4  0  0  0  0
M  END
>  <Name_Molregno>
594401

>  <DOPAMINE D1>
5.76

>  <DOPAMINE D2>
5

>  <DOPAMINE D3>
5

>  <DOPAMINE D4>
5

>  <DOPAMINE D5>
5.82

$$$$
594402
  Marvin  02231216192D 0   1.00000     0.00000     0

 20 23  0  0  1  0  0  0  0  0999 V2000
    5.3222    0.9297    0.0000 O   0  0  0  0  0  0  0  0  0
    5.3222    1.7547    0.0000 C   0  0  0  0  0  0  0  0  0
    4.6078    0.5172    0.0000 C   0  0  0  0  0  0  0  0  0
    4.6078   -0.3078    0.0000 C   0  0  0  0  0  0  0  0  0
    3.8933   -0.7203    0.0000 C   0  0  0  0  0  0  0  0  0
    3.8933   -1.5453    0.0000 C   0  0  0  0  0  0  0  0  0
    3.1788   -1.9578    0.0000 C   0  0  0  0  0  0  0  0  0
    2.4644   -1.5453    0.0000 N   0  0  0  0  0  0  0  0  0
    2.4644   -0.7203    0.0000 C   0  0  0  0  0  0  0  0  0
    3.1788   -0.3078    0.0000 C   0  0  0  0  0  0  0  0  0
    3.1788    0.5172    0.0000 C   0  0  0  0  0  0  0  0  0
    3.8933    0.9297    0.0000 C   0  0  0  0  0  0  0  0  0
    1.7499   -0.3078    0.0000 C   0  0  0  0  0  0  0  0  0
    1.0354   -0.7203    0.0000 C   0  0  0  0  0  0  0  0  0
    1.0354   -1.5453    0.0000 C   0  0  0  0  0  0  0  0  0
    1.7499   -1.9578    0.0000 C   0  0  0  0  0  0  0  0  0
    0.3209   -0.3078    0.0000 C   0  0  0  0  0  0  0  0  0
    0.3209    0.5172    0.0000 C   0  0  0  0  0  0  0  0  0
    1.0354    0.9297    0.0000 C   0  0  0  0  0  0  0  0  0
    1.7499    0.5172    0.0000 C   0  0  0  0  0  0  0  0  0
  1  2  1  0  0  0  0
  1  3  1  0  0  0  0
  3  4  4  0  0  0  0
  3 12  4  0  0  0  0
  4  5  4  0  0  0  0
  5  6  1  0  0  0  0
  5 10  4  0  0  0  0
  6  7  1  0  0  0  0
  7  8  1  0  0  0  0
  8  9  1  0  0  0  0
  8 16  1  0  0  0  0
  9 10  1  0  0  0  0
  9 13  1  0  0  0  0
 10 11  4  0  0  0  0
 11 12  4  0  0  0  0
 13 14  4  0  0  0  0
 13 20  4  0  0  0  0
 14 15  1  0  0  0  0
 14 17  4  0  0  0  0
 15 16  1  0  0  0  0
 17 18  4  0  0  0  0
 18 19  4  0  0  0  0
 19 20  4  0  0  0  0
M  END
>  <Name_Molregno>
594402

>  <DOPAMINE D1>
5.67

>  <DOPAMINE D2>
5

>  <DOPAMINE D3>
5

>  <DOPAMINE D4>
5

>  <DOPAMINE D5>
5

$$$$
594403
  Marvin  02231216192D 0   1.00000     0.00000     0

 19 22  0  0  1  0  0  0  0  0999 V2000
    5.3389    0.0219    0.0000 O   0  0  0  0  0  0  0  0  0
    4.6244   -0.3906    0.0000 C   0  0  0  0  0  0  0  0  0
    4.6244   -1.2156    0.0000 C   0  0  0  0  0  0  0  0  0
    3.9099   -1.6281    0.0000 C   0  0  0  0  0  0  0  0  0
    3.9099   -2.4531    0.0000 C   0  0  0  0  0  0  0  0  0
    3.1955   -2.8656    0.0000 C   0  0  0  0  0  0  0  0  0
    2.4810   -2.4531    0.0000 N   0  0  0  0  0  0  0  0  0
    2.4810   -1.6281    0.0000 C   0  0  0  0  0  0  0  0  0
    3.1955   -1.2156    0.0000 C   0  0  0  0  0  0  0  0  0
    3.1955   -0.3906    0.0000 C   0  0  0  0  0  0  0  0  0
    3.9099    0.0219    0.0000 C   0  0  0  0  0  0  0  0  0
    1.7665   -1.2156    0.0000 C   0  0  0  0  0  0  0  0  0
    1.0520   -1.6281    0.0000 C   0  0  0  0  0  0  0  0  0
    1.0520   -2.4531    0.0000 C   0  0  0  0  0  0  0  0  0
    1.7665   -2.8656    0.0000 C   0  0  0  0  0  0  0  0  0
    0.3376   -1.2156    0.0000 C   0  0  0  0  0  0  0  0  0
    0.3376   -0.3906    0.0000 C   0  0  0  0  0  0  0  0  0
    1.0520    0.0219    0.0000 C   0  0  0  0  0  0  0  0  0
    1.7665   -0.3906    0.0000 C   0  0  0  0  0  0  0  0  0
  1  2  1  0  0  0  0
  2  3  4  0  0  0  0
  2 11  4  0  0  0  0
  3  4  4  0  0  0  0
  4  5  1  0  0  0  0
  4  9  4  0  0  0  0
  5  6  1  0  0  0  0
  6  7  1  0  0  0  0
  7  8  1  0  0  0  0
  7 15  1  0  0  0  0
  8  9  1  0  0  0  0
  8 12  1  0  0  0  0
  9 10  4  0  0  0  0
 10 11  4  0  0  0  0
 12 13  4  0  0  0  0
 12 19  4  0  0  0  0
 13 14  1  0  0  0  0
 13 16  4  0  0  0  0
 14 15  1  0  0  0  0
 16 17  4  0  0  0  0
 17 18  4  0  0  0  0
 18 19  4  0  0  0  0
M  END
>  <Name_Molregno>
594403

>  <DOPAMINE D1>
5

>  <DOPAMINE D2>
5

>  <DOPAMINE D3>
5

>  <DOPAMINE D4>
5

>  <DOPAMINE D5>
5

$$$$
594448
  Marvin  02231216192D 0   1.00000     0.00000     0

 24 27  0  0  1  0  0  0  0  0999 V2000
   -0.1249   -0.5370    0.0000 O   0  0  0  0  0  0  0  0  0
    0.6852   -0.6929    0.0000 C   0  0  0  0  0  0  0  0  0
   -0.3950    0.2426    0.0000 C   0  0  0  0  0  0  0  0  0
   -1.2051    0.3985    0.0000 C   0  0  0  0  0  0  0  0  0
   -1.4751    1.1780    0.0000 C   0  0  0  0  0  0  0  0  0
   -2.2853    1.3340    0.0000 C   0  0  0  0  0  0  0  0  0
   -2.8254    0.7103    0.0000 C   0  0  0  0  0  0  0  0  0
   -2.5553   -0.0692    0.0000 N   0  0  0  0  0  0  0  0  0
   -1.7452   -0.2251    0.0000 C   0  0  0  0  0  0  0  0  0
   -3.0954   -0.6929    0.0000 C   0  0  0  0  0  0  0  0  0
   -3.9055   -0.5370    0.0000 C   0  0  0  0  0  0  0  0  0
   -4.1756    0.2426    0.0000 C   0  0  0  0  0  0  0  0  0
   -4.9857    0.3985    0.0000 C   0  0  0  0  0  0  0  0  0
   -5.2558    1.1780    0.0000 C   0  0  0  0  0  0  0  0  0
   -6.0659    1.3340    0.0000 O   0  0  0  0  0  0  0  0  0
   -6.6060    0.7103    0.0000 C   0  0  0  0  0  0  0  0  0
   -4.7157    1.8017    0.0000 C   0  0  0  0  0  0  0  0  0
   -4.9857    2.5812    0.0000 O   0  0  0  0  0  0  0  0  0
   -3.9055    1.6458    0.0000 C   0  0  0  0  0  0  0  0  0
   -3.6355    0.8662    0.0000 C   0  0  0  0  0  0  0  0  0
   -0.9351    1.8017    0.0000 C   0  0  0  0  0  0  0  0  0
   -0.1249    1.6458    0.0000 C   0  0  0  0  0  0  0  0  0
    0.1451    0.8662    0.0000 C   0  0  0  0  0  0  0  0  0
    0.9553    0.7103    0.0000 O   0  0  0  0  0  0  0  0  0
  1  2  1  0  0  0  0
  1  3  1  0  0  0  0
  3  4  4  0  0  0  0
  3 23  4  0  0  0  0
  4  5  4  0  0  0  0
  4  9  1  0  0  0  0
  5  6  1  0  0  0  0
  5 21  4  0  0  0  0
  6  7  1  0  0  0  0
  7  8  1  0  0  0  0
  7 20  1  0  0  0  0
  8  9  1  0  0  0  0
  8 10  1  0  0  0  0
 10 11  1  0  0  0  0
 11 12  1  0  0  0  0
 12 13  4  0  0  0  0
 12 20  4  0  0  0  0
 13 14  4  0  0  0  0
 14 15  1  0  0  0  0
 14 17  4  0  0  0  0
 15 16  1  0  0  0  0
 17 18  1  0  0  0  0
 17 19  4  0  0  0  0
 19 20  4  0  0  0  0
 21 22  4  0  0  0  0
 22 23  4  0  0  0  0
 23 24  1  0  0  0  0
M  END
>  <Name_Molregno>
594448

>  <5-HT1A>
6.84

>  <5-HT1B>
5.16

>  <5-HT1D>
5

>  <5-HT1E>
5

>  <5-HT2A>
5

>  <5-HT3>
5

>  <5-HT5>
5

>  <5-HT6>
5

>  <5-HT7>
5

>  <Alpha-1A>
5

>  <Alpha-1B>
5

>  <Alpha-2A>
5

>  <Alpha-2B>
5.16

>  <Alpha-2C>
6.67

>  <Beta-1>
5

>  <Beta-2>
5

>  <DOPAMINE D1>
8.23

>  <DOPAMINE D2>
6.01

>  <DOPAMINE D4>
5.43

>  <DOPAMINE D5>
8.36

>  <Dopamine transporter>
5

>  <HISTAMINE H1>
5

>  <HISTAMINE H2>
5

>  <HISTAMINE H4>
5

>  <Muscarinic acetylcholine receptor M2>
5

>  <Muscarinic acetylcholine receptor M5>
5

>  <Norepinephrine transporter>
5

>  <Serotonin transporter>
5

$$$$
594449
  Marvin  02231216192D 0   1.00000     0.00000     0

 20 23  0  0  1  0  0  0  0  0999 V2000
   -0.0381   -0.5723    0.0000 O   0  0  0  0  0  0  0  0  0
   -0.3081   -1.3518    0.0000 C   0  0  0  0  0  0  0  0  0
    0.7721   -0.4163    0.0000 C   0  0  0  0  0  0  0  0  0
    1.0421    0.3632    0.0000 C   0  0  0  0  0  0  0  0  0
    1.8522    0.5191    0.0000 C   0  0  0  0  0  0  0  0  0
    2.1223    1.2987    0.0000 C   0  0  0  0  0  0  0  0  0
    2.9324    1.4546    0.0000 C   0  0  0  0  0  0  0  0  0
    3.4725    0.8309    0.0000 N   0  0  0  0  0  0  0  0  0
    3.2025    0.0514    0.0000 C   0  0  0  0  0  0  0  0  0
    3.7426   -0.5723    0.0000 C   0  0  0  0  0  0  0  0  0
    4.5527   -0.4163    0.0000 C   0  0  0  0  0  0  0  0  0
    4.8227    0.3632    0.0000 C   0  0  0  0  0  0  0  0  0
    4.2826    0.9868    0.0000 C   0  0  0  0  0  0  0  0  0
    5.6329    0.5191    0.0000 C   0  0  0  0  0  0  0  0  0
    6.1730   -0.1045    0.0000 C   0  0  0  0  0  0  0  0  0
    5.9029   -0.8841    0.0000 C   0  0  0  0  0  0  0  0  0
    5.0928   -1.0400    0.0000 C   0  0  0  0  0  0  0  0  0
    2.3923   -0.1045    0.0000 C   0  0  0  0  0  0  0  0  0
    2.1223   -0.8841    0.0000 C   0  0  0  0  0  0  0  0  0
    1.3122   -1.0400    0.0000 C   0  0  0  0  0  0  0  0  0
  1  2  1  0  0  0  0
  1  3  1  0  0  0  0
  3  4  4  0  0  0  0
  3 20  4  0  0  0  0
  4  5  4  0  0  0  0
  5  6  1  0  0  0  0
  5 18  4  0  0  0  0
  6  7  1  0  0  0  0
  7  8  1  0  0  0  0
  8  9  1  0  0  0  0
  8 13  1  0  0  0  0
  9 10  1  0  0  0  0
  9 18  1  0  0  0  0
 10 11  1  0  0  0  0
 11 12  4  0  0  0  0
 11 17  4  0  0  0  0
 12 13  1  0  0  0  0
 12 14  4  0  0  0  0
 14 15  4  0  0  0  0
 15 16  4  0  0  0  0
 16 17  4  0  0  0  0
 18 19  4  0  0  0  0
 19 20  4  0  0  0  0
M  END
>  <Name_Molregno>
594449

>  <DOPAMINE D1>
6.74

>  <DOPAMINE D2>
6.49

>  <DOPAMINE D3>
6.6

>  <DOPAMINE D4>
5.59

>  <DOPAMINE D5>
6.73

$$$$
594450
  Marvin  02231216192D 0   1.00000     0.00000     0

 20 22  0  0  0  0  0  0  0  0999 V2000
   -0.2117    0.6176    0.0000 O   0  0  0  0  0  0  0  0  0
    0.5985    0.4617    0.0000 C   0  0  0  0  0  0  0  0  0
    1.1386    1.0854    0.0000 C   0  0  0  0  0  0  0  0  0
    1.9487    0.9295    0.0000 C   0  0  0  0  0  0  0  0  0
    2.4888    1.5531    0.0000 C   0  0  0  0  0  0  0  0  0
    3.2989    1.3972    0.0000 C   0  0  0  0  0  0  0  0  0
    3.8390    2.0208    0.0000 N   0  0  0  0  0  0  0  0  0
    4.6491    1.8649    0.0000 C   0  0  0  0  0  0  0  0  0
    4.9192    1.0854    0.0000 C   0  0  0  0  0  0  0  0  0
    4.3791    0.4617    0.0000 C   0  0  0  0  0  0  0  0  0
    3.5690    0.6176    0.0000 C   0  0  0  0  0  0  0  0  0
    3.0289   -0.0060    0.0000 C   0  0  0  0  0  0  0  0  0
    2.2187    0.1499    0.0000 C   0  0  0  0  0  0  0  0  0
    1.6787   -0.4737    0.0000 C   0  0  0  0  0  0  0  0  0
    0.8685   -0.3178    0.0000 C   0  0  0  0  0  0  0  0  0
    4.6491   -0.3178    0.0000 C   0  0  0  0  0  0  0  0  0
    5.4593   -0.4737    0.0000 C   0  0  0  0  0  0  0  0  0
    5.9994    0.1499    0.0000 C   0  0  0  0  0  0  0  0  0
    5.7293    0.9295    0.0000 C   0  0  0  0  0  0  0  0  0
    3.5690    2.8004    0.0000 C   0  0  0  0  0  0  0  0  0
  1  2  1  0  0  0  0
  2  3  4  0  0  0  0
  2 15  4  0  0  0  0
  3  4  4  0  0  0  0
  4  5  1  0  0  0  0
  4 13  4  0  0  0  0
  5  6  1  0  0  0  0
  6  7  1  0  0  0  0
  7  8  1  0  0  0  0
  7 20  1  0  0  0  0
  8  9  1  0  0  0  0
  9 10  4  0  0  0  0
  9 19  4  0  0  0  0
 10 11  1  0  0  0  0
 10 16  4  0  0  0  0
 11 12  1  0  0  0  0
 12 13  1  0  0  0  0
 13 14  4  0  0  0  0
 14 15  4  0  0  0  0
 16 17  4  0  0  0  0
 17 18  4  0  0  0  0
 18 19  4  0  0  0  0
M  END
>  <Name_Molregno>
594450

>  <DOPAMINE D1>
5

>  <DOPAMINE D2>
5

>  <DOPAMINE D3>
5

>  <DOPAMINE D4>
5

>  <DOPAMINE D5>
5

$$$$
594455
  Marvin  02231216192D 0   1.00000     0.00000     0

 20 23  0  0  1  0  0  0  0  0999 V2000
   -0.2086    1.0010    0.0000 O   0  0  0  0  0  0  0  0  0
   -0.2327    1.8256    0.0000 C   0  0  0  0  0  0  0  0  0
   -0.9107    0.5678    0.0000 C   0  0  0  0  0  0  0  0  0
   -0.8866   -0.2569    0.0000 C   0  0  0  0  0  0  0  0  0
   -1.5887   -0.6901    0.0000 C   0  0  0  0  0  0  0  0  0
   -1.4420   -1.5019    0.0000 C   0  0  0  0  0  0  0  0  0
   -1.9852   -2.1228    0.0000 C   0  0  0  0  0  0  0  0  0
   -2.8094   -2.0852    0.0000 C   0  0  0  0  0  0  0  0  0
   -3.2938   -1.4175    0.0000 N   0  0  0  0  0  0  0  0  0
   -3.0738   -0.6224    0.0000 C   0  0  0  0  0  0  0  0  0
   -2.3149   -0.2986    0.0000 C   0  0  0  0  0  0  0  0  0
   -2.3390    0.5260    0.0000 C   0  0  0  0  0  0  0  0  0
   -1.6369    0.9592    0.0000 C   0  0  0  0  0  0  0  0  0
   -3.7620   -0.1674    0.0000 C   0  0  0  0  0  0  0  0  0
   -4.4073   -0.6813    0.0000 C   0  0  0  0  0  0  0  0  0
   -4.1180   -1.4539    0.0000 C   0  0  0  0  0  0  0  0  0
   -5.1751   -0.3794    0.0000 C   0  0  0  0  0  0  0  0  0
   -5.2975    0.4365    0.0000 C   0  0  0  0  0  0  0  0  0
   -4.6521    0.9504    0.0000 C   0  0  0  0  0  0  0  0  0
   -3.8844    0.6485    0.0000 C   0  0  0  0  0  0  0  0  0
  1  2  1  0  0  0  0
  1  3  1  0  0  0  0
  3  4  4  0  0  0  0
  3 13  4  0  0  0  0
  4  5  4  0  0  0  0
  5  6  1  0  0  0  0
  5 11  4  0  0  0  0
  6  7  1  0  0  0  0
  7  8  1  0  0  0  0
  8  9  1  0  0  0  0
  9 10  1  0  0  0  0
  9 16  1  0  0  0  0
 10 11  1  0  0  0  0
 10 14  1  0  0  0  0
 11 12  4  0  0  0  0
 12 13  4  0  0  0  0
 14 15  4  0  0  0  0
 14 20  4  0  0  0  0
 15 16  1  0  0  0  0
 15 17  4  0  0  0  0
 17 18  4  0  0  0  0
 18 19  4  0  0  0  0
 19 20  4  0  0  0  0
M  END
>  <Name_Molregno>
594455

>  <DOPAMINE D1>
5

>  <DOPAMINE D2>
5

>  <DOPAMINE D3>
5

>  <DOPAMINE D4>
5

>  <DOPAMINE D5>
5

$$$$
594456
  Marvin  02231216192D 0   1.00000     0.00000     0

 21 23  0  0  0  0  0  0  0  0999 V2000
   -5.5811   -0.8983    0.0000 O   0  0  0  0  0  0  0  0  0
   -5.5811   -1.7233    0.0000 C   0  0  0  0  0  0  0  0  0
   -4.8666   -0.4858    0.0000 C   0  0  0  0  0  0  0  0  0
   -4.8666    0.3392    0.0000 C   0  0  0  0  0  0  0  0  0
   -4.1521    0.7517    0.0000 C   0  0  0  0  0  0  0  0  0
   -4.1521    1.5767    0.0000 C   0  0  0  0  0  0  0  0  0
   -3.4377    1.9892    0.0000 C   0  0  0  0  0  0  0  0  0
   -2.7232    1.5767    0.0000 C   0  0  0  0  0  0  0  0  0
   -2.0087    1.9892    0.0000 N   0  0  0  0  0  0  0  0  0
   -1.2943    1.5767    0.0000 C   0  0  0  0  0  0  0  0  0
   -1.2943    0.7517    0.0000 C   0  0  0  0  0  0  0  0  0
   -2.0087    0.3392    0.0000 C   0  0  0  0  0  0  0  0  0
   -2.7232    0.7517    0.0000 C   0  0  0  0  0  0  0  0  0
   -3.4377    0.3392    0.0000 C   0  0  0  0  0  0  0  0  0
   -3.4377   -0.4858    0.0000 C   0  0  0  0  0  0  0  0  0
   -4.1521   -0.8983    0.0000 C   0  0  0  0  0  0  0  0  0
   -2.0087   -0.4858    0.0000 C   0  0  0  0  0  0  0  0  0
   -1.2943   -0.8983    0.0000 C   0  0  0  0  0  0  0  0  0
   -0.5798   -0.4858    0.0000 C   0  0  0  0  0  0  0  0  0
   -0.5798    0.3392    0.0000 C   0  0  0  0  0  0  0  0  0
   -2.0087    2.8142    0.0000 C   0  0  0  0  0  0  0  0  0
  1  2  1  0  0  0  0
  1  3  1  0  0  0  0
  3  4  4  0  0  0  0
  3 16  4  0  0  0  0
  4  5  4  0  0  0  0
  5  6  1  0  0  0  0
  5 14  4  0  0  0  0
  6  7  1  0  0  0  0
  7  8  1  0  0  0  0
  8  9  1  0  0  0  0
  9 10  1  0  0  0  0
  9 21  1  0  0  0  0
 10 11  1  0  0  0  0
 11 12  4  0  0  0  0
 11 20  4  0  0  0  0
 12 13  1  0  0  0  0
 12 17  4  0  0  0  0
 13 14  1  0  0  0  0
 14 15  4  0  0  0  0
 15 16  4  0  0  0  0
 17 18  4  0  0  0  0
 18 19  4  0  0  0  0
 19 20  4  0  0  0  0
M  END
>  <Name_Molregno>
594456

>  <DOPAMINE D1>
5.9

>  <DOPAMINE D2>
5

>  <DOPAMINE D3>
5

>  <DOPAMINE D4>
5

>  <DOPAMINE D5>
5

$$$$
594464
  Marvin  02231216192D 0   1.00000     0.00000     0

 20 22  0  0  0  0  0  0  0  0999 V2000
    0.4108   -1.2724    0.0000 O   0  0  0  0  0  0  0  0  0
    1.1252   -0.8599    0.0000 C   0  0  0  0  0  0  0  0  0
    1.1252   -0.0349    0.0000 C   0  0  0  0  0  0  0  0  0
    1.8397    0.3776    0.0000 C   0  0  0  0  0  0  0  0  0
    1.8397    1.2026    0.0000 C   0  0  0  0  0  0  0  0  0
    2.5542    1.6151    0.0000 C   0  0  0  0  0  0  0  0  0
    3.2686    1.2026    0.0000 C   0  0  0  0  0  0  0  0  0
    3.9831    1.6151    0.0000 N   0  0  0  0  0  0  0  0  0
    4.6976    1.2026    0.0000 C   0  0  0  0  0  0  0  0  0
    4.6976    0.3776    0.0000 C   0  0  0  0  0  0  0  0  0
    3.9831   -0.0349    0.0000 C   0  0  0  0  0  0  0  0  0
    3.2686    0.3776    0.0000 C   0  0  0  0  0  0  0  0  0
    2.5542   -0.0349    0.0000 C   0  0  0  0  0  0  0  0  0
    2.5542   -0.8599    0.0000 C   0  0  0  0  0  0  0  0  0
    1.8397   -1.2724    0.0000 C   0  0  0  0  0  0  0  0  0
    3.9831   -0.8599    0.0000 C   0  0  0  0  0  0  0  0  0
    4.6976   -1.2724    0.0000 C   0  0  0  0  0  0  0  0  0
    5.4120   -0.8599    0.0000 C   0  0  0  0  0  0  0  0  0
    5.4120   -0.0349    0.0000 C   0  0  0  0  0  0  0  0  0
    3.9831    2.4401    0.0000 C   0  0  0  0  0  0  0  0  0
  1  2  1  0  0  0  0
  2  3  4  0  0  0  0
  2 15  4  0  0  0  0
  3  4  4  0  0  0  0
  4  5  1  0  0  0  0
  4 13  4  0  0  0  0
  5  6  1  0  0  0  0
  6  7  1  0  0  0  0
  7  8  1  0  0  0  0
  8  9  1  0  0  0  0
  8 20  1  0  0  0  0
  9 10  1  0  0  0  0
 10 11  4  0  0  0  0
 10 19  4  0  0  0  0
 11 12  1  0  0  0  0
 11 16  4  0  0  0  0
 12 13  1  0  0  0  0
 13 14  4  0  0  0  0
 14 15  4  0  0  0  0
 16 17  4  0  0  0  0
 17 18  4  0  0  0  0
 18 19  4  0  0  0  0
M  END
>  <Name_Molregno>
594464

>  <DOPAMINE D1>
5.68

>  <DOPAMINE D2>
5

>  <DOPAMINE D3>
5

>  <DOPAMINE D4>
5

>  <DOPAMINE D5>
5.74

$$$$
608576
  Marvin  02231216192D 0   1.00000     0.00000     0

 26 29  0  0  1  0  0  0  0  0999 V2000
    0.8469   -3.8121    0.0000 S   0  0  0  0  0  0  0  0  0
    1.5614   -3.3996    0.0000 C   0  0  0  0  0  0  0  0  0
    1.5614   -2.5746    0.0000 C   0  0  0  0  0  0  0  0  0
    0.8469   -2.1621    0.0000 N   0  0  0  0  0  0  0  0  0
    0.1324   -2.5746    0.0000 C   0  0  0  0  0  0  0  0  0
    0.1324   -3.3996    0.0000 C   0  0  0  0  0  0  0  0  0
   -0.5820   -3.8121    0.0000 C   0  0  0  0  0  0  0  0  0
   -1.2965   -3.3996    0.0000 C   0  0  0  0  0  0  0  0  0
   -1.2965   -2.5746    0.0000 C   0  0  0  0  0  0  0  0  0
   -0.5820   -2.1621    0.0000 C   0  0  0  0  0  0  0  0  0
    0.8469   -1.3371    0.0000 C   0  0  0  0  0  0  0  0  0
    0.1324   -0.9246    0.0000 C   0  0  0  0  0  0  0  0  0
    0.1324   -0.0996    0.0000 C   0  0  0  0  0  0  0  0  0
   -0.5820    0.3129    0.0000 N   0  0  0  0  0  0  0  0  0
   -0.5820    1.1379    0.0000 C   0  0  0  0  0  0  0  0  0
    0.1324    1.5504    0.0000 C   0  0  0  0  0  0  0  0  0
    0.8469    1.1379    0.0000 C   0  0  0  0  0  0  0  0  0
    0.8469    0.3129    0.0000 C   0  0  0  0  0  0  0  0  0
   -1.2965   -0.0996    0.0000 C   0  0  0  0  0  0  0  0  0
    2.2758   -2.1621    0.0000 C   0  0  0  0  0  0  0  0  0
    2.9903   -2.5746    0.0000 C   0  0  0  0  0  0  0  0  0
    3.7048   -2.1621    0.0000 S   0  0  0  0  0  0  0  0  0
    3.7048   -1.3371    0.0000 O   0  0  0  0  0  0  0  0  0
    4.4193   -2.5746    0.0000 C   0  0  0  0  0  0  0  0  0
    2.9903   -3.3996    0.0000 C   0  0  0  0  0  0  0  0  0
    2.2758   -3.8121    0.0000 C   0  0  0  0  0  0  0  0  0
  1  2  1  0  0  0  0
  1  6  1  0  0  0  0
  2  3  4  0  0  0  0
  2 26  4  0  0  0  0
  3  4  1  0  0  0  0
  3 20  4  0  0  0  0
  4  5  1  0  0  0  0
  4 11  1  0  0  0  0
  5  6  4  0  0  0  0
  5 10  4  0  0  0  0
  6  7  4  0  0  0  0
  7  8  4  0  0  0  0
  8  9  4  0  0  0  0
  9 10  4  0  0  0  0
 11 12  1  0  0  0  0
 12 13  1  0  0  0  0
 13 14  1  0  0  0  0
 13 18  1  0  0  0  0
 14 15  1  0  0  0  0
 14 19  1  0  0  0  0
 15 16  1  0  0  0  0
 16 17  1  0  0  0  0
 17 18  1  0  0  0  0
 20 21  4  0  0  0  0
 21 22  1  0  0  0  0
 21 25  4  0  0  0  0
 22 23  2  0  0  0  0
 22 24  1  0  0  0  0
 25 26  4  0  0  0  0
M  END
>  <Name_Molregno>
608576

>  <5-HT1A>
6.76

>  <5-HT2A>
8.12

>  <5-HT2C>
6.8

>  <5-HT6>
6.42

>  <DOPAMINE D1>
6.35

>  <DOPAMINE D2>
7.31

>  <DOPAMINE D3>
7.51

>  <DOPAMINE D4>
8.04

>  <HISTAMINE H1>
8.74

>  <Muscarinic acetylcholine receptor M1>
8

>  <Muscarinic acetylcholine receptor M2>
7.82

>  <Muscarinic acetylcholine receptor M3>
7.05

>  <Muscarinic acetylcholine receptor M4>
7.72

>  <Muscarinic acetylcholine receptor M5>
7.22

$$$$
615502
  Marvin  02231216192D 0   1.00000     0.00000     0

 22 25  0  0  0  0  0  0  0  0999 V2000
    0.3755   -0.3097    0.0000 N   0  0  0  0  0  0  0  0  0
   -0.0507    0.3967    0.0000 C   0  0  0  0  0  0  0  0  0
    0.4894    1.0203    0.0000 C   0  0  0  0  0  0  0  0  0
    0.2193    1.7999    0.0000 C   0  0  0  0  0  0  0  0  0
    0.7802    2.5074    0.0000 C   0  0  0  0  0  0  0  0  0
    0.7642    3.3322    0.0000 C   0  0  0  0  0  0  0  0  0
    1.5438    3.6023    0.0000 N   0  0  0  0  0  0  0  0  0
    2.0415    2.9443    0.0000 C   0  0  0  0  0  0  0  0  0
    2.9198    2.7354    0.0000 C   0  0  0  0  0  0  0  0  0
    3.1898    1.9558    0.0000 C   0  0  0  0  0  0  0  0  0
    2.6497    1.3322    0.0000 C   0  0  0  0  0  0  0  0  0
    1.8396    1.4881    0.0000 C   0  0  0  0  0  0  0  0  0
    1.2995    0.8644    0.0000 C   0  0  0  0  0  0  0  0  0
    1.1790   -0.1226    0.0000 C   0  0  0  0  0  0  0  0  0
    2.9198    0.5526    0.0000 C   0  0  0  0  0  0  0  0  0
    3.7299    0.3967    0.0000 C   0  0  0  0  0  0  0  0  0
    4.2700    1.0203    0.0000 C   0  0  0  0  0  0  0  0  0
    3.9999    1.7999    0.0000 C   0  0  0  0  0  0  0  0  0
    1.7835    4.3916    0.0000 C   0  0  0  0  0  0  0  0  0
   -0.5908    1.9558    0.0000 C   0  0  0  0  0  0  0  0  0
   -1.1309    1.3322    0.0000 C   0  0  0  0  0  0  0  0  0
   -0.8609    0.5526    0.0000 C   0  0  0  0  0  0  0  0  0
  1  2  4  0  0  0  0
  1 14  4  0  0  0  0
  2  3  4  0  0  0  0
  2 22  4  0  0  0  0
  3  4  4  0  0  0  0
  3 13  4  0  0  0  0
  4  5  1  0  0  0  0
  4 20  4  0  0  0  0
  5  6  1  0  0  0  0
  6  7  1  0  0  0  0
  7  8  1  0  0  0  0
  7 19  1  0  0  0  0
  8  9  1  0  0  0  0
  9 10  1  0  0  0  0
 10 11  4  0  0  0  0
 10 18  4  0  0  0  0
 11 12  1  0  0  0  0
 11 15  4  0  0  0  0
 12 13  1  0  0  0  0
 13 14  4  0  0  0  0
 15 16  4  0  0  0  0
 16 17  4  0  0  0  0
 17 18  4  0  0  0  0
 20 21  4  0  0  0  0
 21 22  4  0  0  0  0
M  STY  1   1 DAT
M  SAL   1  1   1
M  SDT   1 MRV_IMPLICIT_H                                        
M  SDD   1     0.0000    0.0000    DR    ALL  0       0  
M  SED   1 IMPL_H1
M  END
>  <Name_Molregno>
615502

>  <DOPAMINE D1>
8.38

>  <DOPAMINE D2>
8.4

>  <DOPAMINE D3>
7.37

>  <DOPAMINE D5>
8.6

$$$$
615503
  Marvin  02231216192D 0   1.00000     0.00000     0

 22 25  0  0  0  0  0  0  0  0999 V2000
   -0.5258   -0.5076    0.0000 N   0  0  0  0  0  0  0  0  0
    0.2562   -0.2448    0.0000 C   0  0  0  0  0  0  0  0  0
    0.5842    0.5123    0.0000 C   0  0  0  0  0  0  0  0  0
    1.4037    0.6068    0.0000 C   0  0  0  0  0  0  0  0  0
    1.8954   -0.0557    0.0000 N   0  0  0  0  0  0  0  0  0
    2.7149    0.0388    0.0000 C   0  0  0  0  0  0  0  0  0
    3.2066   -0.6237    0.0000 C   0  0  0  0  0  0  0  0  0
    2.8786   -1.3808    0.0000 C   0  0  0  0  0  0  0  0  0
    2.0591   -1.4753    0.0000 C   0  0  0  0  0  0  0  0  0
    1.5674   -0.8128    0.0000 C   0  0  0  0  0  0  0  0  0
    0.7479   -0.9073    0.0000 C   0  0  0  0  0  0  0  0  0
    0.2697   -1.5796    0.0000 C   0  0  0  0  0  0  0  0  0
   -0.5174   -1.3326    0.0000 C   0  0  0  0  0  0  0  0  0
   -1.1249   -1.8908    0.0000 C   0  0  0  0  0  0  0  0  0
   -0.9453   -2.6960    0.0000 C   0  0  0  0  0  0  0  0  0
   -0.1581   -2.9430    0.0000 C   0  0  0  0  0  0  0  0  0
    0.4494   -2.3848    0.0000 C   0  0  0  0  0  0  0  0  0
    1.7311   -2.2323    0.0000 C   0  0  0  0  0  0  0  0  0
    2.2228   -2.8948    0.0000 C   0  0  0  0  0  0  0  0  0
    3.0424   -2.8003    0.0000 C   0  0  0  0  0  0  0  0  0
    3.3703   -2.0433    0.0000 C   0  0  0  0  0  0  0  0  0
    1.1851   -0.4754    0.0000 C   0  0  0  0  0  0  0  0  0
  1  2  4  0  0  0  0
  1 13  4  0  0  0  0
  2  3  1  0  0  0  0
  2 11  4  0  0  0  0
  3  4  1  0  0  0  0
  4  5  1  0  0  0  0
  5  6  1  0  0  0  0
  5 22  1  0  0  0  0
  6  7  1  0  0  0  0
  7  8  1  0  0  0  0
  8  9  4  0  0  0  0
  8 21  4  0  0  0  0
  9 10  1  0  0  0  0
  9 18  4  0  0  0  0
 10 11  1  0  0  0  0
 11 12  4  0  0  0  0
 12 13  4  0  0  0  0
 12 17  4  0  0  0  0
 13 14  4  0  0  0  0
 14 15  4  0  0  0  0
 15 16  4  0  0  0  0
 16 17  4  0  0  0  0
 18 19  4  0  0  0  0
 19 20  4  0  0  0  0
 20 21  4  0  0  0  0
M  STY  1   1 DAT
M  SAL   1  1   1
M  SDT   1 MRV_IMPLICIT_H                                        
M  SDD   1     0.0000    0.0000    DR    ALL  0       0  
M  SED   1 IMPL_H1
M  END
>  <Name_Molregno>
615503

>  <DOPAMINE D1>
7.55

>  <DOPAMINE D2>
7.26

>  <DOPAMINE D3>
6.29

>  <DOPAMINE D5>
7.99

$$$$
615576
  Marvin  02231216192D 0   1.00000     0.00000     0

 20 24  0  0  1  0  0  0  0  0999 V2000
    0.2706   -0.2230    0.0000 N   0  0  0  0  0  0  0  0  0
    0.5760   -1.0802    0.0000 C   0  0  0  0  0  0  0  0  0
   -0.1419   -1.4927    0.0000 C   0  0  0  0  0  0  0  0  0
   -0.1419   -2.3177    0.0000 C   0  0  0  0  0  0  0  0  0
   -0.8544   -2.7302    0.0000 C   0  0  0  0  0  0  0  0  0
   -1.5669   -2.3177    0.0000 N   0  0  0  0  0  0  0  0  0
   -1.5669   -1.4927    0.0000 C   0  0  0  0  0  0  0  0  0
   -2.2813   -1.0802    0.0000 C   0  0  0  0  0  0  0  0  0
   -2.9958   -1.4927    0.0000 C   0  0  0  0  0  0  0  0  0
   -2.9958   -2.3177    0.0000 C   0  0  0  0  0  0  0  0  0
   -2.2813   -2.7302    0.0000 C   0  0  0  0  0  0  0  0  0
   -3.7103   -1.0802    0.0000 C   0  0  0  0  0  0  0  0  0
   -3.7103   -0.2552    0.0000 C   0  0  0  0  0  0  0  0  0
   -2.9958    0.1573    0.0000 C   0  0  0  0  0  0  0  0  0
   -2.2813   -0.2552    0.0000 C   0  0  0  0  0  0  0  0  0
   -0.8544   -1.0802    0.0000 C   0  0  0  0  0  0  0  0  0
   -0.5544   -0.2230    0.0000 C   0  0  0  0  0  0  0  0  0
    0.5760   -2.7302    0.0000 C   0  0  0  0  0  0  0  0  0
    1.2885   -2.3177    0.0000 C   0  0  0  0  0  0  0  0  0
    1.2885   -1.4927    0.0000 C   0  0  0  0  0  0  0  0  0
  1  2  4  0  0  0  0
  1 17  4  0  0  0  0
  2  3  4  0  0  0  0
  2 20  4  0  0  0  0
  3  4  4  0  0  0  0
  3 16  4  0  0  0  0
  4  5  1  0  0  0  0
  4 18  4  0  0  0  0
  5  6  1  0  0  0  0
  6  7  1  0  0  0  0
  6 11  1  0  0  0  0
  7  8  1  0  0  0  0
  7 16  1  0  0  0  0
  8  9  4  0  0  0  0
  8 15  4  0  0  0  0
  9 10  1  0  0  0  0
  9 12  4  0  0  0  0
 10 11  1  0  0  0  0
 12 13  4  0  0  0  0
 13 14  4  0  0  0  0
 14 15  4  0  0  0  0
 16 17  4  0  0  0  0
 18 19  4  0  0  0  0
 19 20  4  0  0  0  0
M  STY  1   1 DAT
M  SAL   1  1   1
M  SDT   1 MRV_IMPLICIT_H                                        
M  SDD   1     0.0000    0.0000    DR    ALL  0       0  
M  SED   1 IMPL_H1
M  END
>  <Name_Molregno>
615576

>  <DOPAMINE D1>
5

>  <DOPAMINE D2>
5

>  <DOPAMINE D3>
5

>  <DOPAMINE D5>
5

$$$$
615577
  Marvin  02231216192D 0   1.00000     0.00000     0

 21 25  0  0  1  0  0  0  0  0999 V2000
   -0.1833   -2.7968    0.0000 N   0  0  0  0  0  0  0  0  0
   -0.9982   -2.6686    0.0000 C   0  0  0  0  0  0  0  0  0
   -1.6388   -3.1885    0.0000 C   0  0  0  0  0  0  0  0  0
   -2.4094   -2.8936    0.0000 C   0  0  0  0  0  0  0  0  0
   -2.5393   -2.0789    0.0000 N   0  0  0  0  0  0  0  0  0
   -1.8987   -1.5591    0.0000 C   0  0  0  0  0  0  0  0  0
   -1.1282   -1.8539    0.0000 C   0  0  0  0  0  0  0  0  0
   -0.3935   -1.4786    0.0000 C   0  0  0  0  0  0  0  0  0
    0.1905   -2.0613    0.0000 C   0  0  0  0  0  0  0  0  0
    0.9872   -1.8470    0.0000 C   0  0  0  0  0  0  0  0  0
    1.1998   -1.0499    0.0000 C   0  0  0  0  0  0  0  0  0
    0.6159   -0.4671    0.0000 C   0  0  0  0  0  0  0  0  0
   -0.1808   -0.6815    0.0000 C   0  0  0  0  0  0  0  0  0
   -2.0286   -0.7444    0.0000 C   0  0  0  0  0  0  0  0  0
   -2.7991   -0.4495    0.0000 C   0  0  0  0  0  0  0  0  0
   -3.4397   -0.9694    0.0000 C   0  0  0  0  0  0  0  0  0
   -3.3098   -1.7841    0.0000 C   0  0  0  0  0  0  0  0  0
   -2.9290    0.3652    0.0000 C   0  0  0  0  0  0  0  0  0
   -2.2884    0.8851    0.0000 C   0  0  0  0  0  0  0  0  0
   -1.5179    0.5902    0.0000 C   0  0  0  0  0  0  0  0  0
   -1.3880   -0.2245    0.0000 C   0  0  0  0  0  0  0  0  0
  1  2  4  0  0  0  0
  1  9  4  0  0  0  0
  2  3  1  0  0  0  0
  2  7  4  0  0  0  0
  3  4  1  0  0  0  0
  4  5  1  0  0  0  0
  5  6  1  0  0  0  0
  5 17  1  0  0  0  0
  6  7  1  0  0  0  0
  6 14  1  0  0  0  0
  7  8  4  0  0  0  0
  8  9  4  0  0  0  0
  8 13  4  0  0  0  0
  9 10  4  0  0  0  0
 10 11  4  0  0  0  0
 11 12  4  0  0  0  0
 12 13  4  0  0  0  0
 14 15  4  0  0  0  0
 14 21  4  0  0  0  0
 15 16  1  0  0  0  0
 15 18  4  0  0  0  0
 16 17  1  0  0  0  0
 18 19  4  0  0  0  0
 19 20  4  0  0  0  0
 20 21  4  0  0  0  0
M  STY  1   1 DAT
M  SAL   1  1   1
M  SDT   1 MRV_IMPLICIT_H                                        
M  SDD   1     0.0000    0.0000    DR    ALL  0       0  
M  SED   1 IMPL_H1
M  END
>  <Name_Molregno>
615577

>  <DOPAMINE D1>
5.68

>  <DOPAMINE D2>
5.83

>  <DOPAMINE D3>
5

>  <DOPAMINE D5>
5

$$$$
615578
  Marvin  02231216192D 0   1.00000     0.00000     0

 21 25  0  0  1  0  0  0  0  0999 V2000
    0.2484   -2.9047    0.0000 N   0  0  0  0  0  0  0  0  0
   -0.3743   -2.3635    0.0000 C   0  0  0  0  0  0  0  0  0
   -0.0520   -1.6040    0.0000 C   0  0  0  0  0  0  0  0  0
   -0.5082   -0.9167    0.0000 C   0  0  0  0  0  0  0  0  0
   -0.2553   -0.1314    0.0000 C   0  0  0  0  0  0  0  0  0
    0.5163    0.1605    0.0000 C   0  0  0  0  0  0  0  0  0
    1.2256   -0.2608    0.0000 N   0  0  0  0  0  0  0  0  0
    1.3385   -1.0781    0.0000 C   0  0  0  0  0  0  0  0  0
    2.1026   -1.3890    0.0000 C   0  0  0  0  0  0  0  0  0
    2.7540   -0.8826    0.0000 C   0  0  0  0  0  0  0  0  0
    2.6411   -0.0654    0.0000 C   0  0  0  0  0  0  0  0  0
    1.8770    0.2455    0.0000 C   0  0  0  0  0  0  0  0  0
    3.5182   -1.1935    0.0000 C   0  0  0  0  0  0  0  0  0
    3.6310   -2.0108    0.0000 C   0  0  0  0  0  0  0  0  0
    2.9797   -2.5171    0.0000 C   0  0  0  0  0  0  0  0  0
    2.2155   -2.2062    0.0000 C   0  0  0  0  0  0  0  0  0
    0.7699   -1.6759    0.0000 C   0  0  0  0  0  0  0  0  0
    0.9555   -2.4797    0.0000 C   0  0  0  0  0  0  0  0  0
   -1.3674   -1.0458    0.0000 C   0  0  0  0  0  0  0  0  0
   -1.6897   -1.8052    0.0000 C   0  0  0  0  0  0  0  0  0
   -1.1931   -2.4641    0.0000 C   0  0  0  0  0  0  0  0  0
  1  2  4  0  0  0  0
  1 18  4  0  0  0  0
  2  3  4  0  0  0  0
  2 21  4  0  0  0  0
  3  4  4  0  0  0  0
  3 17  4  0  0  0  0
  4  5  1  0  0  0  0
  4 19  4  0  0  0  0
  5  6  1  0  0  0  0
  6  7  1  0  0  0  0
  7  8  1  0  0  0  0
  7 12  1  0  0  0  0
  8  9  1  0  0  0  0
  8 17  1  0  0  0  0
  9 10  4  0  0  0  0
  9 16  4  0  0  0  0
 10 11  1  0  0  0  0
 10 13  4  0  0  0  0
 11 12  1  0  0  0  0
 13 14  4  0  0  0  0
 14 15  4  0  0  0  0
 15 16  4  0  0  0  0
 17 18  4  0  0  0  0
 19 20  4  0  0  0  0
 20 21  4  0  0  0  0
M  STY  1   1 DAT
M  SAL   1  1   1
M  SDT   1 MRV_IMPLICIT_H                                        
M  SDD   1     0.0000    0.0000    DR    ALL  0       0  
M  SED   1 IMPL_H1
M  END
>  <Name_Molregno>
615578

>  <DOPAMINE D1>
5.74

>  <DOPAMINE D2>
5.35

>  <DOPAMINE D3>
5

>  <DOPAMINE D5>
5.82

$$$$
615579
  Marvin  02231216192D 0   1.00000     0.00000     0

 21 24  0  0  0  0  0  0  0  0999 V2000
    0.1059   -3.4197    0.0000 N   0  0  0  0  0  0  0  0  0
   -0.0656   -2.6127    0.0000 C   0  0  0  0  0  0  0  0  0
    0.6489   -2.2002    0.0000 C   0  0  0  0  0  0  0  0  0
    0.6489   -1.3752    0.0000 C   0  0  0  0  0  0  0  0  0
    1.3634   -0.9627    0.0000 C   0  0  0  0  0  0  0  0  0
    1.3634   -0.1377    0.0000 N   0  0  0  0  0  0  0  0  0
    2.0778    0.2748    0.0000 C   0  0  0  0  0  0  0  0  0
    2.7923   -0.1377    0.0000 C   0  0  0  0  0  0  0  0  0
    2.7923   -0.9627    0.0000 C   0  0  0  0  0  0  0  0  0
    2.0778   -1.3752    0.0000 C   0  0  0  0  0  0  0  0  0
    2.4159   -2.1096    0.0000 C   0  0  0  0  0  0  0  0  0
    1.3634   -2.6127    0.0000 C   0  0  0  0  0  0  0  0  0
    0.9264   -3.5059    0.0000 C   0  0  0  0  0  0  0  0  0
    2.0778   -2.2002    0.0000 C   0  0  0  0  0  0  0  0  0
    2.7923   -2.6127    0.0000 C   0  0  0  0  0  0  0  0  0
    3.5068   -2.2002    0.0000 C   0  0  0  0  0  0  0  0  0
    3.5068   -1.3752    0.0000 C   0  0  0  0  0  0  0  0  0
    0.6489    0.2748    0.0000 C   0  0  0  0  0  0  0  0  0
   -0.0656   -0.9627    0.0000 C   0  0  0  0  0  0  0  0  0
   -0.7801   -1.3752    0.0000 C   0  0  0  0  0  0  0  0  0
   -0.7801   -2.2002    0.0000 C   0  0  0  0  0  0  0  0  0
  1  2  4  0  0  0  0
  1 13  4  0  0  0  0
  2  3  4  0  0  0  0
  2 21  4  0  0  0  0
  3  4  4  0  0  0  0
  3 12  4  0  0  0  0
  4  5  1  0  0  0  0
  4 19  4  0  0  0  0
  5  6  1  0  0  0  0
  6  7  1  0  0  0  0
  6 18  1  0  0  0  0
  7  8  1  0  0  0  0
  8  9  1  0  0  0  0
  9 10  4  0  0  0  0
  9 17  4  0  0  0  0
 10 11  1  0  0  0  0
 10 14  4  0  0  0  0
 11 12  1  0  0  0  0
 12 13  4  0  0  0  0
 14 15  4  0  0  0  0
 15 16  4  0  0  0  0
 16 17  4  0  0  0  0
 19 20  4  0  0  0  0
 20 21  4  0  0  0  0
M  STY  1   1 DAT
M  SAL   1  1   1
M  SDT   1 MRV_IMPLICIT_H                                        
M  SDD   1     0.0000    0.0000    DR    ALL  0       0  
M  SED   1 IMPL_H1
M  END
>  <Name_Molregno>
615579

>  <DOPAMINE D1>
5

>  <DOPAMINE D2>
5

>  <DOPAMINE D3>
5

>  <DOPAMINE D5>
5

$$$$
676249
  Marvin  02231216192D 0   1.00000     0.00000     0

 21 23  0  0  0  0  0  0  0  0999 V2000
    0.9495    0.2481    0.0000 O   0  0  0  0  0  0  0  0  0
    0.9495   -0.5769    0.0000 C   0  0  0  0  0  0  0  0  0
    1.6639   -0.9894    0.0000 C   0  0  0  0  0  0  0  0  0
    1.6639   -1.8144    0.0000 C   0  0  0  0  0  0  0  0  0
    2.3784   -2.2269    0.0000 C   0  0  0  0  0  0  0  0  0
    3.0929   -1.8144    0.0000 C   0  0  0  0  0  0  0  0  0
    3.8073   -2.2269    0.0000 C   0  0  0  0  0  0  0  0  0
    3.8073   -3.0519    0.0000 C   0  0  0  0  0  0  0  0  0
    3.0929   -3.4644    0.0000 C   0  0  0  0  0  0  0  0  0
    2.3784   -3.0519    0.0000 N   0  0  0  0  0  0  0  0  0
    1.6639   -3.4644    0.0000 C   0  0  0  0  0  0  0  0  0
    0.9495   -3.0519    0.0000 C   0  0  0  0  0  0  0  0  0
    0.9495   -2.2269    0.0000 C   0  0  0  0  0  0  0  0  0
    0.2350   -1.8144    0.0000 C   0  0  0  0  0  0  0  0  0
    0.2350   -0.9894    0.0000 C   0  0  0  0  0  0  0  0  0
   -0.4795   -0.5769    0.0000 O   0  0  0  0  0  0  0  0  0
    1.8935   -2.3844    0.0000 C   0  0  0  0  0  0  0  0  0
    4.5218   -1.8144    0.0000 C   0  0  0  0  0  0  0  0  0
    4.5218   -0.9894    0.0000 C   0  0  0  0  0  0  0  0  0
    3.8073   -0.5769    0.0000 C   0  0  0  0  0  0  0  0  0
    3.0929   -0.9894    0.0000 C   0  0  0  0  0  0  0  0  0
  1  2  1  0  0  0  0
  2  3  4  0  0  0  0
  2 15  4  0  0  0  0
  3  4  4  0  0  0  0
  4  5  1  0  0  0  0
  4 13  4  0  0  0  0
  5  6  1  0  0  0  0
  6  7  4  0  0  0  0
  6 21  4  0  0  0  0
  7  8  1  0  0  0  0
  7 18  4  0  0  0  0
  8  9  1  0  0  0  0
  9 10  1  0  0  0  0
 10 11  1  0  0  0  0
 10 17  1  0  0  0  0
 11 12  1  0  0  0  0
 12 13  1  0  0  0  0
 13 14  4  0  0  0  0
 14 15  4  0  0  0  0
 15 16  1  0  0  0  0
 18 19  4  0  0  0  0
 19 20  4  0  0  0  0
 20 21  4  0  0  0  0
M  END
>  <Name_Molregno>
676249

>  <DOPAMINE D1>
7.07

>  <DOPAMINE D2>
6.24

>  <DOPAMINE D4>
6.78

>  <DOPAMINE D5>
7.3

$$$$
5-Hydroxy-Tryptamine
  Marvin  02231216192D 0   1.00000     0.00000     0

 13 14  0  0  0  0  0  0  0  0999 V2000
    0.1644   -1.0899    0.0000 O   0  0  0  0  0  0  0  0  0
   -0.5501   -0.6774    0.0000 C   0  0  0  0  0  0  0  0  0
   -1.2645   -1.0899    0.0000 C   0  0  0  0  0  0  0  0  0
   -1.9790   -0.6774    0.0000 C   0  0  0  0  0  0  0  0  0
   -1.9790    0.1476    0.0000 C   0  0  0  0  0  0  0  0  0
   -2.7636    0.4026    0.0000 N   0  0  0  0  0  0  0  0  0
   -3.2486   -0.2649    0.0000 C   0  0  0  0  0  0  0  0  0
   -2.7636   -0.9323    0.0000 C   0  0  0  0  0  0  0  0  0
   -3.0186   -1.7169    0.0000 C   0  0  0  0  0  0  0  0  0
   -3.8255   -1.8885    0.0000 C   0  0  0  0  0  0  0  0  0
   -4.0805   -2.6731    0.0000 N   0  0  0  0  0  0  0  0  0
   -1.2645    0.5601    0.0000 C   0  0  0  0  0  0  0  0  0
   -0.5501    0.1476    0.0000 C   0  0  0  0  0  0  0  0  0
  1  2  1  0  0  0  0
  2  3  4  0  0  0  0
  2 13  4  0  0  0  0
  3  4  4  0  0  0  0
  4  5  4  0  0  0  0
  4  8  4  0  0  0  0
  5  6  4  0  0  0  0
  5 12  4  0  0  0  0
  6  7  4  0  0  0  0
  7  8  4  0  0  0  0
  8  9  1  0  0  0  0
  9 10  1  0  0  0  0
 10 11  1  0  0  0  0
 12 13  4  0  0  0  0
M  STY  1   1 DAT
M  SAL   1  1   6
M  SDT   1 MRV_IMPLICIT_H                                        
M  SDD   1     0.0000    0.0000    DR    ALL  0       0  
M  SED   1 IMPL_H1
M  END
>  <Name_Molregno>
5-Hydroxy-Tryptamine

>  <5-HT1A>
8.25

>  <5-HT1B>
8.48

>  <5-HT1D>
8.54

>  <5-HT1E>
8.23

>  <5-HT2A>
7.1

>  <5-HT2C>
7.9

>  <5-HT3>
5.99

>  <5-HT5>
6.9

>  <5-HT6>
7.1

>  <5-HT7>
8.48

>  <DOPAMINE D1>
5.01

>  <DOPAMINE D2>
5

>  <DOPAMINE D5>
5.52

>  <Dopamine transporter>
5

$$$$
8-Chloro-11-{4-[4-(3-piperidin-1-yl-propoxy)-benzyl]-piperazin-1-yl}-5H-dibenzo[
  Marvin  02231216192D 0   1.00000     0.00000     0

  8  7  0  0  0  0  0  0  0  0999 V2000
   -0.0537   -0.0112    0.0000 O   0  0  0  0  0  0  0  0  0
    0.6607   -0.4238    0.0000 N   0  0  0  0  0  0  0  0  0
    1.3752   -0.0112    0.0000 N   0  0  0  0  0  0  0  0  0
    2.0897   -0.4238    0.0000 C   0  0  0  0  0  0  0  0  0
    2.8041   -0.0113    0.0000 C   0  0  0  0  0  0  0  0  0
    3.5186   -0.4238    0.0000 C   0  0  0  0  0  0  0  0  0
    4.2331   -0.0113    0.0000 C   0  0  0  0  0  0  0  0  0
    1.3752    0.8138    0.0000 C   0  0  0  0  0  0  0  0  0
  1  2  2  0  0  0  0
  2  3  1  0  0  0  0
  3  4  1  0  0  0  0
  3  8  1  0  0  0  0
  4  5  1  0  0  0  0
  5  6  1  0  0  0  0
  6  7  1  0  0  0  0
M  END
>  <Name_Molregno>
8-Chloro-11-{4-[4-(3-piperidin-1-yl-propoxy)-benzyl]-piperazin-1-yl}-5H-dibenzo[b,e][1,4]diazepine

>  <DOPAMINE D1>
6.06

>  <DOPAMINE D2>
6.55

>  <DOPAMINE D3>
6.65

>  <DOPAMINE D5>
6.04

>  <HISTAMINE H1>
6.72

>  <HISTAMINE H3>
8.49

$$$$
9-OH-risperidone
  Marvin  02231216192D 0   1.00000     0.00000     0

 31 35  0  0  1  0  0  0  0  0999 V2000
    1.7758   -2.6889    0.0000 F   0  0  0  0  0  0  0  0  0
    2.0308   -1.9043    0.0000 C   0  0  0  0  0  0  0  0  0
    1.4788   -1.2912    0.0000 C   0  0  0  0  0  0  0  0  0
    1.7337   -0.5066    0.0000 C   0  0  0  0  0  0  0  0  0
    1.3212    0.2079    0.0000 O   0  0  0  0  0  0  0  0  0
    1.8732    0.8210    0.0000 N   0  0  0  0  0  0  0  0  0
    2.6269    0.4854    0.0000 C   0  0  0  0  0  0  0  0  0
    2.5407   -0.3350    0.0000 C   0  0  0  0  0  0  0  0  0
    3.0927   -0.9481    0.0000 C   0  0  0  0  0  0  0  0  0
    2.8378   -1.7327    0.0000 C   0  0  0  0  0  0  0  0  0
    3.3414    0.8979    0.0000 C   0  0  0  0  0  0  0  0  0
    3.3414    1.7229    0.0000 C   0  0  0  0  0  0  0  0  0
    4.0558    2.1354    0.0000 C   0  0  0  0  0  0  0  0  0
    4.7703    1.7229    0.0000 N   0  0  0  0  0  0  0  0  0
    4.7703    0.8979    0.0000 C   0  0  0  0  0  0  0  0  0
    4.0558    0.4854    0.0000 C   0  0  0  0  0  0  0  0  0
    5.4848    2.1354    0.0000 C   0  0  0  0  0  0  0  0  0
    6.1993    1.7229    0.0000 C   0  0  0  0  0  0  0  0  0
    6.9137    2.1354    0.0000 C   0  0  0  0  0  0  0  0  0
    7.6282    1.7229    0.0000 C   0  0  0  0  0  0  0  0  0
    7.6282    0.8979    0.0000 O   0  0  0  0  0  0  0  0  0
    8.3427    2.1354    0.0000 N   0  0  0  0  0  0  0  0  0
    8.3427    2.9604    0.0000 C   0  0  0  0  0  0  0  0  0
    7.6282    3.3729    0.0000 N   0  0  0  0  0  0  0  0  0
    6.9137    2.9604    0.0000 C   0  0  0  0  0  0  0  0  0
    6.1993    3.3729    0.0000 C   0  0  0  0  0  0  0  0  0
    9.0571    3.3729    0.0000 C   0  0  0  0  0  0  0  0  0
    9.0571    4.1979    0.0000 O   0  0  0  0  0  0  0  0  0
    9.7716    2.9604    0.0000 C   0  0  0  0  0  0  0  0  0
    9.7716    2.1354    0.0000 C   0  0  0  0  0  0  0  0  0
    9.0571    1.7229    0.0000 C   0  0  0  0  0  0  0  0  0
  1  2  1  0  0  0  0
  2  3  4  0  0  0  0
  2 10  4  0  0  0  0
  3  4  4  0  0  0  0
  4  5  4  0  0  0  0
  4  8  4  0  0  0  0
  5  6  4  0  0  0  0
  6  7  4  0  0  0  0
  7  8  4  0  0  0  0
  7 11  1  0  0  0  0
  8  9  4  0  0  0  0
  9 10  4  0  0  0  0
 11 12  1  0  0  0  0
 11 16  1  0  0  0  0
 12 13  1  0  0  0  0
 13 14  1  0  0  0  0
 14 15  1  0  0  0  0
 14 17  1  0  0  0  0
 15 16  1  0  0  0  0
 17 18  1  0  0  0  0
 18 19  1  0  0  0  0
 19 20  1  0  0  0  0
 19 25  2  0  0  0  0
 20 21  2  0  0  0  0
 20 22  1  0  0  0  0
 22 23  1  0  0  0  0
 22 31  1  0  0  0  0
 23 24  2  0  0  0  0
 23 27  1  0  0  0  0
 24 25  1  0  0  0  0
 25 26  1  0  0  0  0
 27 28  1  0  0  0  0
 27 29  1  0  0  0  0
 29 30  1  0  0  0  0
 30 31  1  0  0  0  0
M  END
>  <Name_Molregno>
9-OH-risperidone

>  <5-HT1A>
6.24

>  <5-HT1B>
7.51

>  <5-HT1D>
7.44

>  <5-HT1E>
5.49

>  <5-HT2A>
9

>  <5-HT2C>
7.32

>  <5-HT3>
5

>  <5-HT5>
6.56

>  <5-HT6>
5.62

>  <5-HT7>
8.57

>  <Alpha-1A>
8.6

>  <Alpha-1B>
9.15

>  <Alpha-2A>
7.92

>  <Alpha-2B>
7.63

>  <Alpha-2C>
8.2

>  <Beta-1>
5.15

>  <Beta-2>
5.15

>  <DOPAMINE D1>
7.39

>  <DOPAMINE D2>
8.61

>  <DOPAMINE D3>
9.07

>  <DOPAMINE D4>
7.4

>  <DOPAMINE D5>
7.54

>  <Dopamine transporter>
5

>  <HISTAMINE H1>
8.07

>  <HISTAMINE H2>
6.92

>  <HISTAMINE H4>
5.06

>  <Muscarinic acetylcholine receptor M1>
5

>  <Muscarinic acetylcholine receptor M2>
5

>  <Muscarinic acetylcholine receptor M3>
5

>  <Muscarinic acetylcholine receptor M4>
5

>  <Muscarinic acetylcholine receptor M5>
5

>  <Norepinephrine transporter>
5

>  <Serotonin transporter>
5.71

$$$$
A77636
  Marvin  02231216192D 0   1.00000     0.00000     0

 24 28  0  0  1  0  0  0  0  0999 V2000
    1.0832   -0.7966    0.0000 O   0  0  0  0  0  0  0  0  0
    0.3687   -0.3841    0.0000 C   0  0  0  0  0  0  0  0  0
   -0.3458   -0.7967    0.0000 C   0  0  0  0  0  0  0  0  0
   -0.3457   -1.6217    0.0000 C   0  0  0  0  0  0  0  0  0
    0.3688   -2.0341    0.0000 C   0  0  0  0  0  0  0  0  0
    0.3688   -2.8591    0.0000 C   0  0  0  0  0  0  0  0  0
   -0.3456   -3.2717    0.0000 C   0  0  0  0  0  0  0  0  0
   -1.0601   -2.8592    0.0000 C   0  0  0  0  0  0  0  0  0
   -1.7746   -3.2718    0.0000 O   0  0  0  0  0  0  0  0  0
   -1.0602   -2.0342    0.0000 C   0  0  0  0  0  0  0  0  0
   -1.7747   -1.6218    0.0000 O   0  0  0  0  0  0  0  0  0
    1.0832   -1.6216    0.0000 C   0  0  0  0  0  0  0  0  0
    1.7977   -2.0341    0.0000 C   0  0  0  0  0  0  0  0  0
    1.7978   -2.8591    0.0000 N   0  0  0  0  0  0  0  0  0
    0.3686    0.4409    0.0000 C   0  0  0  0  0  0  0  0  0
   -0.3668    0.0672    0.0000 C   0  0  0  0  0  0  0  0  0
    0.0826    0.8575    0.0000 C   0  0  0  0  0  0  0  0  0
    0.0826    1.6049    0.0000 C   0  0  0  0  0  0  0  0  0
    0.8181    1.9786    0.0000 C   0  0  0  0  0  0  0  0  0
    0.3686    1.1883    0.0000 C   0  0  0  0  0  0  0  0  0
    1.5537    1.6049    0.0000 C   0  0  0  0  0  0  0  0  0
    1.5537    0.8575    0.0000 C   0  0  0  0  0  0  0  0  0
    1.1042    0.0672    0.0000 C   0  0  0  0  0  0  0  0  0
    0.8181    0.4838    0.0000 C   0  0  0  0  0  0  0  0  0
  1  2  1  0  0  0  0
  1 12  1  0  0  0  0
  2  3  1  0  0  0  0
  2 15  1  0  0  0  0
  3  4  1  0  0  0  0
  4  5  4  0  0  0  0
  4 10  4  0  0  0  0
  5  6  4  0  0  0  0
  5 12  1  0  0  0  0
  6  7  4  0  0  0  0
  7  8  4  0  0  0  0
  8  9  1  0  0  0  0
  8 10  4  0  0  0  0
 10 11  1  0  0  0  0
 12 13  1  0  0  0  0
 13 14  1  0  0  0  0
 15 16  1  0  0  0  0
 22 24  1  0  0  0  0
 15 23  1  0  0  0  0
 16 17  1  0  0  0  0
 22 23  1  0  0  0  0
 17 24  1  0  0  0  0
 18 19  1  0  0  0  0
 19 20  1  0  0  0  0
 19 21  1  0  0  0  0
 21 22  1  0  0  0  0
 17 18  1  0  0  0  0
 15 20  1  0  0  0  0
M  END
>  <Name_Molregno>
A77636

>  <DOPAMINE D1>
7.68

>  <DOPAMINE D2>
5.81

$$$$
Acetylsalicylic-acid
  Marvin  02231216192D 0   1.00000     0.00000     0

 13 13  0  0  0  0  0  0  0  0999 V2000
    0.0203    0.5019    0.0000 O   0  0  0  0  0  0  0  0  0
    0.7347    0.0894    0.0000 C   0  0  0  0  0  0  0  0  0
    1.4492    0.5019    0.0000 O   0  0  0  0  0  0  0  0  0
    0.7347   -0.7356    0.0000 C   0  0  0  0  0  0  0  0  0
   -0.6942    0.0894    0.0000 C   0  0  0  0  0  0  0  0  0
   -0.6942   -0.7356    0.0000 C   0  0  0  0  0  0  0  0  0
   -1.4087   -1.1481    0.0000 C   0  0  0  0  0  0  0  0  0
   -2.1232   -0.7356    0.0000 C   0  0  0  0  0  0  0  0  0
   -2.1232    0.0894    0.0000 C   0  0  0  0  0  0  0  0  0
   -1.4087    0.5019    0.0000 C   0  0  0  0  0  0  0  0  0
   -1.4087    1.3269    0.0000 C   0  0  0  0  0  0  0  0  0
   -2.1232    1.7394    0.0000 O   0  0  0  0  0  0  0  0  0
   -0.6942    1.7394    0.0000 O   0  0  0  0  0  0  0  0  0
  1  2  1  0  0  0  0
  1  5  1  0  0  0  0
  2  3  2  0  0  0  0
  2  4  1  0  0  0  0
  5  6  4  0  0  0  0
  5 10  4  0  0  0  0
  6  7  4  0  0  0  0
  7  8  4  0  0  0  0
  8  9  4  0  0  0  0
  9 10  4  0  0  0  0
 10 11  1  0  0  0  0
 11 12  1  0  0  0  0
 11 13  2  0  0  0  0
M  END
>  <Name_Molregno>
Acetylsalicylic-acid

>  <5-HT1A>
5

>  <5-HT1B>
5

>  <5-HT1D>
5

>  <5-HT2A>
5

>  <5-HT3>
5

>  <5-HT5>
5

>  <5-HT6>
5

>  <5-HT7>
5

>  <Alpha-1A>
5

>  <Alpha-1B>
5

>  <Alpha-2A>
5

>  <Alpha-2B>
5

>  <Alpha-2C>
5

>  <DOPAMINE D1>
5

>  <DOPAMINE D2>
5

>  <DOPAMINE D4>
5

>  <DOPAMINE D5>
5

>  <HISTAMINE H1>
5

>  <HISTAMINE H2>
5

>  <Muscarinic acetylcholine receptor M2>
5

>  <Muscarinic acetylcholine receptor M5>
5

$$$$
ADTN-2
  Marvin  02231216192D 0   1.00000     0.00000     0

 16 16  0  0  0  0  0  0  0  0999 V2000
    2.6449   -2.9002    0.0000 O   0  0  0  0  0  0  0  0  0
    2.1532   -2.2378    0.0000 C   0  0  0  0  0  0  0  0  0
    1.3336   -2.3324    0.0000 N   0  0  0  0  0  0  0  0  0
    0.8419   -1.6700    0.0000 C   0  0  0  0  0  0  0  0  0
    1.1697   -0.9129    0.0000 C   0  0  0  0  0  0  0  0  0
    0.6780   -0.2505    0.0000 C   0  0  0  0  0  0  0  0  0
    1.0058    0.5066    0.0000 C   0  0  0  0  0  0  0  0  0
    1.8254    0.6012    0.0000 C   0  0  0  0  0  0  0  0  0
    2.1532    1.3583    0.0000 C   0  0  0  0  0  0  0  0  0
    1.6615    2.0207    0.0000 O   0  0  0  0  0  0  0  0  0
    2.9728    1.4529    0.0000 N   0  0  0  0  0  0  0  0  0
    3.4645    0.7905    0.0000 C   0  0  0  0  0  0  0  0  0
    3.1367    0.0334    0.0000 C   0  0  0  0  0  0  0  0  0
    3.6284   -0.6290    0.0000 C   0  0  0  0  0  0  0  0  0
    3.3006   -1.3861    0.0000 C   0  0  0  0  0  0  0  0  0
    2.4810   -1.4807    0.0000 C   0  0  0  0  0  0  0  0  0
  1  2  2  0  0  0  0
  2  3  1  0  0  0  0
  2 16  1  0  0  0  0
  3  4  1  0  0  0  0
  4  5  1  0  0  0  0
  5  6  1  0  0  0  0
  6  7  1  0  0  0  0
  7  8  1  0  0  0  0
  8  9  1  0  0  0  0
  9 10  2  0  0  0  0
  9 11  1  0  0  0  0
 11 12  1  0  0  0  0
 12 13  1  0  0  0  0
 13 14  1  0  0  0  0
 14 15  1  0  0  0  0
 15 16  1  0  0  0  0
M  END
>  <Name_Molregno>
ADTN-2

>  <DOPAMINE D1>
5.34

>  <DOPAMINE D2>
6.23

>  <DOPAMINE D4>
6.41

>  <DOPAMINE D5>
6.04

$$$$
Amentoflavone
  Marvin  02231216192D 0   1.00000     0.00000     0

 40 45  0  0  0  0  0  0  0  0999 V2000
   -3.5941   -0.9772    0.0000 O   0  0  0  0  0  0  0  0  0
   -3.5941   -0.1522    0.0000 C   0  0  0  0  0  0  0  0  0
   -4.3085    0.2603    0.0000 C   0  0  0  0  0  0  0  0  0
   -5.0230   -0.1522    0.0000 C   0  0  0  0  0  0  0  0  0
   -5.7375    0.2603    0.0000 O   0  0  0  0  0  0  0  0  0
   -5.0230   -0.9772    0.0000 C   0  0  0  0  0  0  0  0  0
   -4.3085   -1.3897    0.0000 C   0  0  0  0  0  0  0  0  0
   -4.3085   -2.2147    0.0000 C   0  0  0  0  0  0  0  0  0
   -3.5941   -2.6272    0.0000 C   0  0  0  0  0  0  0  0  0
   -3.5941   -3.4522    0.0000 C   0  0  0  0  0  0  0  0  0
   -4.3085   -3.8647    0.0000 C   0  0  0  0  0  0  0  0  0
   -4.3085   -4.6897    0.0000 O   0  0  0  0  0  0  0  0  0
   -5.0230   -3.4522    0.0000 C   0  0  0  0  0  0  0  0  0
   -5.0230   -2.6272    0.0000 C   0  0  0  0  0  0  0  0  0
   -4.3085    1.0853    0.0000 C   0  0  0  0  0  0  0  0  0
   -5.0230    1.4978    0.0000 O   0  0  0  0  0  0  0  0  0
   -3.5941    1.4978    0.0000 C   0  0  0  0  0  0  0  0  0
   -2.8796    1.0853    0.0000 C   0  0  0  0  0  0  0  0  0
   -2.1651    1.4978    0.0000 O   0  0  0  0  0  0  0  0  0
   -2.8796    0.2603    0.0000 C   0  0  0  0  0  0  0  0  0
   -2.1651   -0.1522    0.0000 C   0  0  0  0  0  0  0  0  0
   -1.4507    0.2603    0.0000 C   0  0  0  0  0  0  0  0  0
   -0.7362   -0.1522    0.0000 C   0  0  0  0  0  0  0  0  0
   -0.7362   -0.9772    0.0000 C   0  0  0  0  0  0  0  0  0
   -1.4507   -1.3897    0.0000 C   0  0  0  0  0  0  0  0  0
   -2.1651   -0.9772    0.0000 C   0  0  0  0  0  0  0  0  0
   -2.8796   -1.3897    0.0000 O   0  0  0  0  0  0  0  0  0
   -0.0217    0.2603    0.0000 C   0  0  0  0  0  0  0  0  0
    0.6928   -0.1522    0.0000 O   0  0  0  0  0  0  0  0  0
    1.4072    0.2603    0.0000 C   0  0  0  0  0  0  0  0  0
    1.4072    1.0853    0.0000 C   0  0  0  0  0  0  0  0  0
    0.6928    1.4978    0.0000 C   0  0  0  0  0  0  0  0  0
    0.6928    2.3228    0.0000 O   0  0  0  0  0  0  0  0  0
   -0.0217    1.0853    0.0000 C   0  0  0  0  0  0  0  0  0
    2.1217    1.4978    0.0000 C   0  0  0  0  0  0  0  0  0
    2.1217    2.3228    0.0000 O   0  0  0  0  0  0  0  0  0
    2.8362    1.0853    0.0000 C   0  0  0  0  0  0  0  0  0
    2.8362    0.2603    0.0000 C   0  0  0  0  0  0  0  0  0
    3.5506   -0.1522    0.0000 O   0  0  0  0  0  0  0  0  0
    2.1217   -0.1522    0.0000 C   0  0  0  0  0  0  0  0  0
  1  2  1  0  0  0  0
  1  7  1  0  0  0  0
  2  3  4  0  0  0  0
  2 20  4  0  0  0  0
  3  4  1  0  0  0  0
  3 15  4  0  0  0  0
  4  5  2  0  0  0  0
  4  6  1  0  0  0  0
  6  7  2  0  0  0  0
  7  8  1  0  0  0  0
  8  9  4  0  0  0  0
  8 14  4  0  0  0  0
  9 10  4  0  0  0  0
 10 11  4  0  0  0  0
 11 12  1  0  0  0  0
 11 13  4  0  0  0  0
 13 14  4  0  0  0  0
 15 16  1  0  0  0  0
 15 17  4  0  0  0  0
 17 18  4  0  0  0  0
 18 19  1  0  0  0  0
 18 20  4  0  0  0  0
 20 21  1  0  0  0  0
 21 22  4  0  0  0  0
 21 26  4  0  0  0  0
 22 23  4  0  0  0  0
 23 24  4  0  0  0  0
 23 28  1  0  0  0  0
 24 25  4  0  0  0  0
 25 26  4  0  0  0  0
 26 27  1  0  0  0  0
 28 29  1  0  0  0  0
 28 34  2  0  0  0  0
 29 30  1  0  0  0  0
 30 31  4  0  0  0  0
 30 40  4  0  0  0  0
 31 32  1  0  0  0  0
 31 35  4  0  0  0  0
 32 33  2  0  0  0  0
 32 34  1  0  0  0  0
 35 36  1  0  0  0  0
 35 37  4  0  0  0  0
 37 38  4  0  0  0  0
 38 39  1  0  0  0  0
 38 40  4  0  0  0  0
M  END
>  <Name_Molregno>
Amentoflavone

>  <5-HT1A>
5

>  <5-HT1B>
5.39

>  <5-HT1D>
5

>  <5-HT2C>
5.59

>  <5-HT3>
5

>  <5-HT5>
5

>  <5-HT6>
5

>  <5-HT7>
5

>  <Alpha-1A>
5

>  <Alpha-1B>
5

>  <Alpha-2A>
5

>  <Alpha-2B>
5

>  <Alpha-2C>
5

>  <DOPAMINE D1>
5

>  <DOPAMINE D5>
5

>  <Muscarinic acetylcholine receptor M1>
5

>  <Muscarinic acetylcholine receptor M2>
5

>  <Muscarinic acetylcholine receptor M3>
5

>  <Muscarinic acetylcholine receptor M4>
5

>  <Muscarinic acetylcholine receptor M5>
5

>  <Norepinephrine transporter>
5

>  <Serotonin transporter>
5

$$$$
AMITRIPTYLINE
  Marvin  02231216192D 0   1.00000     0.00000     0

 21 23  0  0  0  0  0  0  0  0999 V2000
    0.4326    2.9044    0.0000 N   0  0  0  0  0  0  0  0  0
    1.1470    2.4919    0.0000 C   0  0  0  0  0  0  0  0  0
    1.8615    2.9044    0.0000 C   0  0  0  0  0  0  0  0  0
    2.5760    2.4919    0.0000 C   0  0  0  0  0  0  0  0  0
    2.5760    1.6669    0.0000 C   0  0  0  0  0  0  0  0  0
    3.3193    1.3089    0.0000 C   0  0  0  0  0  0  0  0  0
    3.5029    0.5046    0.0000 C   0  0  0  0  0  0  0  0  0
    2.9885   -0.1404    0.0000 C   0  0  0  0  0  0  0  0  0
    2.1635   -0.1404    0.0000 C   0  0  0  0  0  0  0  0  0
    1.6491    0.5046    0.0000 C   0  0  0  0  0  0  0  0  0
    1.8327    1.3089    0.0000 C   0  0  0  0  0  0  0  0  0
    1.2279    1.8701    0.0000 C   0  0  0  0  0  0  0  0  0
    0.4396    1.6269    0.0000 C   0  0  0  0  0  0  0  0  0
    0.2560    0.8226    0.0000 C   0  0  0  0  0  0  0  0  0
    0.8608    0.2615    0.0000 C   0  0  0  0  0  0  0  0  0
    4.2912    0.2615    0.0000 C   0  0  0  0  0  0  0  0  0
    4.8960    0.8226    0.0000 C   0  0  0  0  0  0  0  0  0
    4.7124    1.6269    0.0000 C   0  0  0  0  0  0  0  0  0
    3.9241    1.8701    0.0000 C   0  0  0  0  0  0  0  0  0
   -0.2819    2.4919    0.0000 C   0  0  0  0  0  0  0  0  0
    0.4326    3.7294    0.0000 C   0  0  0  0  0  0  0  0  0
  1  2  1  0  0  0  0
  1 20  1  0  0  0  0
  1 21  1  0  0  0  0
  2  3  1  0  0  0  0
  3  4  1  0  0  0  0
  4  5  2  0  0  0  0
  5  6  1  0  0  0  0
  5 11  1  0  0  0  0
  6  7  4  0  0  0  0
  6 19  4  0  0  0  0
  7  8  1  0  0  0  0
  7 16  4  0  0  0  0
  8  9  1  0  0  0  0
  9 10  1  0  0  0  0
 10 11  4  0  0  0  0
 10 15  4  0  0  0  0
 11 12  4  0  0  0  0
 12 13  4  0  0  0  0
 13 14  4  0  0  0  0
 14 15  4  0  0  0  0
 16 17  4  0  0  0  0
 17 18  4  0  0  0  0
 18 19  4  0  0  0  0
M  END
>  <Name_Molregno>
AMITRIPTYLINE

>  <5-HT1A>
6.35

>  <5-HT2A>
7.64

>  <5-HT6>
7.02

>  <DOPAMINE D1>
7.05

>  <DOPAMINE D2>
6.42

>  <DOPAMINE D3>
6.69

>  <DOPAMINE D5>
6.77

>  <Dopamine transporter>
5.4

>  <HISTAMINE H1>
9.08

>  <HISTAMINE H3>
6

>  <HISTAMINE H4>
7.47

>  <Muscarinic acetylcholine receptor M1>
7.89

>  <Muscarinic acetylcholine receptor M2>
7.93

>  <Muscarinic acetylcholine receptor M3>
7.65

>  <Muscarinic acetylcholine receptor M4>
8.14

>  <Muscarinic acetylcholine receptor M5>
7.71

>  <Norepinephrine transporter>
7.45

>  <Serotonin transporter>
8

$$$$
Amphetamine
  Marvin  02231216192D 0   1.00000     0.00000     0

 10 10  0  0  1  0  0  0  0  0999 V2000
    1.5187    1.4161    0.0000 N   0  0  0  0  0  0  0  0  0
    1.5187    0.5911    0.0000 C   0  0  0  0  0  0  0  0  0
    2.2332    0.1786    0.0000 C   0  0  0  0  0  0  0  0  0
    2.2332   -0.6464    0.0000 C   0  0  0  0  0  0  0  0  0
    2.9477   -1.0589    0.0000 C   0  0  0  0  0  0  0  0  0
    2.9477   -1.8839    0.0000 C   0  0  0  0  0  0  0  0  0
    2.2332   -2.2964    0.0000 C   0  0  0  0  0  0  0  0  0
    1.5187   -1.8839    0.0000 C   0  0  0  0  0  0  0  0  0
    1.5187   -1.0589    0.0000 C   0  0  0  0  0  0  0  0  0
    0.8043    0.1786    0.0000 C   0  0  0  0  0  0  0  0  0
  1  2  1  0  0  0  0
  2  3  1  0  0  0  0
  2 10  1  0  0  0  0
  3  4  1  0  0  0  0
  4  5  4  0  0  0  0
  4  9  4  0  0  0  0
  5  6  4  0  0  0  0
  6  7  4  0  0  0  0
  7  8  4  0  0  0  0
  8  9  4  0  0  0  0
M  END
>  <Name_Molregno>
Amphetamine

>  <5-HT1A>
5.18

>  <DOPAMINE D1>
5

>  <DOPAMINE D2>
5

>  <DOPAMINE D3>
5

>  <Dopamine transporter>
6.57

>  <Norepinephrine transporter>
8.15

>  <Serotonin transporter>
5.75

$$$$
APOMORPHINE
  Marvin  02231216192D 0   1.00000     0.00000     0

 20 23  0  0  1  0  0  0  0  0999 V2000
    3.2214   -1.7908    0.0000 O   0  0  0  0  0  0  0  0  0
    3.2214   -0.9658    0.0000 C   0  0  0  0  0  0  0  0  0
    2.5070   -0.5533    0.0000 C   0  0  0  0  0  0  0  0  0
    2.5070    0.2717    0.0000 C   0  0  0  0  0  0  0  0  0
    1.7925    0.6842    0.0000 C   0  0  0  0  0  0  0  0  0
    1.0780    0.2717    0.0000 C   0  0  0  0  0  0  0  0  0
    0.3635    0.6842    0.0000 N   0  0  0  0  0  0  0  0  0
   -0.3509    0.2717    0.0000 C   0  0  0  0  0  0  0  0  0
   -0.3509   -0.5533    0.0000 C   0  0  0  0  0  0  0  0  0
    0.3635   -0.9658    0.0000 C   0  0  0  0  0  0  0  0  0
    1.0780   -0.5533    0.0000 C   0  0  0  0  0  0  0  0  0
    1.7925   -0.9658    0.0000 C   0  0  0  0  0  0  0  0  0
    1.7925   -1.7908    0.0000 C   0  0  0  0  0  0  0  0  0
    1.0780   -2.2033    0.0000 C   0  0  0  0  0  0  0  0  0
    0.3635   -1.7908    0.0000 C   0  0  0  0  0  0  0  0  0
    0.3635    1.5092    0.0000 C   0  0  0  0  0  0  0  0  0
    3.2214    0.6842    0.0000 C   0  0  0  0  0  0  0  0  0
    3.9359    0.2717    0.0000 C   0  0  0  0  0  0  0  0  0
    3.9359   -0.5533    0.0000 C   0  0  0  0  0  0  0  0  0
    4.6504   -0.9658    0.0000 O   0  0  0  0  0  0  0  0  0
  1  2  1  0  0  0  0
  2  3  4  0  0  0  0
  2 19  4  0  0  0  0
  3  4  4  0  0  0  0
  3 12  1  0  0  0  0
  4  5  1  0  0  0  0
  4 17  4  0  0  0  0
  5  6  1  0  0  0  0
  6  7  1  0  0  0  0
  6 11  1  0  0  0  0
  7  8  1  0  0  0  0
  7 16  1  0  0  0  0
  8  9  1  0  0  0  0
  9 10  1  0  0  0  0
 10 11  4  0  0  0  0
 10 15  4  0  0  0  0
 11 12  4  0  0  0  0
 12 13  4  0  0  0  0
 13 14  4  0  0  0  0
 14 15  4  0  0  0  0
 17 18  4  0  0  0  0
 18 19  4  0  0  0  0
 19 20  1  0  0  0  0
M  END
>  <Name_Molregno>
APOMORPHINE

>  <5-HT1A>
6.12

>  <5-HT1B>
5.53

>  <5-HT1D>
5.91

>  <5-HT2A>
6.63

>  <5-HT2C>
6.99

>  <Alpha-1A>
5.7

>  <Alpha-1B>
6.17

>  <Alpha-2A>
6.85

>  <Alpha-2B>
7.18

>  <Alpha-2C>
7.44

>  <Beta-1>
5

>  <Beta-2>
5

>  <DOPAMINE D1>
6.4

>  <DOPAMINE D2>
7.34

>  <DOPAMINE D3>
7.65

>  <DOPAMINE D4>
7.92

>  <DOPAMINE D5>
7.14

$$$$
APOMORPHINE-2
  Marvin  02231216192D 0   1.00000     0.00000     0

 20 23  0  0  1  0  0  0  0  0999 V2000
    3.2214   -1.7908    0.0000 O   0  0  0  0  0  0  0  0  0
    3.2214   -0.9658    0.0000 C   0  0  0  0  0  0  0  0  0
    2.5070   -0.5533    0.0000 C   0  0  0  0  0  0  0  0  0
    2.5070    0.2717    0.0000 C   0  0  0  0  0  0  0  0  0
    1.7925    0.6842    0.0000 C   0  0  0  0  0  0  0  0  0
    1.0780    0.2717    0.0000 C   0  0  0  0  0  0  0  0  0
    1.0780   -0.5533    0.0000 C   0  0  0  0  0  0  0  0  0
    1.7925   -0.9658    0.0000 C   0  0  0  0  0  0  0  0  0
    1.7925   -1.7908    0.0000 C   0  0  0  0  0  0  0  0  0
    1.0780   -2.2033    0.0000 C   0  0  0  0  0  0  0  0  0
    0.3635   -1.7908    0.0000 C   0  0  0  0  0  0  0  0  0
    0.3635   -0.9658    0.0000 C   0  0  0  0  0  0  0  0  0
   -0.3509   -0.5533    0.0000 C   0  0  0  0  0  0  0  0  0
   -0.3509    0.2717    0.0000 C   0  0  0  0  0  0  0  0  0
    0.3635    0.6842    0.0000 C   0  0  0  0  0  0  0  0  0
    0.3635    1.5092    0.0000 C   0  0  0  0  0  0  0  0  0
    3.2214    0.6842    0.0000 C   0  0  0  0  0  0  0  0  0
    3.9359    0.2717    0.0000 C   0  0  0  0  0  0  0  0  0
    3.9359   -0.5533    0.0000 C   0  0  0  0  0  0  0  0  0
    4.6504   -0.9658    0.0000 O   0  0  0  0  0  0  0  0  0
  1  2  1  0  0  0  0
  2  3  4  0  0  0  0
  2 19  4  0  0  0  0
  3  4  4  0  0  0  0
  3  8  1  0  0  0  0
  4  5  1  0  0  0  0
  4 17  4  0  0  0  0
  5  6  1  0  0  0  0
  6  7  1  0  0  0  0
  6 15  1  0  0  0  0
  7  8  4  0  0  0  0
  7 12  4  0  0  0  0
  8  9  4  0  0  0  0
  9 10  4  0  0  0  0
 10 11  4  0  0  0  0
 11 12  4  0  0  0  0
 12 13  1  0  0  0  0
 13 14  1  0  0  0  0
 14 15  1  0  0  0  0
 15 16  1  0  0  0  0
 17 18  4  0  0  0  0
 18 19  4  0  0  0  0
 19 20  1  0  0  0  0
M  END
>  <Name_Molregno>
APOMORPHINE-2

>  <5-HT1A>
6.53

>  <DOPAMINE D1>
6.54

>  <DOPAMINE D2>
7.65

>  <DOPAMINE D4>
8.05

$$$$
ARIPIPRAZOLE
  Marvin  02231216192D 0   1.00000     0.00000     0

 30 33  0  0  0  0  0  0  0  0999 V2000
   -8.7485    0.0493    0.0000 Cl  0  0  0  0  0  0  0  0  0
   -8.7485   -0.7757    0.0000 C   0  0  0  0  0  0  0  0  0
   -8.0340   -1.1882    0.0000 C   0  0  0  0  0  0  0  0  0
   -7.3195   -0.7757    0.0000 N   0  0  0  0  0  0  0  0  0
   -7.3195    0.0493    0.0000 C   0  0  0  0  0  0  0  0  0
   -6.6051    0.4618    0.0000 C   0  0  0  0  0  0  0  0  0
   -5.8906    0.0493    0.0000 N   0  0  0  0  0  0  0  0  0
   -5.8906   -0.7757    0.0000 C   0  0  0  0  0  0  0  0  0
   -6.6051   -1.1882    0.0000 C   0  0  0  0  0  0  0  0  0
   -5.1761    0.4618    0.0000 C   0  0  0  0  0  0  0  0  0
   -4.4616    0.0493    0.0000 C   0  0  0  0  0  0  0  0  0
   -3.7472    0.4618    0.0000 C   0  0  0  0  0  0  0  0  0
   -3.0327    0.0493    0.0000 C   0  0  0  0  0  0  0  0  0
   -2.3182    0.4618    0.0000 O   0  0  0  0  0  0  0  0  0
   -1.6038    0.0493    0.0000 C   0  0  0  0  0  0  0  0  0
   -0.8893    0.4618    0.0000 C   0  0  0  0  0  0  0  0  0
   -0.1748    0.0493    0.0000 C   0  0  0  0  0  0  0  0  0
    0.5397    0.4618    0.0000 N   0  0  0  0  0  0  0  0  0
    1.2541    0.0493    0.0000 C   0  0  0  0  0  0  0  0  0
    1.9686    0.4618    0.0000 O   0  0  0  0  0  0  0  0  0
    1.2541   -0.7757    0.0000 C   0  0  0  0  0  0  0  0  0
    0.5397   -1.1882    0.0000 C   0  0  0  0  0  0  0  0  0
   -0.1748   -0.7757    0.0000 C   0  0  0  0  0  0  0  0  0
   -0.8893   -1.1882    0.0000 C   0  0  0  0  0  0  0  0  0
   -1.6038   -0.7757    0.0000 C   0  0  0  0  0  0  0  0  0
   -8.0340   -2.0132    0.0000 C   0  0  0  0  0  0  0  0  0
   -8.7485   -2.4257    0.0000 C   0  0  0  0  0  0  0  0  0
   -9.4629   -2.0132    0.0000 C   0  0  0  0  0  0  0  0  0
   -9.4629   -1.1882    0.0000 C   0  0  0  0  0  0  0  0  0
  -10.1774   -0.7757    0.0000 Cl  0  0  0  0  0  0  0  0  0
  1  2  1  0  0  0  0
  2  3  4  0  0  0  0
  2 29  4  0  0  0  0
  3  4  1  0  0  0  0
  3 26  4  0  0  0  0
  4  5  1  0  0  0  0
  4  9  1  0  0  0  0
  5  6  1  0  0  0  0
  6  7  1  0  0  0  0
  7  8  1  0  0  0  0
  7 10  1  0  0  0  0
  8  9  1  0  0  0  0
 10 11  1  0  0  0  0
 11 12  1  0  0  0  0
 12 13  1  0  0  0  0
 13 14  1  0  0  0  0
 14 15  1  0  0  0  0
 15 16  4  0  0  0  0
 15 25  4  0  0  0  0
 16 17  4  0  0  0  0
 17 18  1  0  0  0  0
 17 23  4  0  0  0  0
 18 19  1  0  0  0  0
 19 20  2  0  0  0  0
 19 21  1  0  0  0  0
 21 22  1  0  0  0  0
 22 23  1  0  0  0  0
 23 24  4  0  0  0  0
 24 25  4  0  0  0  0
 26 27  4  0  0  0  0
 27 28  4  0  0  0  0
 28 29  4  0  0  0  0
 29 30  1  0  0  0  0
M  END
>  <Name_Molregno>
ARIPIPRAZOLE

>  <5-HT1A>
8.21

>  <5-HT1B>
6.08

>  <5-HT1D>
7.18

>  <5-HT1E>
5.1

>  <5-HT2A>
7.85

>  <5-HT2C>
7.48

>  <5-HT3>
6.25

>  <5-HT5>
5.91

>  <5-HT6>
6.32

>  <5-HT7>
7.81

>  <Alpha-1A>
7.59

>  <Alpha-1B>
7.46

>  <Alpha-2A>
7.13

>  <Alpha-2B>
6.99

>  <Alpha-2C>
7.42

>  <Beta-1>
6.85

>  <Beta-2>
6.79

>  <DOPAMINE D1>
6.06

>  <DOPAMINE D2>
8.72

>  <DOPAMINE D3>
8.45

>  <DOPAMINE D4>
6.51

>  <DOPAMINE D5>
5.69

>  <Dopamine transporter>
5.49

>  <HISTAMINE H1>
7.56

>  <HISTAMINE H2>
5

>  <HISTAMINE H4>
5

>  <Muscarinic acetylcholine receptor M1>
5.17

>  <Muscarinic acetylcholine receptor M2>
5.45

>  <Muscarinic acetylcholine receptor M3>
5.33

>  <Muscarinic acetylcholine receptor M4>
5.82

>  <Muscarinic acetylcholine receptor M5>
5.63

>  <Norepinephrine transporter>
5.68

>  <Serotonin transporter>
6.48

$$$$
B-HT920
  Marvin  02231216192D 0   1.00000     0.00000     0

 14 15  0  0  0  0  0  0  0  0999 V2000
   -3.1193    0.1933    0.0000 S   0  0  0  0  0  0  0  0  0
   -2.3347   -0.0617    0.0000 C   0  0  0  0  0  0  0  0  0
   -1.6896    0.4527    0.0000 C   0  0  0  0  0  0  0  0  0
   -0.8853    0.2691    0.0000 C   0  0  0  0  0  0  0  0  0
   -0.5274   -0.4742    0.0000 N   0  0  0  0  0  0  0  0  0
   -0.8853   -1.2175    0.0000 C   0  0  0  0  0  0  0  0  0
   -1.6896   -1.4010    0.0000 C   0  0  0  0  0  0  0  0  0
   -2.3347   -0.8867    0.0000 C   0  0  0  0  0  0  0  0  0
   -3.1193   -1.1416    0.0000 N   0  0  0  0  0  0  0  0  0
   -3.6042   -0.4742    0.0000 C   0  0  0  0  0  0  0  0  0
   -4.4292   -0.4742    0.0000 N   0  0  0  0  0  0  0  0  0
    0.2976   -0.4742    0.0000 C   0  0  0  0  0  0  0  0  0
    0.7101   -1.1886    0.0000 C   0  0  0  0  0  0  0  0  0
    1.5351   -1.1886    0.0000 C   0  0  0  0  0  0  0  0  0
  1  2  4  0  0  0  0
  1 10  4  0  0  0  0
  2  3  1  0  0  0  0
  2  8  4  0  0  0  0
  3  4  1  0  0  0  0
  4  5  1  0  0  0  0
  5  6  1  0  0  0  0
  5 12  1  0  0  0  0
  6  7  1  0  0  0  0
  7  8  1  0  0  0  0
  8  9  4  0  0  0  0
  9 10  4  0  0  0  0
 10 11  1  0  0  0  0
 12 13  1  0  0  0  0
 13 14  2  0  0  0  0
M  END
>  <Name_Molregno>
B-HT920

>  <5-HT1A>
5.77

>  <5-HT1B>
5

>  <5-HT1D>
5

>  <5-HT2A>
5

>  <5-HT2C>
5

>  <Alpha-1A>
5

>  <Alpha-1B>
5.41

>  <Alpha-2A>
6.91

>  <Alpha-2B>
6.69

>  <Alpha-2C>
6.69

>  <Beta-1>
5

>  <Beta-2>
5

>  <DOPAMINE D1>
5

>  <DOPAMINE D2>
6.88

>  <DOPAMINE D3>
7.8

>  <DOPAMINE D4>
6.48

>  <DOPAMINE D5>
5.46

$$$$
BROMOCRIPTINE
  Marvin  02231216192D 0   1.00000     0.00000     0

 43 49  0  0  1  0  0  0  0  0999 V2000
    6.2699    4.4922    0.0000 Br  0  0  0  0  0  0  0  0  0
    6.7473    3.8193    0.0000 C   0  0  0  0  0  0  0  0  0
    7.5723    3.8193    0.0000 N   0  0  0  0  0  0  0  0  0
    7.8776    2.9622    0.0000 C   0  0  0  0  0  0  0  0  0
    7.1598    2.5497    0.0000 C   0  0  0  0  0  0  0  0  0
    6.4473    2.9622    0.0000 C   0  0  0  0  0  0  0  0  0
    5.7348    2.5497    0.0000 C   0  0  0  0  0  0  0  0  0
    5.7348    1.7247    0.0000 C   0  0  0  0  0  0  0  0  0
    5.0198    1.3130    0.0000 N   0  0  0  0  0  0  0  0  0
    5.0188    0.4880    0.0000 C   0  0  0  0  0  0  0  0  0
    5.7328    0.0747    0.0000 C   0  0  0  0  0  0  0  0  0
    6.4478    0.4863    0.0000 C   0  0  0  0  0  0  0  0  0
    6.4488    1.3113    0.0000 C   0  0  0  0  0  0  0  0  0
    7.1598    1.7247    0.0000 C   0  0  0  0  0  0  0  0  0
    7.8776    1.3122    0.0000 C   0  0  0  0  0  0  0  0  0
    8.5901    1.7247    0.0000 C   0  0  0  0  0  0  0  0  0
    8.5901    2.5497    0.0000 C   0  0  0  0  0  0  0  0  0
    5.7318   -0.7503    0.0000 C   0  0  0  0  0  0  0  0  0
    6.4458   -1.1637    0.0000 O   0  0  0  0  0  0  0  0  0
    5.0168   -1.1620    0.0000 N   0  0  0  0  0  0  0  0  0
    5.0159   -1.9870    0.0000 C   0  0  0  0  0  0  0  0  0
    5.1864   -2.7941    0.0000 O   0  0  0  0  0  0  0  0  0
    4.4715   -3.2058    0.0000 C   0  0  0  0  0  0  0  0  0
    5.1383   -3.6915    0.0000 O   0  0  0  0  0  0  0  0  0
    3.8590   -2.6530    0.0000 N   0  0  0  0  0  0  0  0  0
    3.0741   -2.9070    0.0000 C   0  0  0  0  0  0  0  0  0
    2.4617   -2.3543    0.0000 C   0  0  0  0  0  0  0  0  0
    1.6767   -2.6083    0.0000 C   0  0  0  0  0  0  0  0  0
    1.0643   -2.0555    0.0000 C   0  0  0  0  0  0  0  0  0
    1.5042   -3.4150    0.0000 C   0  0  0  0  0  0  0  0  0
    2.9016   -3.7138    0.0000 C   0  0  0  0  0  0  0  0  0
    2.1167   -3.9678    0.0000 O   0  0  0  0  0  0  0  0  0
    3.5140   -4.2665    0.0000 N   0  0  0  0  0  0  0  0  0
    4.2990   -4.0125    0.0000 C   0  0  0  0  0  0  0  0  0
    4.7831   -4.6806    0.0000 C   0  0  0  0  0  0  0  0  0
    4.2974   -5.3474    0.0000 C   0  0  0  0  0  0  0  0  0
    3.5131   -5.0915    0.0000 C   0  0  0  0  0  0  0  0  0
    4.1955   -1.8997    0.0000 C   0  0  0  0  0  0  0  0  0
    3.7838   -1.1848    0.0000 O   0  0  0  0  0  0  0  0  0
    5.8364   -1.9017    0.0000 C   0  0  0  0  0  0  0  0  0
    6.5514   -1.4901    0.0000 C   0  0  0  0  0  0  0  0  0
    6.3206   -2.5697    0.0000 C   0  0  0  0  0  0  0  0  0
    4.3058    1.7264    0.0000 C   0  0  0  0  0  0  0  0  0
  1  2  1  0  0  0  0
  2  3  4  0  0  0  0
  2  6  4  0  0  0  0
  3  4  4  0  0  0  0
  4  5  4  0  0  0  0
  4 17  4  0  0  0  0
  5  6  4  0  0  0  0
  5 14  4  0  0  0  0
  6  7  1  0  0  0  0
  7  8  1  0  0  0  0
  8  9  1  0  0  0  0
  8 13  1  0  0  0  0
  9 10  1  0  0  0  0
  9 43  1  0  0  0  0
 10 11  1  0  0  0  0
 11 12  1  0  0  0  0
 11 18  1  0  0  0  0
 12 13  2  0  0  0  0
 13 14  1  0  0  0  0
 14 15  4  0  0  0  0
 15 16  4  0  0  0  0
 16 17  4  0  0  0  0
 18 19  2  0  0  0  0
 18 20  1  0  0  0  0
 20 21  1  0  0  0  0
 21 22  1  0  0  0  0
 21 38  1  0  0  0  0
 21 40  1  0  0  0  0
 22 23  1  0  0  0  0
 23 24  1  0  0  0  0
 23 25  1  0  0  0  0
 23 34  1  0  0  0  0
 25 26  1  0  0  0  0
 25 38  1  0  0  0  0
 26 27  1  0  0  0  0
 26 31  1  0  0  0  0
 27 28  1  0  0  0  0
 28 29  1  0  0  0  0
 28 30  1  0  0  0  0
 31 32  2  0  0  0  0
 31 33  1  0  0  0  0
 33 34  1  0  0  0  0
 33 37  1  0  0  0  0
 34 35  1  0  0  0  0
 35 36  1  0  0  0  0
 36 37  1  0  0  0  0
 38 39  2  0  0  0  0
 40 41  1  0  0  0  0
 40 42  1  0  0  0  0
M  STY  1   1 DAT
M  SAL   1  1   3
M  SDT   1 MRV_IMPLICIT_H                                        
M  SDD   1     0.0000    0.0000    DR    ALL  0       0  
M  SED   1 IMPL_H1
M  END
>  <Name_Molregno>
BROMOCRIPTINE

>  <5-HT1A>
7.7

>  <5-HT1B>
6.45

>  <5-HT1D>
7.97

>  <5-HT2A>
6.97

>  <5-HT2C>
6.13

>  <5-HT6>
7.39

>  <Alpha-1A>
8.38

>  <Alpha-1B>
8.86

>  <Alpha-2A>
7.96

>  <Alpha-2B>
7.46

>  <Alpha-2C>
7.55

>  <Beta-1>
6.23

>  <Beta-2>
6.13

>  <DOPAMINE D1>
6

>  <DOPAMINE D2>
8.31

>  <DOPAMINE D3>
8.02

>  <DOPAMINE D4>
6.33

>  <DOPAMINE D5>
6.31

$$$$
Cabergoline
  Marvin  02231216192D 0   1.00000     0.00000     0

 33 36  0  0  1  0  0  0  0  0999 V2000
    0.1488   -3.1643    0.0000 O   0  0  0  0  0  0  0  0  0
   -0.5651   -2.7509    0.0000 C   0  0  0  0  0  0  0  0  0
   -1.2801   -3.1625    0.0000 N   0  0  0  0  0  0  0  0  0
   -1.2811   -3.9875    0.0000 C   0  0  0  0  0  0  0  0  0
   -1.9961   -4.3992    0.0000 C   0  0  0  0  0  0  0  0  0
   -1.9970   -5.2242    0.0000 C   0  0  0  0  0  0  0  0  0
   -2.7120   -5.6358    0.0000 N   0  0  0  0  0  0  0  0  0
   -2.7130   -6.4608    0.0000 C   0  0  0  0  0  0  0  0  0
   -3.4260   -5.2225    0.0000 C   0  0  0  0  0  0  0  0  0
   -1.9941   -2.7492    0.0000 C   0  0  0  0  0  0  0  0  0
   -2.7090   -3.1608    0.0000 O   0  0  0  0  0  0  0  0  0
   -1.9931   -1.9242    0.0000 N   0  0  0  0  0  0  0  0  0
   -2.7071   -1.5108    0.0000 C   0  0  0  0  0  0  0  0  0
   -3.4220   -1.9225    0.0000 C   0  0  0  0  0  0  0  0  0
   -0.5641   -1.9259    0.0000 C   0  0  0  0  0  0  0  0  0
    0.1508   -1.5143    0.0000 C   0  0  0  0  0  0  0  0  0
    0.1518   -0.6893    0.0000 C   0  0  0  0  0  0  0  0  0
   -0.5622   -0.2759    0.0000 C   0  0  0  0  0  0  0  0  0
   -1.2771   -0.6875    0.0000 N   0  0  0  0  0  0  0  0  0
   -1.2781   -1.5125    0.0000 C   0  0  0  0  0  0  0  0  0
   -1.9911   -0.2742    0.0000 C   0  0  0  0  0  0  0  0  0
   -2.7061   -0.6858    0.0000 C   0  0  0  0  0  0  0  0  0
   -3.4201   -0.2725    0.0000 C   0  0  0  0  0  0  0  0  0
   -0.5607    0.5482    0.0000 C   0  0  0  0  0  0  0  0  0
    0.1518    0.9607    0.0000 C   0  0  0  0  0  0  0  0  0
    0.8643    0.5482    0.0000 C   0  0  0  0  0  0  0  0  0
    0.8643   -0.2768    0.0000 C   0  0  0  0  0  0  0  0  0
    1.5822   -0.6893    0.0000 C   0  0  0  0  0  0  0  0  0
    2.2947   -0.2768    0.0000 C   0  0  0  0  0  0  0  0  0
    2.2947    0.5482    0.0000 C   0  0  0  0  0  0  0  0  0
    1.5822    0.9607    0.0000 C   0  0  0  0  0  0  0  0  0
    1.2768    1.8179    0.0000 N   0  0  0  0  0  0  0  0  0
    0.4518    1.8179    0.0000 C   0  0  0  0  0  0  0  0  0
  1  2  2  0  0  0  0
  2  3  1  0  0  0  0
  2 15  1  0  0  0  0
  3  4  1  0  0  0  0
  3 10  1  0  0  0  0
  4  5  1  0  0  0  0
  5  6  1  0  0  0  0
  6  7  1  0  0  0  0
  7  8  1  0  0  0  0
  7  9  1  0  0  0  0
 10 11  2  0  0  0  0
 10 12  1  0  0  0  0
 12 13  1  0  0  0  0
 13 14  1  0  0  0  0
 15 16  1  0  0  0  0
 15 20  1  0  0  0  0
 16 17  1  0  0  0  0
 17 18  1  0  0  0  0
 17 27  1  0  0  0  0
 18 19  1  0  0  0  0
 18 24  1  0  0  0  0
 19 20  1  0  0  0  0
 19 21  1  0  0  0  0
 21 22  1  0  0  0  0
 22 23  2  0  0  0  0
 24 25  1  0  0  0  0
 25 26  4  0  0  0  0
 25 33  4  0  0  0  0
 26 27  4  0  0  0  0
 26 31  4  0  0  0  0
 27 28  4  0  0  0  0
 28 29  4  0  0  0  0
 29 30  4  0  0  0  0
 30 31  4  0  0  0  0
 31 32  4  0  0  0  0
 32 33  4  0  0  0  0
M  STY  1   1 DAT
M  SAL   1  1  32
M  SDT   1 MRV_IMPLICIT_H                                        
M  SDD   1     0.0000    0.0000    DR    ALL  0       0  
M  SED   1 IMPL_H1
M  END
>  <Name_Molregno>
Cabergoline

>  <5-HT1A>
7.7

>  <5-HT1B>
6.32

>  <5-HT1D>
8.06

>  <5-HT2A>
8.21

>  <5-HT2C>
6.16

>  <Alpha-1A>
6.54

>  <Alpha-1B>
7.22

>  <Alpha-2A>
7.92

>  <Alpha-2B>
7.14

>  <Alpha-2C>
7.65

>  <Beta-1>
5

>  <Beta-2>
5

>  <DOPAMINE D1>
6.67

>  <DOPAMINE D2>
9.12

>  <DOPAMINE D3>
9.1

>  <DOPAMINE D4>
7.25

>  <DOPAMINE D5>
7.65

$$$$
CARBAMAZEPINE
  Marvin  02231216192D 0   1.00000     0.00000     0

 18 20  0  0  0  0  0  0  0  0999 V2000
    0.0000   -0.0005    0.0000 O   0  0  0  0  0  0  0  0  0
    0.7145   -0.4130    0.0000 C   0  0  0  0  0  0  0  0  0
    1.4290   -0.0005    0.0000 N   0  0  0  0  0  0  0  0  0
    0.7145   -1.2380    0.0000 N   0  0  0  0  0  0  0  0  0
    1.4578   -1.5959    0.0000 C   0  0  0  0  0  0  0  0  0
    1.6414   -2.4003    0.0000 C   0  0  0  0  0  0  0  0  0
    1.1270   -3.0453    0.0000 C   0  0  0  0  0  0  0  0  0
    0.3020   -3.0453    0.0000 C   0  0  0  0  0  0  0  0  0
   -0.2124   -2.4003    0.0000 C   0  0  0  0  0  0  0  0  0
   -0.0288   -1.5959    0.0000 C   0  0  0  0  0  0  0  0  0
   -0.6336   -1.0348    0.0000 C   0  0  0  0  0  0  0  0  0
   -1.4219   -1.2780    0.0000 C   0  0  0  0  0  0  0  0  0
   -1.6055   -2.0823    0.0000 C   0  0  0  0  0  0  0  0  0
   -1.0007   -2.6434    0.0000 C   0  0  0  0  0  0  0  0  0
    2.4297   -2.6434    0.0000 C   0  0  0  0  0  0  0  0  0
    3.0345   -2.0823    0.0000 C   0  0  0  0  0  0  0  0  0
    2.8509   -1.2780    0.0000 C   0  0  0  0  0  0  0  0  0
    2.0626   -1.0348    0.0000 C   0  0  0  0  0  0  0  0  0
  1  2  2  0  0  0  0
  2  3  1  0  0  0  0
  2  4  1  0  0  0  0
  4  5  1  0  0  0  0
  4 10  1  0  0  0  0
  5  6  4  0  0  0  0
  5 18  4  0  0  0  0
  6  7  1  0  0  0  0
  6 15  4  0  0  0  0
  7  8  2  0  0  0  0
  8  9  1  0  0  0  0
  9 10  4  0  0  0  0
  9 14  4  0  0  0  0
 10 11  4  0  0  0  0
 11 12  4  0  0  0  0
 12 13  4  0  0  0  0
 13 14  4  0  0  0  0
 15 16  4  0  0  0  0
 16 17  4  0  0  0  0
 17 18  4  0  0  0  0
M  END
>  <Name_Molregno>
CARBAMAZEPINE

>  <5-HT1A>
5

>  <DOPAMINE D1>
5

>  <DOPAMINE D2>
5

>  <HISTAMINE H1>
5

$$$$
Cathinone
  Marvin  02231216192D 0   1.00000     0.00000     0

 11 11  0  0  1  0  0  0  0  0999 V2000
    1.9974    0.2298    0.0000 O   0  0  0  0  0  0  0  0  0
    1.2829   -0.1827    0.0000 C   0  0  0  0  0  0  0  0  0
    0.5684    0.2298    0.0000 C   0  0  0  0  0  0  0  0  0
    0.5684    1.0548    0.0000 N   0  0  0  0  0  0  0  0  0
   -0.1461   -0.1827    0.0000 C   0  0  0  0  0  0  0  0  0
    1.2829   -1.0077    0.0000 C   0  0  0  0  0  0  0  0  0
    1.9974   -1.4202    0.0000 C   0  0  0  0  0  0  0  0  0
    1.9974   -2.2452    0.0000 C   0  0  0  0  0  0  0  0  0
    1.2829   -2.6577    0.0000 C   0  0  0  0  0  0  0  0  0
    0.5684   -2.2452    0.0000 C   0  0  0  0  0  0  0  0  0
    0.5684   -1.4202    0.0000 C   0  0  0  0  0  0  0  0  0
  1  2  2  0  0  0  0
  2  3  1  0  0  0  0
  2  6  1  0  0  0  0
  3  4  1  0  0  0  0
  3  5  1  0  0  0  0
  6  7  4  0  0  0  0
  6 11  4  0  0  0  0
  7  8  4  0  0  0  0
  8  9  4  0  0  0  0
  9 10  4  0  0  0  0
 10 11  4  0  0  0  0
M  END
>  <Name_Molregno>
Cathinone

>  <5-HT1A>
5

>  <5-HT1B>
5

>  <5-HT1D>
5

>  <5-HT1E>
5

>  <5-HT3>
5

>  <5-HT5>
5

>  <5-HT6>
5

>  <5-HT7>
5.57

>  <Alpha-1A>
5

>  <Alpha-1B>
5

>  <Alpha-2A>
5.17

>  <Alpha-2B>
6.04

>  <Alpha-2C>
6.12

>  <Beta-1>
5

>  <Beta-2>
5

>  <DOPAMINE D1>
5

>  <DOPAMINE D2>
5

>  <DOPAMINE D4>
5

>  <DOPAMINE D5>
5

>  <Dopamine transporter>
6.37

>  <HISTAMINE H1>
5

>  <HISTAMINE H2>
5

>  <HISTAMINE H4>
5

>  <Muscarinic acetylcholine receptor M1>
5

>  <Muscarinic acetylcholine receptor M2>
5

>  <Muscarinic acetylcholine receptor M3>
5

>  <Muscarinic acetylcholine receptor M4>
5

>  <Muscarinic acetylcholine receptor M5>
5

>  <Norepinephrine transporter>
6.76

>  <Serotonin transporter>
5.32

$$$$
CELECOXIB
  Marvin  02231216192D 0   1.00000     0.00000     0

 26 28  0  0  0  0  0  0  0  0999 V2000
   -2.2304    2.3034    0.0000 S   0  0  0  0  0  0  0  0  0
   -2.2304    3.1284    0.0000 O   0  0  0  0  0  0  0  0  0
   -3.0554    2.3034    0.0000 O   0  0  0  0  0  0  0  0  0
   -1.4054    2.3034    0.0000 N   0  0  0  0  0  0  0  0  0
   -2.2304    1.4784    0.0000 C   0  0  0  0  0  0  0  0  0
   -1.5159    1.0659    0.0000 C   0  0  0  0  0  0  0  0  0
   -1.5159    0.2409    0.0000 C   0  0  0  0  0  0  0  0  0
   -2.2304   -0.1716    0.0000 C   0  0  0  0  0  0  0  0  0
   -2.2304   -0.9966    0.0000 N   0  0  0  0  0  0  0  0  0
   -1.5629   -1.4815    0.0000 N   0  0  0  0  0  0  0  0  0
   -1.8179   -2.2662    0.0000 C   0  0  0  0  0  0  0  0  0
   -2.6429   -2.2662    0.0000 C   0  0  0  0  0  0  0  0  0
   -2.8978   -1.4815    0.0000 C   0  0  0  0  0  0  0  0  0
   -3.6824   -1.2266    0.0000 C   0  0  0  0  0  0  0  0  0
   -4.2955   -1.7786    0.0000 C   0  0  0  0  0  0  0  0  0
   -5.0802   -1.5237    0.0000 C   0  0  0  0  0  0  0  0  0
   -5.2517   -0.7167    0.0000 C   0  0  0  0  0  0  0  0  0
   -4.6386   -0.1647    0.0000 C   0  0  0  0  0  0  0  0  0
   -3.8540   -0.4196    0.0000 C   0  0  0  0  0  0  0  0  0
   -6.0363   -0.4618    0.0000 C   0  0  0  0  0  0  0  0  0
   -1.3330   -2.9336    0.0000 C   0  0  0  0  0  0  0  0  0
   -0.8480   -3.6010    0.0000 F   0  0  0  0  0  0  0  0  0
   -2.0004   -3.4185    0.0000 F   0  0  0  0  0  0  0  0  0
   -0.6655   -2.4487    0.0000 F   0  0  0  0  0  0  0  0  0
   -2.9448    0.2409    0.0000 C   0  0  0  0  0  0  0  0  0
   -2.9448    1.0659    0.0000 C   0  0  0  0  0  0  0  0  0
  1  2  2  0  0  0  0
  1  3  2  0  0  0  0
  1  4  1  0  0  0  0
  1  5  1  0  0  0  0
  5  6  4  0  0  0  0
  5 26  4  0  0  0  0
  6  7  4  0  0  0  0
  7  8  4  0  0  0  0
  8  9  1  0  0  0  0
  8 25  4  0  0  0  0
  9 10  4  0  0  0  0
  9 13  4  0  0  0  0
 10 11  4  0  0  0  0
 11 12  4  0  0  0  0
 11 21  1  0  0  0  0
 12 13  4  0  0  0  0
 13 14  1  0  0  0  0
 14 15  4  0  0  0  0
 14 19  4  0  0  0  0
 15 16  4  0  0  0  0
 16 17  4  0  0  0  0
 17 18  4  0  0  0  0
 17 20  1  0  0  0  0
 18 19  4  0  0  0  0
 21 22  1  0  0  0  0
 21 23  1  0  0  0  0
 21 24  1  0  0  0  0
 25 26  4  0  0  0  0
M  END
>  <Name_Molregno>
CELECOXIB

>  <5-HT1A>
5

>  <5-HT1B>
5

>  <5-HT1D>
5

>  <5-HT1E>
5

>  <5-HT2A>
5

>  <5-HT3>
5

>  <5-HT6>
5

>  <5-HT7>
5

>  <Alpha-1A>
5

>  <Alpha-1B>
5

>  <Alpha-2A>
5

>  <Alpha-2B>
5

>  <Alpha-2C>
5

>  <DOPAMINE D1>
5

>  <DOPAMINE D2>
5

>  <DOPAMINE D4>
5

>  <DOPAMINE D5>
5

>  <Dopamine transporter>
6.18

>  <HISTAMINE H1>
5

>  <HISTAMINE H2>
5

>  <Muscarinic acetylcholine receptor M2>
5

>  <Muscarinic acetylcholine receptor M5>
5

>  <Norepinephrine transporter>
5

>  <Serotonin transporter>
5

$$$$
CGS12066B
  Marvin  02231216192D 0   1.00000     0.00000     0

 24 27  0  0  0  0  0  0  0  0999 V2000
   -0.9796   -3.3948    0.0000 F   0  0  0  0  0  0  0  0  0
   -0.1550   -3.4206    0.0000 C   0  0  0  0  0  0  0  0  0
   -0.1808   -4.2452    0.0000 F   0  0  0  0  0  0  0  0  0
   -0.1293   -2.5960    0.0000 F   0  0  0  0  0  0  0  0  0
    0.6696   -3.4463    0.0000 C   0  0  0  0  0  0  0  0  0
    1.1042   -2.7451    0.0000 C   0  0  0  0  0  0  0  0  0
    1.9288   -2.7708    0.0000 C   0  0  0  0  0  0  0  0  0
    2.3634   -2.0696    0.0000 N   0  0  0  0  0  0  0  0  0
    3.1880   -2.0954    0.0000 C   0  0  0  0  0  0  0  0  0
    3.6226   -1.3941    0.0000 N   0  0  0  0  0  0  0  0  0
    3.2326   -0.6671    0.0000 C   0  0  0  0  0  0  0  0  0
    3.6672    0.0341    0.0000 C   0  0  0  0  0  0  0  0  0
    4.4918    0.0084    0.0000 N   0  0  0  0  0  0  0  0  0
    4.8818   -0.7186    0.0000 C   0  0  0  0  0  0  0  0  0
    4.4472   -1.4199    0.0000 C   0  0  0  0  0  0  0  0  0
    4.9264    0.7096    0.0000 C   0  0  0  0  0  0  0  0  0
    3.5780   -2.8224    0.0000 C   0  0  0  0  0  0  0  0  0
    3.1434   -3.5236    0.0000 N   0  0  0  0  0  0  0  0  0
    2.3188   -3.4979    0.0000 C   0  0  0  0  0  0  0  0  0
    1.8842   -4.1991    0.0000 C   0  0  0  0  0  0  0  0  0
    1.0596   -4.1733    0.0000 C   0  0  0  0  0  0  0  0  0
    3.6760   -4.1536    0.0000 C   0  0  0  0  0  0  0  0  0
    4.4398   -3.8418    0.0000 C   0  0  0  0  0  0  0  0  0
    4.3792   -3.0190    0.0000 C   0  0  0  0  0  0  0  0  0
  1  2  1  0  0  0  0
  2  3  1  0  0  0  0
  2  4  1  0  0  0  0
  2  5  1  0  0  0  0
  5  6  4  0  0  0  0
  5 21  4  0  0  0  0
  6  7  4  0  0  0  0
  7  8  4  0  0  0  0
  7 19  4  0  0  0  0
  8  9  4  0  0  0  0
  9 10  1  0  0  0  0
  9 17  4  0  0  0  0
 10 11  1  0  0  0  0
 10 15  1  0  0  0  0
 11 12  1  0  0  0  0
 12 13  1  0  0  0  0
 13 14  1  0  0  0  0
 13 16  1  0  0  0  0
 14 15  1  0  0  0  0
 17 18  4  0  0  0  0
 17 24  4  0  0  0  0
 18 19  4  0  0  0  0
 18 22  4  0  0  0  0
 19 20  4  0  0  0  0
 20 21  4  0  0  0  0
 22 23  4  0  0  0  0
 23 24  4  0  0  0  0
M  END
>  <Name_Molregno>
CGS12066B

>  <5-HT1A>
7.36

>  <5-HT1B>
9.2

>  <5-HT1D>
8.59

>  <5-HT2A>
5.37

>  <5-HT2C>
5.6

>  <DOPAMINE D1>
5.82

>  <DOPAMINE D2>
5.76

>  <DOPAMINE D3>
6.24

$$$$
CHLORIMIPRAMINE
  Marvin  02231216192D 0   1.00000     0.00000     0

 22 24  0  0  0  0  0  0  0  0999 V2000
   -3.6433    1.4834    0.0000 Cl  0  0  0  0  0  0  0  0  0
   -3.8269    0.6791    0.0000 C   0  0  0  0  0  0  0  0  0
   -3.2221    0.1179    0.0000 C   0  0  0  0  0  0  0  0  0
   -3.4057   -0.6864    0.0000 C   0  0  0  0  0  0  0  0  0
   -2.7241   -1.1511    0.0000 N   0  0  0  0  0  0  0  0  0
   -2.6624   -1.9738    0.0000 C   0  0  0  0  0  0  0  0  0
   -3.2672   -2.5350    0.0000 C   0  0  0  0  0  0  0  0  0
   -4.0830   -2.4120    0.0000 C   0  0  0  0  0  0  0  0  0
   -4.4955   -1.6975    0.0000 C   0  0  0  0  0  0  0  0  0
   -4.1941   -0.9296    0.0000 C   0  0  0  0  0  0  0  0  0
   -4.7988   -0.3684    0.0000 C   0  0  0  0  0  0  0  0  0
   -4.6153    0.4359    0.0000 C   0  0  0  0  0  0  0  0  0
   -3.0836   -3.3393    0.0000 C   0  0  0  0  0  0  0  0  0
   -2.2953   -3.5825    0.0000 C   0  0  0  0  0  0  0  0  0
   -1.6905   -3.0213    0.0000 C   0  0  0  0  0  0  0  0  0
   -1.8741   -2.2170    0.0000 C   0  0  0  0  0  0  0  0  0
   -2.0096   -0.7386    0.0000 C   0  0  0  0  0  0  0  0  0
   -1.2951   -1.1511    0.0000 C   0  0  0  0  0  0  0  0  0
   -0.5807   -0.7386    0.0000 C   0  0  0  0  0  0  0  0  0
    0.1338   -1.1511    0.0000 N   0  0  0  0  0  0  0  0  0
    0.8483   -0.7386    0.0000 C   0  0  0  0  0  0  0  0  0
    0.1338   -1.9761    0.0000 C   0  0  0  0  0  0  0  0  0
  1  2  1  0  0  0  0
  2  3  4  0  0  0  0
  2 12  4  0  0  0  0
  3  4  4  0  0  0  0
  4  5  1  0  0  0  0
  4 10  4  0  0  0  0
  5  6  1  0  0  0  0
  5 17  1  0  0  0  0
  6  7  4  0  0  0  0
  6 16  4  0  0  0  0
  7  8  1  0  0  0  0
  7 13  4  0  0  0  0
  8  9  1  0  0  0  0
  9 10  1  0  0  0  0
 10 11  4  0  0  0  0
 11 12  4  0  0  0  0
 13 14  4  0  0  0  0
 14 15  4  0  0  0  0
 15 16  4  0  0  0  0
 17 18  1  0  0  0  0
 18 19  1  0  0  0  0
 19 20  1  0  0  0  0
 20 21  1  0  0  0  0
 20 22  1  0  0  0  0
M  END
>  <Name_Molregno>
CHLORIMIPRAMINE

>  <5-HT1A>
5

>  <5-HT1B>
5

>  <5-HT1D>
5

>  <5-HT2A>
7.45

>  <5-HT2C>
7.19

>  <Alpha-1A>
8.49

>  <Alpha-2A>
6.28

>  <DOPAMINE D1>
6.66

>  <DOPAMINE D2>
6.95

>  <DOPAMINE D3>
7.41

>  <Dopamine transporter>
5.61

>  <Norepinephrine transporter>
7.37

>  <Serotonin transporter>
9.81

$$$$
CHLOROPHENYLPIPERAZINE
  Marvin  02231216192D 0   1.00000     0.00000     0

 13 14  0  0  0  0  0  0  0  0999 V2000
    1.2605    1.9269    0.0000 Cl  0  0  0  0  0  0  0  0  0
    1.2605    1.1019    0.0000 C   0  0  0  0  0  0  0  0  0
    1.9750    0.6894    0.0000 C   0  0  0  0  0  0  0  0  0
    1.9750   -0.1356    0.0000 C   0  0  0  0  0  0  0  0  0
    2.6894   -0.5481    0.0000 N   0  0  0  0  0  0  0  0  0
    3.4039   -0.1356    0.0000 C   0  0  0  0  0  0  0  0  0
    4.1184   -0.5481    0.0000 C   0  0  0  0  0  0  0  0  0
    4.1184   -1.3731    0.0000 N   0  0  0  0  0  0  0  0  0
    3.4039   -1.7856    0.0000 C   0  0  0  0  0  0  0  0  0
    2.6894   -1.3731    0.0000 C   0  0  0  0  0  0  0  0  0
    1.2605   -0.5481    0.0000 C   0  0  0  0  0  0  0  0  0
    0.5460   -0.1356    0.0000 C   0  0  0  0  0  0  0  0  0
    0.5460    0.6894    0.0000 C   0  0  0  0  0  0  0  0  0
  1  2  1  0  0  0  0
  2  3  4  0  0  0  0
  2 13  4  0  0  0  0
  3  4  4  0  0  0  0
  4  5  1  0  0  0  0
  4 11  4  0  0  0  0
  5  6  1  0  0  0  0
  5 10  1  0  0  0  0
  6  7  1  0  0  0  0
  7  8  1  0  0  0  0
  8  9  1  0  0  0  0
  9 10  1  0  0  0  0
 11 12  4  0  0  0  0
 12 13  4  0  0  0  0
M  END
>  <Name_Molregno>
CHLOROPHENYLPIPERAZINE

>  <5-HT1A>
6.88

>  <5-HT1B>
6.72

>  <5-HT1D>
6.23

>  <5-HT2A>
7.01

>  <5-HT2C>
7.55

>  <5-HT3>
6.37

>  <5-HT5>
5.87

>  <5-HT6>
5.7

>  <5-HT7>
6.79

>  <Alpha-1A>
5.86

>  <Alpha-1B>
6.04

>  <Alpha-2A>
6.84

>  <Alpha-2B>
6.98

>  <Alpha-2C>
6.91

>  <Beta-1>
5.63

>  <Beta-2>
5.46

>  <DOPAMINE D1>
5.15

>  <DOPAMINE D2>
5

>  <DOPAMINE D5>
5

>  <HISTAMINE H1>
6.49

>  <Norepinephrine transporter>
5.36

>  <Serotonin transporter>
6.13

$$$$
CHLORPROMAZINE
  Marvin  02231216192D 0   1.00000     0.00000     0

 21 23  0  0  0  0  0  0  0  0999 V2000
   -1.3730   -3.5598    0.0000 Cl  0  0  0  0  0  0  0  0  0
   -2.0875   -3.1473    0.0000 C   0  0  0  0  0  0  0  0  0
   -2.0875   -2.3223    0.0000 C   0  0  0  0  0  0  0  0  0
   -2.8019   -1.9098    0.0000 C   0  0  0  0  0  0  0  0  0
   -2.8019   -1.0848    0.0000 N   0  0  0  0  0  0  0  0  0
   -3.5164   -0.6723    0.0000 C   0  0  0  0  0  0  0  0  0
   -4.2309   -1.0848    0.0000 C   0  0  0  0  0  0  0  0  0
   -4.2309   -1.9098    0.0000 S   0  0  0  0  0  0  0  0  0
   -3.5164   -2.3223    0.0000 C   0  0  0  0  0  0  0  0  0
   -3.5164   -3.1473    0.0000 C   0  0  0  0  0  0  0  0  0
   -2.8019   -3.5598    0.0000 C   0  0  0  0  0  0  0  0  0
   -4.9453   -0.6723    0.0000 C   0  0  0  0  0  0  0  0  0
   -4.9453    0.1527    0.0000 C   0  0  0  0  0  0  0  0  0
   -4.2309    0.5652    0.0000 C   0  0  0  0  0  0  0  0  0
   -3.5164    0.1527    0.0000 C   0  0  0  0  0  0  0  0  0
   -2.0875   -0.6723    0.0000 C   0  0  0  0  0  0  0  0  0
   -1.3730   -1.0848    0.0000 C   0  0  0  0  0  0  0  0  0
   -0.6585   -0.6723    0.0000 C   0  0  0  0  0  0  0  0  0
    0.0560   -1.0848    0.0000 N   0  0  0  0  0  0  0  0  0
    0.7704   -0.6723    0.0000 C   0  0  0  0  0  0  0  0  0
    0.0560   -1.9098    0.0000 C   0  0  0  0  0  0  0  0  0
  1  2  1  0  0  0  0
  2  3  4  0  0  0  0
  2 11  4  0  0  0  0
  3  4  4  0  0  0  0
  4  5  1  0  0  0  0
  4  9  4  0  0  0  0
  5  6  1  0  0  0  0
  5 16  1  0  0  0  0
  6  7  4  0  0  0  0
  6 15  4  0  0  0  0
  7  8  1  0  0  0  0
  7 12  4  0  0  0  0
  8  9  1  0  0  0  0
  9 10  4  0  0  0  0
 10 11  4  0  0  0  0
 12 13  4  0  0  0  0
 13 14  4  0  0  0  0
 14 15  4  0  0  0  0
 16 17  1  0  0  0  0
 17 18  1  0  0  0  0
 18 19  1  0  0  0  0
 19 20  1  0  0  0  0
 19 21  1  0  0  0  0
M  END
>  <Name_Molregno>
CHLORPROMAZINE

>  <5-HT1A>
5.98

>  <5-HT1B>
5.83

>  <5-HT1D>
6.34

>  <5-HT1E>
6.46

>  <5-HT2A>
8.36

>  <5-HT2C>
7.74

>  <5-HT3>
6.01

>  <5-HT5>
6.93

>  <5-HT6>
7.59

>  <5-HT7>
7.54

>  <Alpha-1A>
9.55

>  <Alpha-1B>
9.09

>  <Alpha-2A>
6.71

>  <Alpha-2B>
7.81

>  <Alpha-2C>
7.36

>  <Beta-1>
5

>  <Beta-2>
5

>  <DOPAMINE D1>
7.1

>  <DOPAMINE D2>
8.51

>  <DOPAMINE D3>
8.58

>  <DOPAMINE D4>
8.03

>  <DOPAMINE D5>
6.82

>  <Dopamine transporter>
5

>  <HISTAMINE H1>
8.47

>  <HISTAMINE H2>
6.76

>  <HISTAMINE H3>
6

>  <HISTAMINE H4>
6.3

>  <Muscarinic acetylcholine receptor M1>
7.36

>  <Muscarinic acetylcholine receptor M2>
6.67

>  <Muscarinic acetylcholine receptor M3>
7.25

>  <Muscarinic acetylcholine receptor M4>
7.11

>  <Muscarinic acetylcholine receptor M5>
7.5

>  <Norepinephrine transporter>
5.61

>  <Serotonin transporter>
6.54

$$$$
CHLORPROTHIXENE
  Marvin  02231216192D 0   1.00000     0.00000     0

 21 23  0  0  0  0  0  0  0  0999 V2000
    5.5918   -1.4384    0.0000 Cl  0  0  0  0  0  0  0  0  0
    4.8773   -1.0259    0.0000 C   0  0  0  0  0  0  0  0  0
    4.1628   -1.4384    0.0000 C   0  0  0  0  0  0  0  0  0
    3.4484   -1.0259    0.0000 C   0  0  0  0  0  0  0  0  0
    3.4484   -0.2009    0.0000 C   0  0  0  0  0  0  0  0  0
    2.7339    0.2116    0.0000 S   0  0  0  0  0  0  0  0  0
    2.0194   -0.2009    0.0000 C   0  0  0  0  0  0  0  0  0
    2.0194   -1.0259    0.0000 C   0  0  0  0  0  0  0  0  0
    1.3049   -1.4384    0.0000 C   0  0  0  0  0  0  0  0  0
    0.5905   -1.0259    0.0000 C   0  0  0  0  0  0  0  0  0
    0.5905   -0.2009    0.0000 C   0  0  0  0  0  0  0  0  0
    1.3049    0.2116    0.0000 C   0  0  0  0  0  0  0  0  0
    2.7339   -1.4384    0.0000 C   0  0  0  0  0  0  0  0  0
    2.7339   -2.2634    0.0000 C   0  0  0  0  0  0  0  0  0
    2.0194   -2.6759    0.0000 C   0  0  0  0  0  0  0  0  0
    2.0194   -3.5009    0.0000 C   0  0  0  0  0  0  0  0  0
    1.3049   -3.9134    0.0000 N   0  0  0  0  0  0  0  0  0
    1.3049   -4.7384    0.0000 C   0  0  0  0  0  0  0  0  0
    0.5905   -3.5009    0.0000 C   0  0  0  0  0  0  0  0  0
    4.1628    0.2116    0.0000 C   0  0  0  0  0  0  0  0  0
    4.8773   -0.2009    0.0000 C   0  0  0  0  0  0  0  0  0
  1  2  1  0  0  0  0
  2  3  4  0  0  0  0
  2 21  4  0  0  0  0
  3  4  4  0  0  0  0
  4  5  4  0  0  0  0
  4 13  1  0  0  0  0
  5  6  1  0  0  0  0
  5 20  4  0  0  0  0
  6  7  1  0  0  0  0
  7  8  4  0  0  0  0
  7 12  4  0  0  0  0
  8  9  4  0  0  0  0
  8 13  1  0  0  0  0
  9 10  4  0  0  0  0
 10 11  4  0  0  0  0
 11 12  4  0  0  0  0
 13 14  2  0  0  0  0
 14 15  1  0  0  0  0
 15 16  1  0  0  0  0
 16 17  1  0  0  0  0
 17 18  1  0  0  0  0
 17 19  1  0  0  0  0
 20 21  4  0  0  0  0
M  END
>  <Name_Molregno>
CHLORPROTHIXENE

>  <5-HT2A>
9.37

>  <DOPAMINE D1>
7.74

>  <DOPAMINE D2>
8.37

>  <DOPAMINE D3>
8.34

>  <DOPAMINE D4>
9.19

>  <DOPAMINE D5>
8.05

>  <HISTAMINE H1>
8.43

>  <HISTAMINE H3>
6

>  <Muscarinic acetylcholine receptor M1>
7.96

>  <Muscarinic acetylcholine receptor M2>
7.55

>  <Muscarinic acetylcholine receptor M3>
7.66

>  <Muscarinic acetylcholine receptor M4>
7.74

>  <Muscarinic acetylcholine receptor M5>
7.6

$$$$
CIS-PIFLUTIXOL
  Marvin  02231216192D 0   1.00000     0.00000     0

 31 34  0  0  0  0  0  0  0  0999 V2000
    0.8407    3.6781    0.0000 S   0  0  0  0  0  0  0  0  0
    1.5552    3.2656    0.0000 C   0  0  0  0  0  0  0  0  0
    2.2696    3.6781    0.0000 C   0  0  0  0  0  0  0  0  0
    2.9841    3.2656    0.0000 C   0  0  0  0  0  0  0  0  0
    3.6986    3.6781    0.0000 F   0  0  0  0  0  0  0  0  0
    2.9841    2.4406    0.0000 C   0  0  0  0  0  0  0  0  0
    2.2696    2.0281    0.0000 C   0  0  0  0  0  0  0  0  0
    1.5552    2.4406    0.0000 C   0  0  0  0  0  0  0  0  0
    0.8407    2.0281    0.0000 C   0  0  0  0  0  0  0  0  0
    0.1262    2.4406    0.0000 C   0  0  0  0  0  0  0  0  0
   -0.5882    2.0281    0.0000 C   0  0  0  0  0  0  0  0  0
   -1.3027    2.4406    0.0000 C   0  0  0  0  0  0  0  0  0
   -1.3027    3.2656    0.0000 C   0  0  0  0  0  0  0  0  0
   -0.5882    3.6781    0.0000 C   0  0  0  0  0  0  0  0  0
    0.1262    3.2656    0.0000 C   0  0  0  0  0  0  0  0  0
   -2.0172    2.0281    0.0000 C   0  0  0  0  0  0  0  0  0
   -2.7317    1.6156    0.0000 F   0  0  0  0  0  0  0  0  0
   -2.4297    2.7425    0.0000 F   0  0  0  0  0  0  0  0  0
   -1.6047    1.3136    0.0000 F   0  0  0  0  0  0  0  0  0
    0.8407    1.2031    0.0000 C   0  0  0  0  0  0  0  0  0
    1.5552    0.7906    0.0000 C   0  0  0  0  0  0  0  0  0
    2.2696    1.2031    0.0000 C   0  0  0  0  0  0  0  0  0
    2.9841    0.7906    0.0000 N   0  0  0  0  0  0  0  0  0
    3.6986    1.2031    0.0000 C   0  0  0  0  0  0  0  0  0
    4.4131    0.7906    0.0000 C   0  0  0  0  0  0  0  0  0
    4.4131   -0.0344    0.0000 C   0  0  0  0  0  0  0  0  0
    3.6986   -0.4469    0.0000 C   0  0  0  0  0  0  0  0  0
    2.9841   -0.0344    0.0000 C   0  0  0  0  0  0  0  0  0
    5.1275   -0.4469    0.0000 C   0  0  0  0  0  0  0  0  0
    5.1275   -1.2719    0.0000 C   0  0  0  0  0  0  0  0  0
    5.8420   -1.6844    0.0000 O   0  0  0  0  0  0  0  0  0
  1  2  1  0  0  0  0
  1 15  1  0  0  0  0
  2  3  4  0  0  0  0
  2  8  4  0  0  0  0
  3  4  4  0  0  0  0
  4  5  1  0  0  0  0
  4  6  4  0  0  0  0
  6  7  4  0  0  0  0
  7  8  4  0  0  0  0
  8  9  1  0  0  0  0
  9 10  1  0  0  0  0
  9 20  2  0  0  0  0
 10 11  4  0  0  0  0
 10 15  4  0  0  0  0
 11 12  4  0  0  0  0
 12 13  4  0  0  0  0
 12 16  1  0  0  0  0
 13 14  4  0  0  0  0
 14 15  4  0  0  0  0
 16 17  1  0  0  0  0
 16 18  1  0  0  0  0
 16 19  1  0  0  0  0
 20 21  1  0  0  0  0
 21 22  1  0  0  0  0
 22 23  1  0  0  0  0
 23 24  1  0  0  0  0
 23 28  1  0  0  0  0
 24 25  1  0  0  0  0
 25 26  1  0  0  0  0
 26 27  1  0  0  0  0
 26 29  1  0  0  0  0
 27 28  1  0  0  0  0
 29 30  1  0  0  0  0
 30 31  1  0  0  0  0
M  END
>  <Name_Molregno>
CIS-PIFLUTIXOL

>  <DOPAMINE D1>
9.19

$$$$
cis-Thiothixene
  Marvin  02231216192D 0   1.00000     0.00000     0

 30 33  0  0  0  0  0  0  0  0999 V2000
    1.0940   -3.6931    0.0000 S   0  0  0  0  0  0  0  0  0
    1.8085   -3.2806    0.0000 C   0  0  0  0  0  0  0  0  0
    1.8085   -2.4556    0.0000 C   0  0  0  0  0  0  0  0  0
    2.5230   -2.0431    0.0000 C   0  0  0  0  0  0  0  0  0
    3.2375   -2.4556    0.0000 C   0  0  0  0  0  0  0  0  0
    3.9519   -2.0431    0.0000 S   0  0  0  0  0  0  0  0  0
    3.5394   -1.3286    0.0000 O   0  0  0  0  0  0  0  0  0
    4.3644   -2.7575    0.0000 O   0  0  0  0  0  0  0  0  0
    4.6664   -1.6306    0.0000 N   0  0  0  0  0  0  0  0  0
    5.3809   -2.0431    0.0000 C   0  0  0  0  0  0  0  0  0
    4.6664   -0.8056    0.0000 C   0  0  0  0  0  0  0  0  0
    3.2375   -3.2806    0.0000 C   0  0  0  0  0  0  0  0  0
    2.5230   -3.6931    0.0000 C   0  0  0  0  0  0  0  0  0
    1.0940   -2.0431    0.0000 C   0  0  0  0  0  0  0  0  0
    0.3796   -2.4556    0.0000 C   0  0  0  0  0  0  0  0  0
    0.3796   -3.2806    0.0000 C   0  0  0  0  0  0  0  0  0
   -0.3349   -3.6931    0.0000 C   0  0  0  0  0  0  0  0  0
   -1.0494   -3.2806    0.0000 C   0  0  0  0  0  0  0  0  0
   -1.0494   -2.4556    0.0000 C   0  0  0  0  0  0  0  0  0
   -0.3349   -2.0431    0.0000 C   0  0  0  0  0  0  0  0  0
    1.0940   -1.2181    0.0000 C   0  0  0  0  0  0  0  0  0
    0.3796   -0.8056    0.0000 C   0  0  0  0  0  0  0  0  0
   -0.3349   -1.2181    0.0000 C   0  0  0  0  0  0  0  0  0
   -1.0494   -0.8056    0.0000 N   0  0  0  0  0  0  0  0  0
   -1.7638   -1.2181    0.0000 C   0  0  0  0  0  0  0  0  0
   -2.4783   -0.8056    0.0000 C   0  0  0  0  0  0  0  0  0
   -2.4783    0.0194    0.0000 N   0  0  0  0  0  0  0  0  0
   -1.7638    0.4319    0.0000 C   0  0  0  0  0  0  0  0  0
   -1.0494    0.0194    0.0000 C   0  0  0  0  0  0  0  0  0
   -3.1928    0.4319    0.0000 C   0  0  0  0  0  0  0  0  0
  1  2  1  0  0  0  0
  1 16  1  0  0  0  0
  2  3  4  0  0  0  0
  2 13  4  0  0  0  0
  3  4  4  0  0  0  0
  3 14  1  0  0  0  0
  4  5  4  0  0  0  0
  5  6  1  0  0  0  0
  5 12  4  0  0  0  0
  6  7  2  0  0  0  0
  6  8  2  0  0  0  0
  6  9  1  0  0  0  0
  9 10  1  0  0  0  0
  9 11  1  0  0  0  0
 12 13  4  0  0  0  0
 14 15  1  0  0  0  0
 14 21  2  0  0  0  0
 15 16  4  0  0  0  0
 15 20  4  0  0  0  0
 16 17  4  0  0  0  0
 17 18  4  0  0  0  0
 18 19  4  0  0  0  0
 19 20  4  0  0  0  0
 21 22  1  0  0  0  0
 22 23  1  0  0  0  0
 23 24  1  0  0  0  0
 24 25  1  0  0  0  0
 24 29  1  0  0  0  0
 25 26  1  0  0  0  0
 26 27  1  0  0  0  0
 27 28  1  0  0  0  0
 27 30  1  0  0  0  0
 28 29  1  0  0  0  0
M  END
>  <Name_Molregno>
cis-Thiothixene

>  <5-HT1A>
6.39

>  <5-HT1B>
6.82

>  <5-HT1D>
6.18

>  <5-HT1E>
5

>  <5-HT2A>
7.42

>  <5-HT2C>
5.87

>  <5-HT3>
5.73

>  <5-HT5>
6.44

>  <5-HT6>
6.62

>  <5-HT7>
7.82

>  <Alpha-1A>
7.94

>  <Alpha-1B>
7.46

>  <Alpha-2A>
7.1

>  <Alpha-2B>
7.3

>  <Alpha-2C>
7.28

>  <Beta-1>
5

>  <Beta-2>
5

>  <DOPAMINE D1>
7.29

>  <DOPAMINE D2>
9.56

>  <DOPAMINE D3>
9.41

>  <DOPAMINE D4>
6.86

>  <DOPAMINE D5>
6.58

>  <Dopamine transporter>
5

>  <HISTAMINE H1>
8.23

>  <HISTAMINE H2>
6.39

>  <HISTAMINE H4>
5

>  <Muscarinic acetylcholine receptor M1>
5.3

>  <Muscarinic acetylcholine receptor M2>
5.34

>  <Muscarinic acetylcholine receptor M3>
5.27

>  <Muscarinic acetylcholine receptor M4>
5.4

>  <Muscarinic acetylcholine receptor M5>
5.32

>  <Norepinephrine transporter>
5

>  <Serotonin transporter>
5.41

$$$$
CLOZAPINE
  Marvin  02231216192D 0   1.00000     0.00000     0

 23 26  0  0  0  0  0  0  0  0999 V2000
   -0.5622   -2.2603    0.0000 Cl  0  0  0  0  0  0  0  0  0
    0.2262   -2.5035    0.0000 C   0  0  0  0  0  0  0  0  0
    0.8309   -1.9424    0.0000 C   0  0  0  0  0  0  0  0  0
    1.6193   -2.1855    0.0000 C   0  0  0  0  0  0  0  0  0
    2.1337   -1.5405    0.0000 N   0  0  0  0  0  0  0  0  0
    2.9587   -1.5405    0.0000 C   0  0  0  0  0  0  0  0  0
    3.3166   -0.7972    0.0000 N   0  0  0  0  0  0  0  0  0
    2.8519   -0.1156    0.0000 C   0  0  0  0  0  0  0  0  0
    3.2098    0.6277    0.0000 C   0  0  0  0  0  0  0  0  0
    4.0325    0.6894    0.0000 N   0  0  0  0  0  0  0  0  0
    4.4973    0.0077    0.0000 C   0  0  0  0  0  0  0  0  0
    4.1393   -0.7356    0.0000 C   0  0  0  0  0  0  0  0  0
    4.3905    1.4327    0.0000 C   0  0  0  0  0  0  0  0  0
    3.4730   -2.1855    0.0000 C   0  0  0  0  0  0  0  0  0
    3.2895   -2.9898    0.0000 C   0  0  0  0  0  0  0  0  0
    2.5462   -3.3478    0.0000 N   0  0  0  0  0  0  0  0  0
    1.8029   -2.9898    0.0000 C   0  0  0  0  0  0  0  0  0
    1.1981   -3.5510    0.0000 C   0  0  0  0  0  0  0  0  0
    0.4098   -3.3078    0.0000 C   0  0  0  0  0  0  0  0  0
    3.8942   -3.5510    0.0000 C   0  0  0  0  0  0  0  0  0
    4.6826   -3.3078    0.0000 C   0  0  0  0  0  0  0  0  0
    4.8662   -2.5035    0.0000 C   0  0  0  0  0  0  0  0  0
    4.2614   -1.9424    0.0000 C   0  0  0  0  0  0  0  0  0
  1  2  1  0  0  0  0
  2  3  4  0  0  0  0
  2 19  4  0  0  0  0
  3  4  4  0  0  0  0
  4  5  1  0  0  0  0
  4 17  4  0  0  0  0
  5  6  1  0  0  0  0
  6  7  1  0  0  0  0
  6 14  2  0  0  0  0
  7  8  1  0  0  0  0
  7 12  1  0  0  0  0
  8  9  1  0  0  0  0
  9 10  1  0  0  0  0
 10 11  1  0  0  0  0
 10 13  1  0  0  0  0
 11 12  1  0  0  0  0
 14 15  1  0  0  0  0
 14 23  1  0  0  0  0
 15 16  2  0  0  0  0
 15 20  1  0  0  0  0
 16 17  1  0  0  0  0
 17 18  4  0  0  0  0
 18 19  4  0  0  0  0
 20 21  2  0  0  0  0
 21 22  1  0  0  0  0
 22 23  2  0  0  0  0
M  END
>  <Name_Molregno>
CLOZAPINE

>  <5-HT1A>
6.88

>  <5-HT1B>
6.33

>  <5-HT1D>
6.27

>  <5-HT1E>
6.19

>  <5-HT2A>
8.22

>  <5-HT2C>
8

>  <5-HT3>
6.62

>  <5-HT5>
5.41

>  <5-HT6>
7.9

>  <5-HT7>
8.05

>  <Alpha-1A>
8.8

>  <Alpha-1B>
8.15

>  <Alpha-2A>
7.15

>  <Alpha-2B>
7.61

>  <Alpha-2C>
7.88

>  <Beta-1>
5.15

>  <Beta-2>
5.39

>  <DOPAMINE D1>
6.69

>  <DOPAMINE D2>
6.9

>  <DOPAMINE D3>
6.62

>  <DOPAMINE D4>
7.62

>  <DOPAMINE D5>
6.62

>  <Dopamine transporter>
5

>  <HISTAMINE H1>
8.81

>  <HISTAMINE H2>
6.82

>  <HISTAMINE H3>
5.25

>  <HISTAMINE H4>
6.15

>  <Muscarinic acetylcholine receptor M1>
8.26

>  <Muscarinic acetylcholine receptor M2>
7.17

>  <Muscarinic acetylcholine receptor M3>
7.59

>  <Muscarinic acetylcholine receptor M4>
7.85

>  <Muscarinic acetylcholine receptor M5>
7.79

>  <Norepinephrine transporter>
5.5

>  <Serotonin transporter>
5.73

$$$$
CLOZAPINE-2
  Marvin  02231216192D 0   1.00000     0.00000     0

 23 26  0  0  0  0  0  0  0  0999 V2000
   -0.5622   -2.2603    0.0000 Cl  0  0  0  0  0  0  0  0  0
    0.2262   -2.5035    0.0000 C   0  0  0  0  0  0  0  0  0
    0.8309   -1.9424    0.0000 C   0  0  0  0  0  0  0  0  0
    1.6193   -2.1855    0.0000 C   0  0  0  0  0  0  0  0  0
    2.1337   -1.5405    0.0000 N   0  0  0  0  0  0  0  0  0
    2.9587   -1.5405    0.0000 C   0  0  0  0  0  0  0  0  0
    3.3166   -0.7972    0.0000 N   0  0  0  0  0  0  0  0  0
    2.8519   -0.1156    0.0000 C   0  0  0  0  0  0  0  0  0
    3.2098    0.6277    0.0000 C   0  0  0  0  0  0  0  0  0
    4.0325    0.6894    0.0000 N   0  0  0  0  0  0  0  0  0
    4.4973    0.0077    0.0000 C   0  0  0  0  0  0  0  0  0
    4.1393   -0.7356    0.0000 C   0  0  0  0  0  0  0  0  0
    4.3905    1.4327    0.0000 C   0  0  0  0  0  0  0  0  0
    3.4730   -2.1855    0.0000 C   0  0  0  0  0  0  0  0  0
    3.2895   -2.9898    0.0000 C   0  0  0  0  0  0  0  0  0
    2.5462   -3.3478    0.0000 N   0  0  0  0  0  0  0  0  0
    1.8029   -2.9898    0.0000 C   0  0  0  0  0  0  0  0  0
    1.1981   -3.5510    0.0000 C   0  0  0  0  0  0  0  0  0
    0.4098   -3.3078    0.0000 C   0  0  0  0  0  0  0  0  0
    3.8942   -3.5510    0.0000 C   0  0  0  0  0  0  0  0  0
    4.6826   -3.3078    0.0000 C   0  0  0  0  0  0  0  0  0
    4.8662   -2.5035    0.0000 C   0  0  0  0  0  0  0  0  0
    4.2614   -1.9424    0.0000 C   0  0  0  0  0  0  0  0  0
  1  2  1  0  0  0  0
  2  3  4  0  0  0  0
  2 19  4  0  0  0  0
  3  4  4  0  0  0  0
  4  5  1  0  0  0  0
  4 17  4  0  0  0  0
  5  6  2  0  0  0  0
  6  7  1  0  0  0  0
  6 14  1  0  0  0  0
  7  8  1  0  0  0  0
  7 12  1  0  0  0  0
  8  9  1  0  0  0  0
  9 10  1  0  0  0  0
 10 11  1  0  0  0  0
 10 13  1  0  0  0  0
 11 12  1  0  0  0  0
 14 15  4  0  0  0  0
 14 23  4  0  0  0  0
 15 16  1  0  0  0  0
 15 20  4  0  0  0  0
 16 17  1  0  0  0  0
 17 18  4  0  0  0  0
 18 19  4  0  0  0  0
 20 21  4  0  0  0  0
 21 22  4  0  0  0  0
 22 23  4  0  0  0  0
M  END
>  <Name_Molregno>
CLOZAPINE-2

>  <5-HT1A>
6.92

>  <5-HT2A>
8.15

>  <5-HT2C>
7.92

>  <5-HT3>
6.4

>  <5-HT5>
6

>  <5-HT6>
7.85

>  <5-HT7>
7.47

>  <Alpha-2A>
7.62

>  <Alpha-2C>
8.54

>  <DOPAMINE D1>
7

>  <DOPAMINE D2>
7.03

>  <DOPAMINE D3>
6.48

>  <DOPAMINE D4>
7.6

>  <DOPAMINE D5>
6.7

>  <HISTAMINE H1>
8.77

>  <HISTAMINE H3>
6.1

>  <HISTAMINE H4>
6.75

>  <Muscarinic acetylcholine receptor M1>
8.47

>  <Muscarinic acetylcholine receptor M4>
7.9

>  <Serotonin transporter>
5.41

$$$$
Cyamemazine
  Marvin  02231216192D 0   1.00000     0.00000     0

 23 25  0  0  1  0  0  0  0  0999 V2000
   -0.6214   -0.6088    0.0000 S   0  0  0  0  0  0  0  0  0
   -0.6214   -1.4338    0.0000 C   0  0  0  0  0  0  0  0  0
    0.0931   -1.8463    0.0000 C   0  0  0  0  0  0  0  0  0
    0.8076   -1.4338    0.0000 N   0  0  0  0  0  0  0  0  0
    0.8076   -0.6088    0.0000 C   0  0  0  0  0  0  0  0  0
    0.0931   -0.1963    0.0000 C   0  0  0  0  0  0  0  0  0
    0.0931    0.6287    0.0000 C   0  0  0  0  0  0  0  0  0
    0.8076    1.0412    0.0000 C   0  0  0  0  0  0  0  0  0
    1.5220    0.6287    0.0000 C   0  0  0  0  0  0  0  0  0
    1.5220   -0.1963    0.0000 C   0  0  0  0  0  0  0  0  0
    1.5220   -1.8463    0.0000 C   0  0  0  0  0  0  0  0  0
    2.2365   -1.4338    0.0000 C   0  0  0  0  0  0  0  0  0
    2.9510   -1.8463    0.0000 C   0  0  0  0  0  0  0  0  0
    3.6655   -1.4338    0.0000 N   0  0  0  0  0  0  0  0  0
    4.3799   -1.8463    0.0000 C   0  0  0  0  0  0  0  0  0
    3.6655   -0.6088    0.0000 C   0  0  0  0  0  0  0  0  0
    2.2365   -0.6088    0.0000 C   0  0  0  0  0  0  0  0  0
    0.0931   -2.6713    0.0000 C   0  0  0  0  0  0  0  0  0
   -0.6214   -3.0838    0.0000 C   0  0  0  0  0  0  0  0  0
   -1.3358   -2.6713    0.0000 C   0  0  0  0  0  0  0  0  0
   -1.3358   -1.8463    0.0000 C   0  0  0  0  0  0  0  0  0
   -0.6214   -3.9088    0.0000 C   0  0  0  0  0  0  0  0  0
   -0.6214   -4.7338    0.0000 N   0  0  0  0  0  0  0  0  0
  1  2  1  0  0  0  0
  1  6  1  0  0  0  0
  2  3  4  0  0  0  0
  2 21  4  0  0  0  0
  3  4  1  0  0  0  0
  3 18  4  0  0  0  0
  4  5  1  0  0  0  0
  4 11  1  0  0  0  0
  5  6  4  0  0  0  0
  5 10  4  0  0  0  0
  6  7  4  0  0  0  0
  7  8  4  0  0  0  0
  8  9  4  0  0  0  0
  9 10  4  0  0  0  0
 11 12  1  0  0  0  0
 12 13  1  0  0  0  0
 12 17  1  0  0  0  0
 13 14  1  0  0  0  0
 14 15  1  0  0  0  0
 14 16  1  0  0  0  0
 18 19  4  0  0  0  0
 19 20  4  0  0  0  0
 19 22  1  0  0  0  0
 20 21  4  0  0  0  0
 22 23  3  0  0  0  0
M  END
>  <Name_Molregno>
Cyamemazine

>  <5-HT1A>
6.29

>  <5-HT2A>
8.82

>  <5-HT2C>
7.92

>  <5-HT3>
5.53

>  <5-HT7>
7.66

>  <DOPAMINE D1>
8.42

>  <DOPAMINE D2>
8.24

>  <DOPAMINE D3>
8.6

>  <DOPAMINE D4>
8.28

>  <Muscarinic acetylcholine receptor M1>
7.89

>  <Muscarinic acetylcholine receptor M2>
7.38

>  <Muscarinic acetylcholine receptor M3>
7.49

>  <Muscarinic acetylcholine receptor M4>
7.92

>  <Muscarinic acetylcholine receptor M5>
7.46

$$$$
CYPROHEPTADINE
  Marvin  02231216192D 0   1.00000     0.00000     0

 22 25  0  0  0  0  0  0  0  0999 V2000
    2.3061   -2.3673    0.0000 N   0  0  0  0  0  0  0  0  0
    1.5917   -1.9548    0.0000 C   0  0  0  0  0  0  0  0  0
    1.5917   -1.1298    0.0000 C   0  0  0  0  0  0  0  0  0
    2.3061   -0.7173    0.0000 C   0  0  0  0  0  0  0  0  0
    3.0206   -1.1298    0.0000 C   0  0  0  0  0  0  0  0  0
    3.0206   -1.9548    0.0000 C   0  0  0  0  0  0  0  0  0
    2.3061    0.1077    0.0000 C   0  0  0  0  0  0  0  0  0
    3.0494    0.4657    0.0000 C   0  0  0  0  0  0  0  0  0
    3.2330    1.2700    0.0000 C   0  0  0  0  0  0  0  0  0
    2.7186    1.9150    0.0000 C   0  0  0  0  0  0  0  0  0
    1.8936    1.9150    0.0000 C   0  0  0  0  0  0  0  0  0
    1.3792    1.2700    0.0000 C   0  0  0  0  0  0  0  0  0
    1.5628    0.4657    0.0000 C   0  0  0  0  0  0  0  0  0
    0.9581   -0.0955    0.0000 C   0  0  0  0  0  0  0  0  0
    0.1697    0.1477    0.0000 C   0  0  0  0  0  0  0  0  0
   -0.0139    0.9520    0.0000 C   0  0  0  0  0  0  0  0  0
    0.5909    1.5132    0.0000 C   0  0  0  0  0  0  0  0  0
    4.0214    1.5132    0.0000 C   0  0  0  0  0  0  0  0  0
    4.6261    0.9520    0.0000 C   0  0  0  0  0  0  0  0  0
    4.4425    0.1477    0.0000 C   0  0  0  0  0  0  0  0  0
    3.6542   -0.0955    0.0000 C   0  0  0  0  0  0  0  0  0
    2.3061   -3.1923    0.0000 C   0  0  0  0  0  0  0  0  0
  1  2  1  0  0  0  0
  1  6  1  0  0  0  0
  1 22  1  0  0  0  0
  2  3  1  0  0  0  0
  3  4  1  0  0  0  0
  4  5  1  0  0  0  0
  4  7  2  0  0  0  0
  5  6  1  0  0  0  0
  7  8  1  0  0  0  0
  7 13  1  0  0  0  0
  8  9  4  0  0  0  0
  8 21  4  0  0  0  0
  9 10  1  0  0  0  0
  9 18  4  0  0  0  0
 10 11  2  0  0  0  0
 11 12  1  0  0  0  0
 12 13  4  0  0  0  0
 12 17  4  0  0  0  0
 13 14  4  0  0  0  0
 14 15  4  0  0  0  0
 15 16  4  0  0  0  0
 16 17  4  0  0  0  0
 18 19  4  0  0  0  0
 19 20  4  0  0  0  0
 20 21  4  0  0  0  0
M  END
>  <Name_Molregno>
CYPROHEPTADINE

>  <5-HT1A>
7.12

>  <5-HT1D>
5.89

>  <5-HT2A>
8.42

>  <5-HT2C>
8.65

>  <5-HT6>
6.85

>  <5-HT7>
6.91

>  <DOPAMINE D1>
6.93

>  <DOPAMINE D2>
6.95

>  <DOPAMINE D3>
8.1

>  <HISTAMINE H1>
10.22

>  <HISTAMINE H3>
5

>  <HISTAMINE H4>
5.85

>  <Muscarinic acetylcholine receptor M1>
7.92

>  <Muscarinic acetylcholine receptor M2>
8.15

>  <Muscarinic acetylcholine receptor M3>
7.92

>  <Muscarinic acetylcholine receptor M4>
8.1

>  <Muscarinic acetylcholine receptor M5>
7.93

$$$$
D-cystine
  Marvin  02231216192D 0   1.00000     0.00000     0

 14 13  0  0  1  0  0  0  0  0999 V2000
    0.5597    0.5534    0.0000 S   0  0  0  0  0  0  0  0  0
   -0.1548    0.1409    0.0000 S   0  0  0  0  0  0  0  0  0
   -0.8693    0.5534    0.0000 C   0  0  0  0  0  0  0  0  0
   -1.5838    0.1409    0.0000 C   0  0  0  0  0  0  0  0  0
   -1.5838   -0.6841    0.0000 N   0  0  0  0  0  0  0  0  0
   -2.2982    0.5534    0.0000 C   0  0  0  0  0  0  0  0  0
   -3.0127    0.1409    0.0000 O   0  0  0  0  0  0  0  0  0
   -2.2982    1.3784    0.0000 O   0  0  0  0  0  0  0  0  0
    1.2741    0.1409    0.0000 C   0  0  0  0  0  0  0  0  0
    1.9886    0.5534    0.0000 C   0  0  0  0  0  0  0  0  0
    1.9886    1.3784    0.0000 N   0  0  0  0  0  0  0  0  0
    2.7031    0.1409    0.0000 C   0  0  0  0  0  0  0  0  0
    3.4175    0.5534    0.0000 O   0  0  0  0  0  0  0  0  0
    2.7031   -0.6841    0.0000 O   0  0  0  0  0  0  0  0  0
  1  2  1  0  0  0  0
  1  9  1  0  0  0  0
  2  3  1  0  0  0  0
  3  4  1  0  0  0  0
  4  5  1  0  0  0  0
  4  6  1  0  0  0  0
  6  7  1  0  0  0  0
  6  8  2  0  0  0  0
  9 10  1  0  0  0  0
 10 11  1  0  0  0  0
 10 12  1  0  0  0  0
 12 13  1  0  0  0  0
 12 14  2  0  0  0  0
M  END
>  <Name_Molregno>
D-cystine

>  <5-HT1A>
5

>  <5-HT1B>
5

>  <5-HT1D>
5

>  <5-HT3>
5

>  <5-HT5>
5

>  <5-HT6>
5

>  <5-HT7>
5

>  <Alpha-1A>
5

>  <Alpha-1B>
5

>  <Alpha-2A>
5

>  <Alpha-2B>
5

>  <Alpha-2C>
5

>  <DOPAMINE D1>
5

>  <DOPAMINE D2>
5

>  <DOPAMINE D3>
5

>  <DOPAMINE D5>
5

>  <Dopamine transporter>
5

>  <HISTAMINE H1>
5

>  <HISTAMINE H2>
5

>  <HISTAMINE H4>
5

>  <Muscarinic acetylcholine receptor M1>
5

>  <Muscarinic acetylcholine receptor M2>
5

>  <Muscarinic acetylcholine receptor M3>
5

>  <Muscarinic acetylcholine receptor M4>
5

>  <Muscarinic acetylcholine receptor M5>
5

>  <Norepinephrine transporter>
5

>  <Serotonin transporter>
5

$$$$
DEPRENYL
  Marvin  02231216192D 0   1.00000     0.00000     0

 14 14  0  0  1  0  0  0  0  0999 V2000
    2.2691    0.2045    0.0000 N   0  0  0  0  0  0  0  0  0
    1.5546   -0.2080    0.0000 C   0  0  0  0  0  0  0  0  0
    0.8401    0.2045    0.0000 C   0  0  0  0  0  0  0  0  0
    0.1256   -0.2080    0.0000 C   0  0  0  0  0  0  0  0  0
    0.1256   -1.0330    0.0000 C   0  0  0  0  0  0  0  0  0
   -0.5888   -1.4455    0.0000 C   0  0  0  0  0  0  0  0  0
   -1.3033   -1.0330    0.0000 C   0  0  0  0  0  0  0  0  0
   -1.3033   -0.2080    0.0000 C   0  0  0  0  0  0  0  0  0
   -0.5888    0.2045    0.0000 C   0  0  0  0  0  0  0  0  0
    1.5546   -1.0330    0.0000 C   0  0  0  0  0  0  0  0  0
    2.9835   -0.2080    0.0000 C   0  0  0  0  0  0  0  0  0
    3.6980    0.2045    0.0000 C   0  0  0  0  0  0  0  0  0
    4.4125    0.6170    0.0000 C   0  0  0  0  0  0  0  0  0
    2.2691    1.0295    0.0000 C   0  0  0  0  0  0  0  0  0
  1  2  1  0  0  0  0
  1 11  1  0  0  0  0
  1 14  1  0  0  0  0
  2  3  1  0  0  0  0
  2 10  1  0  0  0  0
  3  4  1  0  0  0  0
  4  5  4  0  0  0  0
  4  9  4  0  0  0  0
  5  6  4  0  0  0  0
  6  7  4  0  0  0  0
  7  8  4  0  0  0  0
  8  9  4  0  0  0  0
 11 12  1  0  0  0  0
 12 13  3  0  0  0  0
M  END
>  <Name_Molregno>
DEPRENYL

>  <5-HT1A>
5

>  <DOPAMINE D1>
5

>  <DOPAMINE D2>
5

$$$$
DESIPRAMINE
  Marvin  02231216192D 0   1.00000     0.00000     0

 20 22  0  0  0  0  0  0  0  0999 V2000
   -0.0715   -0.0141    0.0000 N   0  0  0  0  0  0  0  0  0
    0.6430   -0.4266    0.0000 C   0  0  0  0  0  0  0  0  0
    1.3575   -0.0141    0.0000 C   0  0  0  0  0  0  0  0  0
    2.0719   -0.4266    0.0000 C   0  0  0  0  0  0  0  0  0
    2.7864   -0.0141    0.0000 N   0  0  0  0  0  0  0  0  0
    2.7248    0.8086    0.0000 C   0  0  0  0  0  0  0  0  0
    3.3295    1.3697    0.0000 C   0  0  0  0  0  0  0  0  0
    4.1453    1.2468    0.0000 C   0  0  0  0  0  0  0  0  0
    4.5578    0.5323    0.0000 C   0  0  0  0  0  0  0  0  0
    4.2564   -0.2357    0.0000 C   0  0  0  0  0  0  0  0  0
    3.4680   -0.4788    0.0000 C   0  0  0  0  0  0  0  0  0
    3.2845   -1.2831    0.0000 C   0  0  0  0  0  0  0  0  0
    3.8892   -1.8443    0.0000 C   0  0  0  0  0  0  0  0  0
    4.6776   -1.6011    0.0000 C   0  0  0  0  0  0  0  0  0
    4.8612   -0.7968    0.0000 C   0  0  0  0  0  0  0  0  0
    3.1459    2.1741    0.0000 C   0  0  0  0  0  0  0  0  0
    2.3576    2.4172    0.0000 C   0  0  0  0  0  0  0  0  0
    1.7528    1.8561    0.0000 C   0  0  0  0  0  0  0  0  0
    1.9364    1.0518    0.0000 C   0  0  0  0  0  0  0  0  0
   -0.7860   -0.4266    0.0000 C   0  0  0  0  0  0  0  0  0
  1  2  1  0  0  0  0
  1 20  1  0  0  0  0
  2  3  1  0  0  0  0
  3  4  1  0  0  0  0
  4  5  1  0  0  0  0
  5  6  1  0  0  0  0
  5 11  1  0  0  0  0
  6  7  4  0  0  0  0
  6 19  4  0  0  0  0
  7  8  1  0  0  0  0
  7 16  4  0  0  0  0
  8  9  1  0  0  0  0
  9 10  1  0  0  0  0
 10 11  4  0  0  0  0
 10 15  4  0  0  0  0
 11 12  4  0  0  0  0
 12 13  4  0  0  0  0
 13 14  4  0  0  0  0
 14 15  4  0  0  0  0
 16 17  4  0  0  0  0
 17 18  4  0  0  0  0
 18 19  4  0  0  0  0
M  END
>  <Name_Molregno>
DESIPRAMINE

>  <5-HT1A>
5.1

>  <DOPAMINE D1>
5.26

>  <DOPAMINE D2>
5.63

>  <Dopamine transporter>
5.17

>  <HISTAMINE H1>
7.16

>  <Muscarinic acetylcholine receptor M1>
6.96

>  <Muscarinic acetylcholine receptor M2>
6.27

>  <Muscarinic acetylcholine receptor M3>
6.68

>  <Muscarinic acetylcholine receptor M4>
6.8

>  <Muscarinic acetylcholine receptor M5>
6.84

>  <Norepinephrine transporter>
8.66

>  <Serotonin transporter>
7.14

$$$$
Desvenlafaxine
  Marvin  02231216192D 0   1.00000     0.00000     0

 19 20  0  0  1  0  0  0  0  0999 V2000
   -0.7896   -0.8374    0.0000 O   0  0  0  0  0  0  0  0  0
   -0.2593   -1.4694    0.0000 C   0  0  0  0  0  0  0  0  0
    0.4552   -1.8819    0.0000 C   0  0  0  0  0  0  0  0  0
    0.4552   -2.7069    0.0000 C   0  0  0  0  0  0  0  0  0
   -0.2593   -3.1194    0.0000 C   0  0  0  0  0  0  0  0  0
   -0.9738   -2.7069    0.0000 C   0  0  0  0  0  0  0  0  0
   -0.9738   -1.8819    0.0000 C   0  0  0  0  0  0  0  0  0
    0.2710   -0.8374    0.0000 C   0  0  0  0  0  0  0  0  0
   -0.0112   -0.0621    0.0000 C   0  0  0  0  0  0  0  0  0
   -0.8236    0.0811    0.0000 N   0  0  0  0  0  0  0  0  0
   -1.3539   -0.5509    0.0000 C   0  0  0  0  0  0  0  0  0
   -1.1058    0.8564    0.0000 C   0  0  0  0  0  0  0  0  0
    1.0835   -0.9806    0.0000 C   0  0  0  0  0  0  0  0  0
    1.6138   -0.3487    0.0000 C   0  0  0  0  0  0  0  0  0
    2.4262   -0.4919    0.0000 C   0  0  0  0  0  0  0  0  0
    2.7084   -1.2672    0.0000 C   0  0  0  0  0  0  0  0  0
    3.5209   -1.4104    0.0000 O   0  0  0  0  0  0  0  0  0
    2.1781   -1.8992    0.0000 C   0  0  0  0  0  0  0  0  0
    1.3656   -1.7559    0.0000 C   0  0  0  0  0  0  0  0  0
  1  2  1  0  0  0  0
  2  3  1  0  0  0  0
  2  7  1  0  0  0  0
  2  8  1  0  0  0  0
  3  4  1  0  0  0  0
  4  5  1  0  0  0  0
  5  6  1  0  0  0  0
  6  7  1  0  0  0  0
  8  9  1  0  0  0  0
  8 13  1  0  0  0  0
  9 10  1  0  0  0  0
 10 11  1  0  0  0  0
 10 12  1  0  0  0  0
 13 14  4  0  0  0  0
 13 19  4  0  0  0  0
 14 15  4  0  0  0  0
 15 16  4  0  0  0  0
 16 17  1  0  0  0  0
 16 18  4  0  0  0  0
 18 19  4  0  0  0  0
M  END
>  <Name_Molregno>
Desvenlafaxine

>  <DOPAMINE D1>
5

>  <DOPAMINE D2>
5

>  <Dopamine transporter>
5

>  <Muscarinic acetylcholine receptor M1>
5

>  <Muscarinic acetylcholine receptor M2>
5

>  <Muscarinic acetylcholine receptor M3>
5

>  <Muscarinic acetylcholine receptor M4>
5

>  <Muscarinic acetylcholine receptor M5>
5

>  <Norepinephrine transporter>
5.81

>  <Serotonin transporter>
7.44

$$$$
d-Fenfluramine
  Marvin  02231216192D 0   1.00000     0.00000     0

 16 16  0  0  1  0  0  0  0  0999 V2000
   -5.1694    0.5172    0.0000 F   0  0  0  0  0  0  0  0  0
   -4.4549    0.1047    0.0000 C   0  0  0  0  0  0  0  0  0
   -4.8674   -0.6097    0.0000 F   0  0  0  0  0  0  0  0  0
   -4.0424    0.8192    0.0000 F   0  0  0  0  0  0  0  0  0
   -3.7405   -0.3078    0.0000 C   0  0  0  0  0  0  0  0  0
   -3.0260    0.1047    0.0000 C   0  0  0  0  0  0  0  0  0
   -2.3115   -0.3078    0.0000 C   0  0  0  0  0  0  0  0  0
   -2.3115   -1.1328    0.0000 C   0  0  0  0  0  0  0  0  0
   -3.0260   -1.5453    0.0000 C   0  0  0  0  0  0  0  0  0
   -3.7405   -1.1328    0.0000 C   0  0  0  0  0  0  0  0  0
   -1.5971    0.1047    0.0000 C   0  0  0  0  0  0  0  0  0
   -0.8826   -0.3078    0.0000 C   0  0  0  0  0  0  0  0  0
   -0.1681    0.1047    0.0000 N   0  0  0  0  0  0  0  0  0
    0.5464   -0.3078    0.0000 C   0  0  0  0  0  0  0  0  0
    1.2608    0.1047    0.0000 C   0  0  0  0  0  0  0  0  0
   -0.8826   -1.1328    0.0000 C   0  0  0  0  0  0  0  0  0
  1  2  1  0  0  0  0
  2  3  1  0  0  0  0
  2  4  1  0  0  0  0
  2  5  1  0  0  0  0
  5  6  4  0  0  0  0
  5 10  4  0  0  0  0
  6  7  4  0  0  0  0
  7  8  4  0  0  0  0
  7 11  1  0  0  0  0
  8  9  4  0  0  0  0
  9 10  4  0  0  0  0
 11 12  1  0  0  0  0
 12 13  1  0  0  0  0
 12 16  1  0  0  0  0
 13 14  1  0  0  0  0
 14 15  1  0  0  0  0
M  END
>  <Name_Molregno>
d-Fenfluramine

>  <5-HT1A>
6.11

>  <5-HT1B>
5.67

>  <5-HT1D>
5.79

>  <5-HT1E>
5

>  <5-HT2A>
5.92

>  <5-HT2C>
6.27

>  <5-HT3>
5

>  <5-HT5>
5

>  <5-HT6>
5.01

>  <5-HT7>
5.17

>  <Alpha-1A>
5.52

>  <Alpha-1B>
5.62

>  <Alpha-2A>
6.26

>  <Alpha-2B>
6.65

>  <Alpha-2C>
6.68

>  <Beta-1>
5.67

>  <Beta-2>
5.07

>  <DOPAMINE D1>
5

>  <DOPAMINE D2>
5

>  <DOPAMINE D4>
5

>  <DOPAMINE D5>
5

>  <Dopamine transporter>
5

>  <HISTAMINE H1>
5

>  <HISTAMINE H2>
5

>  <Muscarinic acetylcholine receptor M1>
5.61

>  <Muscarinic acetylcholine receptor M2>
5.39

>  <Muscarinic acetylcholine receptor M3>
5.22

>  <Muscarinic acetylcholine receptor M4>
5.1

>  <Muscarinic acetylcholine receptor M5>
5

>  <Norepinephrine transporter>
5

>  <Serotonin transporter>
6.18

$$$$
DHE
  Marvin  02231216192D 0   1.00000     0.00000     0

 43 50  0  0  1  0  0  0  0  0999 V2000
   -2.1239   -1.0172    0.0000 O   0  0  0  0  0  0  0  0  0
   -1.3035   -1.1045    0.0000 C   0  0  0  0  0  0  0  0  0
   -1.3025   -0.2795    0.0000 N   0  0  0  0  0  0  0  0  0
   -0.5876    0.1322    0.0000 C   0  0  0  0  0  0  0  0  0
    0.1264   -0.2812    0.0000 O   0  0  0  0  0  0  0  0  0
   -0.5866    0.9572    0.0000 C   0  0  0  0  0  0  0  0  0
    0.1284    1.3688    0.0000 C   0  0  0  0  0  0  0  0  0
    0.1294    2.1938    0.0000 C   0  0  0  0  0  0  0  0  0
   -0.5846    2.6072    0.0000 C   0  0  0  0  0  0  0  0  0
   -1.2996    2.1955    0.0000 N   0  0  0  0  0  0  0  0  0
   -1.3006    1.3705    0.0000 C   0  0  0  0  0  0  0  0  0
   -2.0136    2.6089    0.0000 C   0  0  0  0  0  0  0  0  0
   -0.5831    3.4313    0.0000 C   0  0  0  0  0  0  0  0  0
    0.1294    3.8438    0.0000 C   0  0  0  0  0  0  0  0  0
    0.8419    3.4313    0.0000 C   0  0  0  0  0  0  0  0  0
    0.8419    2.6063    0.0000 C   0  0  0  0  0  0  0  0  0
    1.5597    2.1938    0.0000 C   0  0  0  0  0  0  0  0  0
    2.2722    2.6063    0.0000 C   0  0  0  0  0  0  0  0  0
    2.2722    3.4313    0.0000 C   0  0  0  0  0  0  0  0  0
    1.5597    3.8438    0.0000 C   0  0  0  0  0  0  0  0  0
    1.2544    4.7010    0.0000 N   0  0  0  0  0  0  0  0  0
    0.4294    4.7010    0.0000 C   0  0  0  0  0  0  0  0  0
   -0.4830   -1.0192    0.0000 C   0  0  0  0  0  0  0  0  0
   -1.1330   -1.9116    0.0000 C   0  0  0  0  0  0  0  0  0
   -0.3797   -2.2481    0.0000 O   0  0  0  0  0  0  0  0  0
   -1.8479   -2.3233    0.0000 N   0  0  0  0  0  0  0  0  0
   -2.0204   -3.1301    0.0000 C   0  0  0  0  0  0  0  0  0
   -1.4080   -3.6828    0.0000 C   0  0  0  0  0  0  0  0  0
   -1.5805   -4.4896    0.0000 C   0  0  0  0  0  0  0  0  0
   -0.9681   -5.0424    0.0000 C   0  0  0  0  0  0  0  0  0
   -1.1406   -5.8491    0.0000 C   0  0  0  0  0  0  0  0  0
   -1.9255   -6.1031    0.0000 C   0  0  0  0  0  0  0  0  0
   -2.5379   -5.5504    0.0000 C   0  0  0  0  0  0  0  0  0
   -2.3654   -4.7436    0.0000 C   0  0  0  0  0  0  0  0  0
   -2.8054   -3.3841    0.0000 C   0  0  0  0  0  0  0  0  0
   -2.9779   -4.1908    0.0000 O   0  0  0  0  0  0  0  0  0
   -3.4178   -2.8313    0.0000 N   0  0  0  0  0  0  0  0  0
   -3.2453   -2.0245    0.0000 C   0  0  0  0  0  0  0  0  0
   -3.9593   -1.6112    0.0000 C   0  0  0  0  0  0  0  0  0
   -4.5730   -2.1625    0.0000 C   0  0  0  0  0  0  0  0  0
   -4.2384   -2.9165    0.0000 C   0  0  0  0  0  0  0  0  0
   -2.4604   -1.7705    0.0000 C   0  0  0  0  0  0  0  0  0
   -3.0117   -1.1568    0.0000 O   0  0  0  0  0  0  0  0  0
  1  2  1  0  0  0  0
  1 42  1  0  0  0  0
  2  3  1  0  0  0  0
  2 23  1  0  0  0  0
  2 24  1  0  0  0  0
  3  4  1  0  0  0  0
  4  5  2  0  0  0  0
  4  6  1  0  0  0  0
  6  7  1  0  0  0  0
  6 11  1  0  0  0  0
  7  8  1  0  0  0  0
  8  9  1  0  0  0  0
  8 16  1  0  0  0  0
  9 10  1  0  0  0  0
  9 13  1  0  0  0  0
 10 11  1  0  0  0  0
 10 12  1  0  0  0  0
 13 14  1  0  0  0  0
 14 15  4  0  0  0  0
 14 22  4  0  0  0  0
 15 16  4  0  0  0  0
 15 20  4  0  0  0  0
 16 17  4  0  0  0  0
 17 18  4  0  0  0  0
 18 19  4  0  0  0  0
 19 20  4  0  0  0  0
 20 21  4  0  0  0  0
 21 22  4  0  0  0  0
 24 25  2  0  0  0  0
 24 26  1  0  0  0  0
 26 27  1  0  0  0  0
 26 42  1  0  0  0  0
 27 28  1  0  0  0  0
 27 35  1  0  0  0  0
 28 29  1  0  0  0  0
 29 30  4  0  0  0  0
 29 34  4  0  0  0  0
 30 31  4  0  0  0  0
 31 32  4  0  0  0  0
 32 33  4  0  0  0  0
 33 34  4  0  0  0  0
 35 36  2  0  0  0  0
 35 37  1  0  0  0  0
 37 38  1  0  0  0  0
 37 41  1  0  0  0  0
 38 39  1  0  0  0  0
 38 42  1  0  0  0  0
 39 40  1  0  0  0  0
 40 41  1  0  0  0  0
 42 43  1  0  0  0  0
M  STY  1   1 DAT
M  SAL   1  1  21
M  SDT   1 MRV_IMPLICIT_H                                        
M  SDD   1     0.0000    0.0000    DR    ALL  0       0  
M  SED   1 IMPL_H1
M  END
>  <Name_Molregno>
DHE

>  <5-HT1A>
8.82

>  <5-HT1B>
9.62

>  <5-HT1D>
9.89

>  <5-HT6>
8.27

>  <5-HT7>
8.04

>  <DOPAMINE D1>
5.56

>  <DOPAMINE D2>
8.3

>  <DOPAMINE D3>
7.8

$$$$
Diclofenac
  Marvin  02231216192D 0   1.00000     0.00000     0

 19 20  0  0  0  0  0  0  0  0999 V2000
    1.8639   -0.1839    0.0000 Cl  0  0  0  0  0  0  0  0  0
    1.8639   -1.0089    0.0000 C   0  0  0  0  0  0  0  0  0
    2.5784   -1.4214    0.0000 C   0  0  0  0  0  0  0  0  0
    2.5784   -2.2464    0.0000 C   0  0  0  0  0  0  0  0  0
    1.8639   -2.6589    0.0000 C   0  0  0  0  0  0  0  0  0
    1.1494   -2.2464    0.0000 C   0  0  0  0  0  0  0  0  0
    0.4350   -2.6589    0.0000 Cl  0  0  0  0  0  0  0  0  0
    1.1494   -1.4214    0.0000 C   0  0  0  0  0  0  0  0  0
    0.4350   -1.0089    0.0000 N   0  0  0  0  0  0  0  0  0
   -0.2795   -1.4214    0.0000 C   0  0  0  0  0  0  0  0  0
   -0.2795   -2.2464    0.0000 C   0  0  0  0  0  0  0  0  0
   -0.9940   -2.6589    0.0000 C   0  0  0  0  0  0  0  0  0
   -1.7085   -2.2464    0.0000 C   0  0  0  0  0  0  0  0  0
   -1.7085   -1.4214    0.0000 C   0  0  0  0  0  0  0  0  0
   -0.9940   -1.0089    0.0000 C   0  0  0  0  0  0  0  0  0
   -0.9940   -0.1839    0.0000 C   0  0  0  0  0  0  0  0  0
   -0.2795    0.2286    0.0000 C   0  0  0  0  0  0  0  0  0
   -0.2795    1.0536    0.0000 O   0  0  0  0  0  0  0  0  0
    0.4350   -0.1839    0.0000 O   0  0  0  0  0  0  0  0  0
  1  2  1  0  0  0  0
  2  3  4  0  0  0  0
  2  8  4  0  0  0  0
  3  4  4  0  0  0  0
  4  5  4  0  0  0  0
  5  6  4  0  0  0  0
  6  7  1  0  0  0  0
  6  8  4  0  0  0  0
  8  9  1  0  0  0  0
  9 10  1  0  0  0  0
 10 11  4  0  0  0  0
 10 15  4  0  0  0  0
 11 12  4  0  0  0  0
 12 13  4  0  0  0  0
 13 14  4  0  0  0  0
 14 15  4  0  0  0  0
 15 16  1  0  0  0  0
 16 17  1  0  0  0  0
 17 18  1  0  0  0  0
 17 19  2  0  0  0  0
M  END
>  <Name_Molregno>
Diclofenac

>  <5-HT1A>
5

>  <5-HT1B>
5

>  <5-HT1D>
5

>  <5-HT1E>
5

>  <5-HT2A>
5

>  <5-HT3>
5

>  <5-HT5>
5

>  <5-HT6>
5

>  <5-HT7>
5

>  <Alpha-1A>
5

>  <Alpha-1B>
5

>  <Alpha-2A>
5

>  <Alpha-2B>
5

>  <Alpha-2C>
5

>  <DOPAMINE D1>
5

>  <DOPAMINE D2>
5

>  <DOPAMINE D4>
5

>  <DOPAMINE D5>
5

>  <HISTAMINE H1>
5

>  <HISTAMINE H2>
5

>  <Muscarinic acetylcholine receptor M2>
5

>  <Muscarinic acetylcholine receptor M5>
5

$$$$
DL-homocysteic-acid
  Marvin  02231216192D 0   1.00000     0.00000     0

 11 10  0  0  1  0  0  0  0  0999 V2000
   -2.6928   -0.0066    0.0000 S   0  0  0  0  0  0  0  0  0
   -3.4073   -0.4191    0.0000 O   0  0  0  0  0  0  0  0  0
   -2.2803   -0.7210    0.0000 O   0  0  0  0  0  0  0  0  0
   -3.1053    0.7079    0.0000 O   0  0  0  0  0  0  0  0  0
   -1.9783    0.4059    0.0000 C   0  0  0  0  0  0  0  0  0
   -1.2639   -0.0066    0.0000 C   0  0  0  0  0  0  0  0  0
   -0.5494    0.4059    0.0000 C   0  0  0  0  0  0  0  0  0
   -0.5494    1.2309    0.0000 N   0  0  0  0  0  0  0  0  0
    0.1651   -0.0066    0.0000 C   0  0  0  0  0  0  0  0  0
    0.8795    0.4059    0.0000 O   0  0  0  0  0  0  0  0  0
    0.1651   -0.8316    0.0000 O   0  0  0  0  0  0  0  0  0
  1  2  2  0  0  0  0
  1  3  2  0  0  0  0
  1  4  1  0  0  0  0
  1  5  1  0  0  0  0
  5  6  1  0  0  0  0
  6  7  1  0  0  0  0
  7  8  1  0  0  0  0
  7  9  1  0  0  0  0
  9 10  1  0  0  0  0
  9 11  2  0  0  0  0
M  END
>  <Name_Molregno>
DL-homocysteic-acid

>  <5-HT1A>
5

>  <5-HT1B>
5

>  <5-HT1D>
5

>  <5-HT3>
5

>  <5-HT5>
5

>  <5-HT6>
5

>  <5-HT7>
5

>  <Alpha-1A>
5

>  <Alpha-1B>
5

>  <Alpha-2A>
5

>  <Alpha-2B>
5

>  <Alpha-2C>
5

>  <DOPAMINE D1>
5

>  <DOPAMINE D2>
5

>  <DOPAMINE D3>
5

>  <DOPAMINE D5>
5

>  <Dopamine transporter>
5

>  <Muscarinic acetylcholine receptor M1>
5

>  <Muscarinic acetylcholine receptor M2>
5

>  <Muscarinic acetylcholine receptor M3>
5

>  <Muscarinic acetylcholine receptor M4>
5

>  <Muscarinic acetylcholine receptor M5>
5

>  <Norepinephrine transporter>
5

>  <Serotonin transporter>
5

$$$$
DL-homocysteine
  Marvin  02231216192D 0   1.00000     0.00000     0

  8  7  0  0  1  0  0  0  0  0999 V2000
   -0.0519    0.0021    0.0000 S   0  0  0  0  0  0  0  0  0
    0.6626    0.4146    0.0000 C   0  0  0  0  0  0  0  0  0
    1.3770    0.0021    0.0000 C   0  0  0  0  0  0  0  0  0
    2.0915    0.4146    0.0000 C   0  0  0  0  0  0  0  0  0
    2.0915    1.2396    0.0000 N   0  0  0  0  0  0  0  0  0
    2.8060    0.0021    0.0000 C   0  0  0  0  0  0  0  0  0
    3.5205    0.4146    0.0000 O   0  0  0  0  0  0  0  0  0
    2.8060   -0.8229    0.0000 O   0  0  0  0  0  0  0  0  0
  1  2  1  0  0  0  0
  2  3  1  0  0  0  0
  3  4  1  0  0  0  0
  4  5  1  0  0  0  0
  4  6  1  0  0  0  0
  6  7  1  0  0  0  0
  6  8  2  0  0  0  0
M  END
>  <Name_Molregno>
DL-homocysteine

>  <5-HT1A>
5

>  <5-HT1B>
5

>  <5-HT1D>
5

>  <5-HT3>
5

>  <5-HT5>
5

>  <5-HT6>
5

>  <5-HT7>
5

>  <Alpha-1A>
5

>  <Alpha-1B>
5

>  <Alpha-2A>
5

>  <Alpha-2B>
5

>  <Alpha-2C>
5

>  <DOPAMINE D1>
5

>  <DOPAMINE D2>
5

>  <DOPAMINE D3>
5

>  <DOPAMINE D5>
5

>  <Dopamine transporter>
5

>  <HISTAMINE H1>
5

>  <HISTAMINE H2>
5

>  <HISTAMINE H4>
5

>  <Muscarinic acetylcholine receptor M1>
5

>  <Muscarinic acetylcholine receptor M2>
5

>  <Muscarinic acetylcholine receptor M3>
5

>  <Muscarinic acetylcholine receptor M4>
5

>  <Muscarinic acetylcholine receptor M5>
5

>  <Norepinephrine transporter>
5

>  <Serotonin transporter>
5

$$$$
D-methionine
  Marvin  02231216192D 0   1.00000     0.00000     0

  9  8  0  0  1  0  0  0  0  0999 V2000
   -0.3763    1.2394    0.0000 S   0  0  0  0  0  0  0  0  0
    0.3381    0.8269    0.0000 C   0  0  0  0  0  0  0  0  0
    1.0526    1.2394    0.0000 C   0  0  0  0  0  0  0  0  0
    1.7671    0.8269    0.0000 C   0  0  0  0  0  0  0  0  0
    1.7671    0.0019    0.0000 N   0  0  0  0  0  0  0  0  0
    2.4816    1.2394    0.0000 C   0  0  0  0  0  0  0  0  0
    3.1960    0.8269    0.0000 O   0  0  0  0  0  0  0  0  0
    2.4816    2.0644    0.0000 O   0  0  0  0  0  0  0  0  0
   -1.0908    0.8269    0.0000 C   0  0  0  0  0  0  0  0  0
  1  2  1  0  0  0  0
  1  9  1  0  0  0  0
  2  3  1  0  0  0  0
  3  4  1  0  0  0  0
  4  5  1  0  0  0  0
  4  6  1  0  0  0  0
  6  7  1  0  0  0  0
  6  8  2  0  0  0  0
M  END
>  <Name_Molregno>
D-methionine

>  <5-HT1A>
5

>  <5-HT1B>
5

>  <5-HT1D>
5

>  <5-HT3>
5

>  <5-HT5>
5

>  <5-HT6>
5

>  <5-HT7>
5

>  <Alpha-1A>
5

>  <Alpha-1B>
5

>  <Alpha-2A>
5

>  <Alpha-2B>
5

>  <Alpha-2C>
5

>  <DOPAMINE D1>
5

>  <DOPAMINE D2>
5

>  <DOPAMINE D3>
5

>  <DOPAMINE D5>
5

>  <Dopamine transporter>
5

>  <HISTAMINE H1>
5

>  <HISTAMINE H2>
5

>  <HISTAMINE H4>
5

>  <Muscarinic acetylcholine receptor M1>
5

>  <Muscarinic acetylcholine receptor M2>
5

>  <Muscarinic acetylcholine receptor M3>
5

>  <Muscarinic acetylcholine receptor M4>
5

>  <Muscarinic acetylcholine receptor M5>
5

>  <Norepinephrine transporter>
5

>  <Serotonin transporter>
5

$$$$
DOPAMINE
  Marvin  02231216192D 0   1.00000     0.00000     0

 11 11  0  0  0  0  0  0  0  0999 V2000
    3.1358    1.8244    0.0000 O   0  0  0  0  0  0  0  0  0
    2.4213    1.4119    0.0000 C   0  0  0  0  0  0  0  0  0
    2.4213    0.5869    0.0000 C   0  0  0  0  0  0  0  0  0
    1.7068    0.1744    0.0000 C   0  0  0  0  0  0  0  0  0
    0.9924    0.5869    0.0000 C   0  0  0  0  0  0  0  0  0
    0.9924    1.4119    0.0000 C   0  0  0  0  0  0  0  0  0
    1.7068    1.8244    0.0000 C   0  0  0  0  0  0  0  0  0
    1.7068    2.6494    0.0000 O   0  0  0  0  0  0  0  0  0
    1.7068   -0.6506    0.0000 C   0  0  0  0  0  0  0  0  0
    0.9924   -1.0631    0.0000 C   0  0  0  0  0  0  0  0  0
    0.9924   -1.8881    0.0000 N   0  0  0  0  0  0  0  0  0
  1  2  1  0  0  0  0
  2  3  4  0  0  0  0
  2  7  4  0  0  0  0
  3  4  4  0  0  0  0
  4  5  4  0  0  0  0
  4  9  1  0  0  0  0
  5  6  4  0  0  0  0
  6  7  4  0  0  0  0
  7  8  1  0  0  0  0
  9 10  1  0  0  0  0
 10 11  1  0  0  0  0
M  END
>  <Name_Molregno>
DOPAMINE

>  <5-HT1A>
5.08

>  <5-HT2A>
5

>  <5-HT3>
5

>  <5-HT7>
5

>  <DOPAMINE D1>
5.72

>  <DOPAMINE D2>
6.7

>  <DOPAMINE D3>
7.41

>  <DOPAMINE D4>
7.64

>  <DOPAMINE D5>
6.64

>  <Dopamine transporter>
5.79

>  <Norepinephrine transporter>
6.49

$$$$
Ephedrine
  Marvin  02231216192D 0   1.00000     0.00000     0

 12 12  0  0  1  0  0  0  0  0999 V2000
    1.9192   -0.0549    0.0000 O   0  0  0  0  0  0  0  0  0
    1.2047   -0.4674    0.0000 C   0  0  0  0  0  0  0  0  0
    0.4903   -0.0549    0.0000 C   0  0  0  0  0  0  0  0  0
    0.4903    0.7701    0.0000 N   0  0  0  0  0  0  0  0  0
   -0.2242    1.1826    0.0000 C   0  0  0  0  0  0  0  0  0
   -0.2242   -0.4674    0.0000 C   0  0  0  0  0  0  0  0  0
    1.2047   -1.2924    0.0000 C   0  0  0  0  0  0  0  0  0
    1.9192   -1.7049    0.0000 C   0  0  0  0  0  0  0  0  0
    1.9192   -2.5299    0.0000 C   0  0  0  0  0  0  0  0  0
    1.2047   -2.9424    0.0000 C   0  0  0  0  0  0  0  0  0
    0.4903   -2.5299    0.0000 C   0  0  0  0  0  0  0  0  0
    0.4903   -1.7049    0.0000 C   0  0  0  0  0  0  0  0  0
  1  2  1  0  0  0  0
  2  3  1  0  0  0  0
  2  7  1  0  0  0  0
  3  4  1  0  0  0  0
  3  6  1  0  0  0  0
  4  5  1  0  0  0  0
  7  8  4  0  0  0  0
  7 12  4  0  0  0  0
  8  9  4  0  0  0  0
  9 10  4  0  0  0  0
 10 11  4  0  0  0  0
 11 12  4  0  0  0  0
M  END
>  <Name_Molregno>
Ephedrine

>  <5-HT1A>
5

>  <5-HT1B>
5

>  <5-HT1D>
5

>  <5-HT1E>
5

>  <5-HT3>
5

>  <5-HT5>
5

>  <5-HT6>
5

>  <5-HT7>
5.33

>  <Alpha-1A>
5

>  <Alpha-1B>
5

>  <Alpha-2A>
5.17

>  <Alpha-2B>
5.48

>  <Alpha-2C>
5.51

>  <Beta-1>
5

>  <Beta-2>
5

>  <DOPAMINE D1>
5

>  <DOPAMINE D2>
5

>  <DOPAMINE D4>
5

>  <DOPAMINE D5>
5

>  <Dopamine transporter>
5.38

>  <HISTAMINE H1>
5

>  <HISTAMINE H2>
5

>  <HISTAMINE H4>
5

>  <Muscarinic acetylcholine receptor M1>
5

>  <Muscarinic acetylcholine receptor M2>
5

>  <Muscarinic acetylcholine receptor M3>
5

>  <Muscarinic acetylcholine receptor M4>
5

>  <Muscarinic acetylcholine receptor M5>
5

>  <Norepinephrine transporter>
5.79

>  <Serotonin transporter>
5

$$$$
ERGOTAMINE
  Marvin  02231216192D 0   1.00000     0.00000     0

 43 50  0  0  1  0  0  0  0  0999 V2000
   -2.1239   -1.0172    0.0000 O   0  0  0  0  0  0  0  0  0
   -1.3035   -1.1045    0.0000 C   0  0  0  0  0  0  0  0  0
   -1.3025   -0.2795    0.0000 N   0  0  0  0  0  0  0  0  0
   -0.5876    0.1322    0.0000 C   0  0  0  0  0  0  0  0  0
    0.1264   -0.2812    0.0000 O   0  0  0  0  0  0  0  0  0
   -0.5866    0.9572    0.0000 C   0  0  0  0  0  0  0  0  0
    0.1284    1.3688    0.0000 C   0  0  0  0  0  0  0  0  0
    0.1294    2.1938    0.0000 C   0  0  0  0  0  0  0  0  0
   -0.5846    2.6072    0.0000 C   0  0  0  0  0  0  0  0  0
   -1.2996    2.1955    0.0000 N   0  0  0  0  0  0  0  0  0
   -1.3006    1.3705    0.0000 C   0  0  0  0  0  0  0  0  0
   -2.0136    2.6089    0.0000 C   0  0  0  0  0  0  0  0  0
   -0.5831    3.4313    0.0000 C   0  0  0  0  0  0  0  0  0
    0.1294    3.8438    0.0000 C   0  0  0  0  0  0  0  0  0
    0.8419    3.4313    0.0000 C   0  0  0  0  0  0  0  0  0
    0.8419    2.6063    0.0000 C   0  0  0  0  0  0  0  0  0
    1.5597    2.1938    0.0000 C   0  0  0  0  0  0  0  0  0
    2.2722    2.6063    0.0000 C   0  0  0  0  0  0  0  0  0
    2.2722    3.4313    0.0000 C   0  0  0  0  0  0  0  0  0
    1.5597    3.8438    0.0000 C   0  0  0  0  0  0  0  0  0
    1.2544    4.7010    0.0000 N   0  0  0  0  0  0  0  0  0
    0.4294    4.7010    0.0000 C   0  0  0  0  0  0  0  0  0
   -0.4830   -1.0192    0.0000 C   0  0  0  0  0  0  0  0  0
   -1.1330   -1.9116    0.0000 C   0  0  0  0  0  0  0  0  0
   -0.3797   -2.2481    0.0000 O   0  0  0  0  0  0  0  0  0
   -1.8479   -2.3233    0.0000 N   0  0  0  0  0  0  0  0  0
   -2.0204   -3.1301    0.0000 C   0  0  0  0  0  0  0  0  0
   -1.4080   -3.6828    0.0000 C   0  0  0  0  0  0  0  0  0
   -1.5805   -4.4896    0.0000 C   0  0  0  0  0  0  0  0  0
   -0.9681   -5.0424    0.0000 C   0  0  0  0  0  0  0  0  0
   -1.1406   -5.8491    0.0000 C   0  0  0  0  0  0  0  0  0
   -1.9255   -6.1031    0.0000 C   0  0  0  0  0  0  0  0  0
   -2.5379   -5.5504    0.0000 C   0  0  0  0  0  0  0  0  0
   -2.3654   -4.7436    0.0000 C   0  0  0  0  0  0  0  0  0
   -2.8054   -3.3841    0.0000 C   0  0  0  0  0  0  0  0  0
   -2.9779   -4.1908    0.0000 O   0  0  0  0  0  0  0  0  0
   -3.4178   -2.8313    0.0000 N   0  0  0  0  0  0  0  0  0
   -3.2453   -2.0245    0.0000 C   0  0  0  0  0  0  0  0  0
   -3.9593   -1.6112    0.0000 C   0  0  0  0  0  0  0  0  0
   -4.5730   -2.1625    0.0000 C   0  0  0  0  0  0  0  0  0
   -4.2384   -2.9165    0.0000 C   0  0  0  0  0  0  0  0  0
   -2.4604   -1.7705    0.0000 C   0  0  0  0  0  0  0  0  0
   -3.0117   -1.1568    0.0000 O   0  0  0  0  0  0  0  0  0
  1  2  1  0  0  0  0
  1 42  1  0  0  0  0
  2  3  1  0  0  0  0
  2 23  1  0  0  0  0
  2 24  1  0  0  0  0
  3  4  1  0  0  0  0
  4  5  2  0  0  0  0
  4  6  1  0  0  0  0
  6  7  1  0  0  0  0
  6 11  1  0  0  0  0
  7  8  2  0  0  0  0
  8  9  1  0  0  0  0
  8 16  1  0  0  0  0
  9 10  1  0  0  0  0
  9 13  1  0  0  0  0
 10 11  1  0  0  0  0
 10 12  1  0  0  0  0
 13 14  1  0  0  0  0
 14 15  4  0  0  0  0
 14 22  4  0  0  0  0
 15 16  4  0  0  0  0
 15 20  4  0  0  0  0
 16 17  4  0  0  0  0
 17 18  4  0  0  0  0
 18 19  4  0  0  0  0
 19 20  4  0  0  0  0
 20 21  4  0  0  0  0
 21 22  4  0  0  0  0
 24 25  2  0  0  0  0
 24 26  1  0  0  0  0
 26 27  1  0  0  0  0
 26 42  1  0  0  0  0
 27 28  1  0  0  0  0
 27 35  1  0  0  0  0
 28 29  1  0  0  0  0
 29 30  4  0  0  0  0
 29 34  4  0  0  0  0
 30 31  4  0  0  0  0
 31 32  4  0  0  0  0
 32 33  4  0  0  0  0
 33 34  4  0  0  0  0
 35 36  2  0  0  0  0
 35 37  1  0  0  0  0
 37 38  1  0  0  0  0
 37 41  1  0  0  0  0
 38 39  1  0  0  0  0
 38 42  1  0  0  0  0
 39 40  1  0  0  0  0
 40 41  1  0  0  0  0
 42 43  1  0  0  0  0
M  STY  1   1 DAT
M  SAL   1  1  21
M  SDT   1 MRV_IMPLICIT_H                                        
M  SDD   1     0.0000    0.0000    DR    ALL  0       0  
M  SED   1 IMPL_H1
M  END
>  <Name_Molregno>
ERGOTAMINE

>  <5-HT1A>
9.77

>  <5-HT1B>
8.33

>  <5-HT1D>
9

>  <5-HT1E>
6.58

>  <5-HT2A>
9.1

>  <5-HT2C>
8.37

>  <5-HT3>
5

>  <5-HT6>
7.92

>  <5-HT7>
5.89

>  <Alpha-1A>
5

>  <Alpha-1B>
5

>  <Alpha-2A>
6.97

>  <Alpha-2B>
7.05

>  <Alpha-2C>
5

>  <Beta-1>
5

>  <Beta-2>
5

>  <DOPAMINE D1>
5

>  <DOPAMINE D2>
5

>  <DOPAMINE D4>
5

>  <DOPAMINE D5>
6.77

>  <Dopamine transporter>
5

>  <HISTAMINE H1>
5

>  <HISTAMINE H2>
5

>  <Muscarinic acetylcholine receptor M1>
6.06

>  <Muscarinic acetylcholine receptor M2>
6.04

>  <Muscarinic acetylcholine receptor M3>
5

>  <Muscarinic acetylcholine receptor M4>
5

>  <Muscarinic acetylcholine receptor M5>
5

>  <Norepinephrine transporter>
5

>  <Serotonin transporter>
5

$$$$
ETICLOPRIDE
  Marvin  02231216192D 0   1.00000     0.00000     0

 23 24  0  0  1  0  0  0  0  0999 V2000
    0.4207   -0.0120    0.0000 Cl  0  0  0  0  0  0  0  0  0
    1.1351    0.4005    0.0000 C   0  0  0  0  0  0  0  0  0
    1.1351    1.2255    0.0000 C   0  0  0  0  0  0  0  0  0
    1.8496    1.6380    0.0000 C   0  0  0  0  0  0  0  0  0
    1.8496    2.4630    0.0000 C   0  0  0  0  0  0  0  0  0
    1.1351    2.8755    0.0000 C   0  0  0  0  0  0  0  0  0
    2.5641    1.2255    0.0000 C   0  0  0  0  0  0  0  0  0
    3.2785    1.6380    0.0000 O   0  0  0  0  0  0  0  0  0
    2.5641    0.4005    0.0000 C   0  0  0  0  0  0  0  0  0
    3.2785   -0.0120    0.0000 C   0  0  0  0  0  0  0  0  0
    3.9930    0.4005    0.0000 O   0  0  0  0  0  0  0  0  0
    3.2785   -0.8370    0.0000 N   0  0  0  0  0  0  0  0  0
    3.9930   -1.2495    0.0000 C   0  0  0  0  0  0  0  0  0
    3.9930   -2.0745    0.0000 C   0  0  0  0  0  0  0  0  0
    4.6605   -2.5594    0.0000 N   0  0  0  0  0  0  0  0  0
    4.4055   -3.3441    0.0000 C   0  0  0  0  0  0  0  0  0
    3.5805   -3.3441    0.0000 C   0  0  0  0  0  0  0  0  0
    3.3256   -2.5594    0.0000 C   0  0  0  0  0  0  0  0  0
    5.4451   -2.3045    0.0000 C   0  0  0  0  0  0  0  0  0
    6.0582   -2.8565    0.0000 C   0  0  0  0  0  0  0  0  0
    1.8496   -0.0120    0.0000 C   0  0  0  0  0  0  0  0  0
    1.8496   -0.8370    0.0000 O   0  0  0  0  0  0  0  0  0
    2.5641   -1.2495    0.0000 C   0  0  0  0  0  0  0  0  0
  1  2  1  0  0  0  0
  2  3  4  0  0  0  0
  2 21  4  0  0  0  0
  3  4  4  0  0  0  0
  4  5  1  0  0  0  0
  4  7  4  0  0  0  0
  5  6  1  0  0  0  0
  7  8  1  0  0  0  0
  7  9  4  0  0  0  0
  9 10  1  0  0  0  0
  9 21  4  0  0  0  0
 10 11  2  0  0  0  0
 10 12  1  0  0  0  0
 12 13  1  0  0  0  0
 13 14  1  0  0  0  0
 14 15  1  0  0  0  0
 14 18  1  0  0  0  0
 15 16  1  0  0  0  0
 15 19  1  0  0  0  0
 16 17  1  0  0  0  0
 17 18  1  0  0  0  0
 19 20  1  0  0  0  0
 21 22  1  0  0  0  0
 22 23  1  0  0  0  0
M  END
>  <Name_Molregno>
ETICLOPRIDE

>  <5-HT1A>
5.75

>  <DOPAMINE D1>
5

>  <DOPAMINE D2>
10

>  <DOPAMINE D3>
10

>  <DOPAMINE D4>
7.61

>  <DOPAMINE D5>
5

$$$$
ETORICOXIB
  Marvin  02231216192D 0   1.00000     0.00000     0

 24 26  0  0  0  0  0  0  0  0999 V2000
    1.3103    1.0543    0.0000 Cl  0  0  0  0  0  0  0  0  0
    1.3103    0.2293    0.0000 C   0  0  0  0  0  0  0  0  0
    2.0248   -0.1832    0.0000 C   0  0  0  0  0  0  0  0  0
    2.0248   -1.0082    0.0000 C   0  0  0  0  0  0  0  0  0
    1.3103   -1.4207    0.0000 C   0  0  0  0  0  0  0  0  0
    0.5958   -1.0082    0.0000 N   0  0  0  0  0  0  0  0  0
    0.5958   -0.1832    0.0000 C   0  0  0  0  0  0  0  0  0
    1.3103   -2.2457    0.0000 C   0  0  0  0  0  0  0  0  0
    2.0248   -2.6582    0.0000 C   0  0  0  0  0  0  0  0  0
    2.0248   -3.4832    0.0000 C   0  0  0  0  0  0  0  0  0
    1.3103   -3.8957    0.0000 C   0  0  0  0  0  0  0  0  0
    0.5958   -3.4832    0.0000 N   0  0  0  0  0  0  0  0  0
    0.5958   -2.6582    0.0000 C   0  0  0  0  0  0  0  0  0
    1.3103   -4.7207    0.0000 C   0  0  0  0  0  0  0  0  0
    2.7392   -1.4207    0.0000 C   0  0  0  0  0  0  0  0  0
    3.4537   -1.0082    0.0000 C   0  0  0  0  0  0  0  0  0
    4.1682   -1.4207    0.0000 C   0  0  0  0  0  0  0  0  0
    4.1682   -2.2457    0.0000 C   0  0  0  0  0  0  0  0  0
    4.8826   -2.6582    0.0000 S   0  0  0  0  0  0  0  0  0
    5.5971   -3.0707    0.0000 O   0  0  0  0  0  0  0  0  0
    4.4701   -3.3727    0.0000 O   0  0  0  0  0  0  0  0  0
    5.2951   -1.9437    0.0000 C   0  0  0  0  0  0  0  0  0
    3.4537   -2.6582    0.0000 C   0  0  0  0  0  0  0  0  0
    2.7392   -2.2457    0.0000 C   0  0  0  0  0  0  0  0  0
  1  2  1  0  0  0  0
  2  3  4  0  0  0  0
  2  7  4  0  0  0  0
  3  4  4  0  0  0  0
  4  5  4  0  0  0  0
  4 15  1  0  0  0  0
  5  6  4  0  0  0  0
  5  8  1  0  0  0  0
  6  7  4  0  0  0  0
  8  9  4  0  0  0  0
  8 13  4  0  0  0  0
  9 10  4  0  0  0  0
 10 11  4  0  0  0  0
 11 12  4  0  0  0  0
 11 14  1  0  0  0  0
 12 13  4  0  0  0  0
 15 16  4  0  0  0  0
 15 24  4  0  0  0  0
 16 17  4  0  0  0  0
 17 18  4  0  0  0  0
 18 19  1  0  0  0  0
 18 23  4  0  0  0  0
 19 20  2  0  0  0  0
 19 21  2  0  0  0  0
 19 22  1  0  0  0  0
 23 24  4  0  0  0  0
M  END
>  <Name_Molregno>
ETORICOXIB

>  <5-HT1A>
5

>  <5-HT1B>
5

>  <5-HT1D>
5

>  <5-HT1E>
5

>  <5-HT2A>
5

>  <5-HT3>
5

>  <5-HT6>
5

>  <5-HT7>
5

>  <Alpha-1A>
5

>  <Alpha-1B>
5

>  <Alpha-2A>
5

>  <Alpha-2B>
5

>  <Alpha-2C>
5

>  <DOPAMINE D1>
5

>  <DOPAMINE D2>
5

>  <DOPAMINE D5>
5

>  <Dopamine transporter>
5

>  <HISTAMINE H2>
5

>  <HISTAMINE H4>
5

>  <Muscarinic acetylcholine receptor M1>
5

>  <Norepinephrine transporter>
5

>  <Serotonin transporter>
5

$$$$
FENOLDOPAM
  Marvin  02231216192D 0   1.00000     0.00000     0

 21 23  0  0  1  0  0  0  0  0999 V2000
    1.7970   -3.1037    0.0000 Cl  0  0  0  0  0  0  0  0  0
    1.7970   -2.2787    0.0000 C   0  0  0  0  0  0  0  0  0
    2.5114   -1.8662    0.0000 C   0  0  0  0  0  0  0  0  0
    2.5114   -1.0412    0.0000 C   0  0  0  0  0  0  0  0  0
    1.7970   -0.6287    0.0000 C   0  0  0  0  0  0  0  0  0
    1.0825   -1.0412    0.0000 C   0  0  0  0  0  0  0  0  0
    0.3680   -0.6287    0.0000 O   0  0  0  0  0  0  0  0  0
    1.0825   -1.8662    0.0000 C   0  0  0  0  0  0  0  0  0
    0.3680   -2.2787    0.0000 O   0  0  0  0  0  0  0  0  0
    3.1564   -0.5268    0.0000 C   0  0  0  0  0  0  0  0  0
    3.9608   -0.7104    0.0000 C   0  0  0  0  0  0  0  0  0
    4.3187   -1.4537    0.0000 N   0  0  0  0  0  0  0  0  0
    3.9608   -2.1970    0.0000 C   0  0  0  0  0  0  0  0  0
    3.1564   -2.3806    0.0000 C   0  0  0  0  0  0  0  0  0
    2.9729    0.2775    0.0000 C   0  0  0  0  0  0  0  0  0
    2.1845    0.5207    0.0000 C   0  0  0  0  0  0  0  0  0
    2.0009    1.3250    0.0000 C   0  0  0  0  0  0  0  0  0
    2.6057    1.8861    0.0000 C   0  0  0  0  0  0  0  0  0
    2.4221    2.6905    0.0000 O   0  0  0  0  0  0  0  0  0
    3.3941    1.6430    0.0000 C   0  0  0  0  0  0  0  0  0
    3.5776    0.8387    0.0000 C   0  0  0  0  0  0  0  0  0
  1  2  1  0  0  0  0
  2  3  4  0  0  0  0
  2  8  4  0  0  0  0
  3  4  4  0  0  0  0
  3 14  1  0  0  0  0
  4  5  4  0  0  0  0
  4 10  1  0  0  0  0
  5  6  4  0  0  0  0
  6  7  1  0  0  0  0
  6  8  4  0  0  0  0
  8  9  1  0  0  0  0
 10 11  1  0  0  0  0
 10 15  1  0  0  0  0
 11 12  1  0  0  0  0
 12 13  1  0  0  0  0
 13 14  1  0  0  0  0
 15 16  4  0  0  0  0
 15 21  4  0  0  0  0
 16 17  4  0  0  0  0
 17 18  4  0  0  0  0
 18 19  1  0  0  0  0
 18 20  4  0  0  0  0
 20 21  4  0  0  0  0
M  END
>  <Name_Molregno>
FENOLDOPAM

>  <DOPAMINE D1>
7.02

>  <DOPAMINE D5>
6.96

$$$$
Fluorocarazolol
  Marvin  02231216192D 0   1.00000     0.00000     0

 23 25  0  0  1  0  0  0  0  0999 V2000
   -0.1270    1.0228    0.0000 F   0  0  0  0  0  0  0  0  0
    0.5874    0.6103    0.0000 C   0  0  0  0  0  0  0  0  0
    1.3019    1.0228    0.0000 C   0  0  0  0  0  0  0  0  0
    2.0164    0.6103    0.0000 N   0  0  0  0  0  0  0  0  0
    2.7309    1.0228    0.0000 C   0  0  0  0  0  0  0  0  0
    3.4453    0.6103    0.0000 C   0  0  0  0  0  0  0  0  0
    3.4453   -0.2147    0.0000 O   0  0  0  0  0  0  0  0  0
    4.1598    1.0228    0.0000 C   0  0  0  0  0  0  0  0  0
    4.8743    0.6103    0.0000 O   0  0  0  0  0  0  0  0  0
    5.5887    1.0228    0.0000 C   0  0  0  0  0  0  0  0  0
    6.3032    0.6103    0.0000 C   0  0  0  0  0  0  0  0  0
    6.4747   -0.1966    0.0000 C   0  0  0  0  0  0  0  0  0
    7.2952   -0.2829    0.0000 C   0  0  0  0  0  0  0  0  0
    7.6308    0.4708    0.0000 N   0  0  0  0  0  0  0  0  0
    7.0177    1.0228    0.0000 C   0  0  0  0  0  0  0  0  0
    7.0177    1.8478    0.0000 C   0  0  0  0  0  0  0  0  0
    6.3032    2.2603    0.0000 C   0  0  0  0  0  0  0  0  0
    5.5887    1.8478    0.0000 C   0  0  0  0  0  0  0  0  0
    7.6308   -1.0365    0.0000 C   0  0  0  0  0  0  0  0  0
    7.1459   -1.7040    0.0000 C   0  0  0  0  0  0  0  0  0
    6.3254   -1.6178    0.0000 C   0  0  0  0  0  0  0  0  0
    5.9898   -0.8641    0.0000 C   0  0  0  0  0  0  0  0  0
    1.3019    1.8478    0.0000 C   0  0  0  0  0  0  0  0  0
  1  2  1  0  0  0  0
  2  3  1  0  0  0  0
  3  4  1  0  0  0  0
  3 23  1  0  0  0  0
  4  5  1  0  0  0  0
  5  6  1  0  0  0  0
  6  7  1  0  0  0  0
  6  8  1  0  0  0  0
  8  9  1  0  0  0  0
  9 10  1  0  0  0  0
 10 11  4  0  0  0  0
 10 18  4  0  0  0  0
 11 12  4  0  0  0  0
 11 15  4  0  0  0  0
 12 13  4  0  0  0  0
 12 22  4  0  0  0  0
 13 14  4  0  0  0  0
 13 19  4  0  0  0  0
 14 15  4  0  0  0  0
 15 16  4  0  0  0  0
 16 17  4  0  0  0  0
 17 18  4  0  0  0  0
 19 20  4  0  0  0  0
 20 21  4  0  0  0  0
 21 22  4  0  0  0  0
M  STY  1   1 DAT
M  SAL   1  1  14
M  SDT   1 MRV_IMPLICIT_H                                        
M  SDD   1     0.0000    0.0000    DR    ALL  0       0  
M  SED   1 IMPL_H1
M  END
>  <Name_Molregno>
Fluorocarazolol

>  <5-HT1A>
6.97

>  <5-HT1B>
6.31

>  <5-HT1D>
5.5

>  <5-HT1E>
5

>  <5-HT3>
5

>  <5-HT5>
5

>  <5-HT6>
5

>  <5-HT7>
5.17

>  <Alpha-1A>
5.85

>  <Alpha-1B>
5.76

>  <Alpha-2A>
5.5

>  <Alpha-2B>
5.03

>  <Alpha-2C>
5.54

>  <Beta-1>
9.65

>  <Beta-2>
9.98

>  <DOPAMINE D1>
5

>  <DOPAMINE D5>
5

>  <Muscarinic acetylcholine receptor M1>
5.66

>  <Muscarinic acetylcholine receptor M2>
5

>  <Muscarinic acetylcholine receptor M3>
5.4

>  <Muscarinic acetylcholine receptor M4>
5.14

>  <Muscarinic acetylcholine receptor M5>
5.27

>  <Norepinephrine transporter>
5

>  <Serotonin transporter>
5

$$$$
FLUPENTHIXOL-Alpha
  Marvin  02231216192D 0   1.00000     0.00000     0

 30 33  0  0  0  0  0  0  0  0999 V2000
    2.2729   -3.8406    0.0000 S   0  0  0  0  0  0  0  0  0
    2.9874   -3.4281    0.0000 C   0  0  0  0  0  0  0  0  0
    2.9874   -2.6031    0.0000 C   0  0  0  0  0  0  0  0  0
    3.7018   -2.1906    0.0000 C   0  0  0  0  0  0  0  0  0
    4.4163   -2.6031    0.0000 C   0  0  0  0  0  0  0  0  0
    4.4163   -3.4281    0.0000 C   0  0  0  0  0  0  0  0  0
    3.7018   -3.8406    0.0000 C   0  0  0  0  0  0  0  0  0
    5.1308   -2.1906    0.0000 C   0  0  0  0  0  0  0  0  0
    5.8453   -1.7781    0.0000 F   0  0  0  0  0  0  0  0  0
    4.7183   -1.4762    0.0000 F   0  0  0  0  0  0  0  0  0
    5.5433   -2.9051    0.0000 F   0  0  0  0  0  0  0  0  0
    2.2729   -2.1906    0.0000 C   0  0  0  0  0  0  0  0  0
    1.5584   -2.6031    0.0000 C   0  0  0  0  0  0  0  0  0
    1.5584   -3.4281    0.0000 C   0  0  0  0  0  0  0  0  0
    0.8440   -3.8406    0.0000 C   0  0  0  0  0  0  0  0  0
    0.1295   -3.4281    0.0000 C   0  0  0  0  0  0  0  0  0
    0.1295   -2.6031    0.0000 C   0  0  0  0  0  0  0  0  0
    0.8440   -2.1906    0.0000 C   0  0  0  0  0  0  0  0  0
    2.2729   -1.3656    0.0000 C   0  0  0  0  0  0  0  0  0
    1.5584   -0.9531    0.0000 C   0  0  0  0  0  0  0  0  0
    0.8440   -1.3656    0.0000 C   0  0  0  0  0  0  0  0  0
    0.1295   -0.9531    0.0000 N   0  0  0  0  0  0  0  0  0
   -0.5850   -1.3656    0.0000 C   0  0  0  0  0  0  0  0  0
   -1.2994   -0.9531    0.0000 C   0  0  0  0  0  0  0  0  0
   -1.2994   -0.1281    0.0000 N   0  0  0  0  0  0  0  0  0
   -0.5850    0.2844    0.0000 C   0  0  0  0  0  0  0  0  0
    0.1295   -0.1281    0.0000 C   0  0  0  0  0  0  0  0  0
   -2.0139    0.2844    0.0000 C   0  0  0  0  0  0  0  0  0
   -2.0139    1.1094    0.0000 C   0  0  0  0  0  0  0  0  0
   -2.7284    1.5219    0.0000 O   0  0  0  0  0  0  0  0  0
  1  2  1  0  0  0  0
  1 14  1  0  0  0  0
  2  3  4  0  0  0  0
  2  7  4  0  0  0  0
  3  4  4  0  0  0  0
  3 12  1  0  0  0  0
  4  5  4  0  0  0  0
  5  6  4  0  0  0  0
  5  8  1  0  0  0  0
  6  7  4  0  0  0  0
  8  9  1  0  0  0  0
  8 10  1  0  0  0  0
  8 11  1  0  0  0  0
 12 13  1  0  0  0  0
 12 19  2  0  0  0  0
 13 14  4  0  0  0  0
 13 18  4  0  0  0  0
 14 15  4  0  0  0  0
 15 16  4  0  0  0  0
 16 17  4  0  0  0  0
 17 18  4  0  0  0  0
 19 20  1  0  0  0  0
 20 21  1  0  0  0  0
 21 22  1  0  0  0  0
 22 23  1  0  0  0  0
 22 27  1  0  0  0  0
 23 24  1  0  0  0  0
 24 25  1  0  0  0  0
 25 26  1  0  0  0  0
 25 28  1  0  0  0  0
 26 27  1  0  0  0  0
 28 29  1  0  0  0  0
 29 30  1  0  0  0  0
M  END
>  <Name_Molregno>
FLUPENTHIXOL-Alpha

>  <5-HT1A>
5.1

>  <5-HT2A>
7.06

>  <DOPAMINE D1>
8.44

>  <DOPAMINE D2>
8.74

>  <DOPAMINE D3>
8.15

>  <DOPAMINE D4>
7.23

>  <DOPAMINE D5>
8.1

>  <HISTAMINE H1>
8.65

$$$$
FLUPERLAPINE
  Marvin  02231216192D 0   1.00000     0.00000     0

 23 26  0  0  0  0  0  0  0  0999 V2000
   -0.5622   -2.2603    0.0000 F   0  0  0  0  0  0  0  0  0
    0.2262   -2.5035    0.0000 C   0  0  0  0  0  0  0  0  0
    0.8309   -1.9424    0.0000 C   0  0  0  0  0  0  0  0  0
    1.6193   -2.1855    0.0000 C   0  0  0  0  0  0  0  0  0
    2.1337   -1.5405    0.0000 N   0  0  0  0  0  0  0  0  0
    2.9587   -1.5405    0.0000 C   0  0  0  0  0  0  0  0  0
    3.3166   -0.7972    0.0000 N   0  0  0  0  0  0  0  0  0
    2.8519   -0.1156    0.0000 C   0  0  0  0  0  0  0  0  0
    3.2098    0.6277    0.0000 C   0  0  0  0  0  0  0  0  0
    4.0325    0.6894    0.0000 N   0  0  0  0  0  0  0  0  0
    4.4973    0.0077    0.0000 C   0  0  0  0  0  0  0  0  0
    4.1393   -0.7356    0.0000 C   0  0  0  0  0  0  0  0  0
    4.3905    1.4327    0.0000 C   0  0  0  0  0  0  0  0  0
    3.4730   -2.1855    0.0000 C   0  0  0  0  0  0  0  0  0
    3.2895   -2.9898    0.0000 C   0  0  0  0  0  0  0  0  0
    2.5462   -3.3478    0.0000 C   0  0  0  0  0  0  0  0  0
    1.8029   -2.9898    0.0000 C   0  0  0  0  0  0  0  0  0
    1.1981   -3.5510    0.0000 C   0  0  0  0  0  0  0  0  0
    0.4098   -3.3078    0.0000 C   0  0  0  0  0  0  0  0  0
    3.8942   -3.5510    0.0000 C   0  0  0  0  0  0  0  0  0
    4.6826   -3.3078    0.0000 C   0  0  0  0  0  0  0  0  0
    4.8662   -2.5035    0.0000 C   0  0  0  0  0  0  0  0  0
    4.2614   -1.9424    0.0000 C   0  0  0  0  0  0  0  0  0
  1  2  1  0  0  0  0
  2  3  4  0  0  0  0
  2 19  4  0  0  0  0
  3  4  4  0  0  0  0
  4  5  1  0  0  0  0
  4 17  4  0  0  0  0
  5  6  2  0  0  0  0
  6  7  1  0  0  0  0
  6 14  1  0  0  0  0
  7  8  1  0  0  0  0
  7 12  1  0  0  0  0
  8  9  1  0  0  0  0
  9 10  1  0  0  0  0
 10 11  1  0  0  0  0
 10 13  1  0  0  0  0
 11 12  1  0  0  0  0
 14 15  4  0  0  0  0
 14 23  4  0  0  0  0
 15 16  1  0  0  0  0
 15 20  4  0  0  0  0
 16 17  1  0  0  0  0
 17 18  4  0  0  0  0
 18 19  4  0  0  0  0
 20 21  4  0  0  0  0
 21 22  4  0  0  0  0
 22 23  4  0  0  0  0
M  END
>  <Name_Molregno>
FLUPERLAPINE

>  <5-HT6>
7.54

>  <DOPAMINE D1>
7.12

>  <DOPAMINE D4>
7.68

>  <Muscarinic acetylcholine receptor M1>
8.06

>  <Muscarinic acetylcholine receptor M2>
7.15

>  <Muscarinic acetylcholine receptor M3>
7.39

>  <Muscarinic acetylcholine receptor M4>
7.85

>  <Muscarinic acetylcholine receptor M5>
7.77

$$$$
FLUPHENAZINE
  Marvin  02231216192D 0   1.00000     0.00000     0

 38 41  0  0  0  0  0  0  0  0999 V2000
   -7.1492   -1.5262    0.0000 S   0  0  0  0  0  0  0  0  0
   -7.1492   -2.3512    0.0000 C   0  0  0  0  0  0  0  0  0
   -6.4348   -2.7637    0.0000 C   0  0  0  0  0  0  0  0  0
   -5.7203   -2.3512    0.0000 N   0  0  0  0  0  0  0  0  0
   -5.7203   -1.5262    0.0000 C   0  0  0  0  0  0  0  0  0
   -6.4348   -1.1137    0.0000 C   0  0  0  0  0  0  0  0  0
   -6.4348   -0.2887    0.0000 C   0  0  0  0  0  0  0  0  0
   -5.7203    0.1238    0.0000 C   0  0  0  0  0  0  0  0  0
   -5.0058   -0.2887    0.0000 C   0  0  0  0  0  0  0  0  0
   -5.0058   -1.1137    0.0000 C   0  0  0  0  0  0  0  0  0
   -5.0058   -2.7637    0.0000 C   0  0  0  0  0  0  0  0  0
   -4.2914   -2.3512    0.0000 C   0  0  0  0  0  0  0  0  0
   -3.5769   -2.7637    0.0000 C   0  0  0  0  0  0  0  0  0
   -2.8624   -2.3512    0.0000 N   0  0  0  0  0  0  0  0  0
   -2.8624   -1.5262    0.0000 C   0  0  0  0  0  0  0  0  0
   -2.1479   -1.1137    0.0000 C   0  0  0  0  0  0  0  0  0
   -1.4335   -1.5262    0.0000 N   0  0  0  0  0  0  0  0  0
   -1.4335   -2.3512    0.0000 C   0  0  0  0  0  0  0  0  0
   -2.1479   -2.7637    0.0000 C   0  0  0  0  0  0  0  0  0
   -0.7190   -1.1137    0.0000 C   0  0  0  0  0  0  0  0  0
   -0.0045   -1.5262    0.0000 C   0  0  0  0  0  0  0  0  0
    0.7099   -1.1137    0.0000 O   0  0  0  0  0  0  0  0  0
    1.4244   -1.5262    0.0000 C   0  0  0  0  0  0  0  0  0
    1.4244   -2.3512    0.0000 O   0  0  0  0  0  0  0  0  0
    2.1389   -1.1137    0.0000 C   0  0  0  0  0  0  0  0  0
    2.8534   -1.5262    0.0000 C   0  0  0  0  0  0  0  0  0
    3.5678   -1.1137    0.0000 C   0  0  0  0  0  0  0  0  0
    4.2823   -1.5262    0.0000 C   0  0  0  0  0  0  0  0  0
    4.9968   -1.1137    0.0000 C   0  0  0  0  0  0  0  0  0
    5.7112   -1.5262    0.0000 C   0  0  0  0  0  0  0  0  0
   -6.4348   -3.5887    0.0000 C   0  0  0  0  0  0  0  0  0
   -7.1492   -4.0012    0.0000 C   0  0  0  0  0  0  0  0  0
   -7.8637   -3.5887    0.0000 C   0  0  0  0  0  0  0  0  0
   -7.8637   -2.7637    0.0000 C   0  0  0  0  0  0  0  0  0
   -7.1492   -4.8262    0.0000 C   0  0  0  0  0  0  0  0  0
   -7.1492   -5.6512    0.0000 F   0  0  0  0  0  0  0  0  0
   -7.9742   -4.8262    0.0000 F   0  0  0  0  0  0  0  0  0
   -6.3242   -4.8262    0.0000 F   0  0  0  0  0  0  0  0  0
  1  2  1  0  0  0  0
  1  6  1  0  0  0  0
  2  3  4  0  0  0  0
  2 34  4  0  0  0  0
  3  4  1  0  0  0  0
  3 31  4  0  0  0  0
  4  5  1  0  0  0  0
  4 11  1  0  0  0  0
  5  6  4  0  0  0  0
  5 10  4  0  0  0  0
  6  7  4  0  0  0  0
  7  8  4  0  0  0  0
  8  9  4  0  0  0  0
  9 10  4  0  0  0  0
 11 12  1  0  0  0  0
 12 13  1  0  0  0  0
 13 14  1  0  0  0  0
 14 15  1  0  0  0  0
 14 19  1  0  0  0  0
 15 16  1  0  0  0  0
 16 17  1  0  0  0  0
 17 18  1  0  0  0  0
 17 20  1  0  0  0  0
 18 19  1  0  0  0  0
 20 21  1  0  0  0  0
 21 22  1  0  0  0  0
 22 23  1  0  0  0  0
 23 24  2  0  0  0  0
 23 25  1  0  0  0  0
 25 26  1  0  0  0  0
 26 27  1  0  0  0  0
 27 28  1  0  0  0  0
 28 29  1  0  0  0  0
 29 30  1  0  0  0  0
 31 32  4  0  0  0  0
 32 33  4  0  0  0  0
 32 35  1  0  0  0  0
 33 34  4  0  0  0  0
 35 36  1  0  0  0  0
 35 37  1  0  0  0  0
 35 38  1  0  0  0  0
M  END
>  <Name_Molregno>
FLUPHENAZINE

>  <5-HT1A>
6.41

>  <5-HT1B>
6.48

>  <5-HT1D>
6.48

>  <5-HT1E>
6.27

>  <5-HT2A>
7.87

>  <5-HT2C>
6.05

>  <5-HT3>
5

>  <5-HT5>
6.84

>  <5-HT6>
7.46

>  <5-HT7>
8.1

>  <Alpha-1A>
8.19

>  <Alpha-1B>
7.89

>  <Alpha-2A>
6.5

>  <Alpha-2B>
7.09

>  <Alpha-2C>
7.54

>  <Beta-1>
5

>  <Beta-2>
5

>  <DOPAMINE D1>
7.55

>  <DOPAMINE D2>
9.22

>  <DOPAMINE D3>
9.33

>  <DOPAMINE D4>
7.52

>  <DOPAMINE D5>
7.82

>  <Dopamine transporter>
5

>  <HISTAMINE H1>
7.72

>  <HISTAMINE H2>
6.25

>  <HISTAMINE H3>
6

>  <HISTAMINE H4>
5

>  <Muscarinic acetylcholine receptor M1>
5.96

>  <Muscarinic acetylcholine receptor M2>
5.14

>  <Muscarinic acetylcholine receptor M3>
5.84

>  <Muscarinic acetylcholine receptor M4>
5.27

>  <Muscarinic acetylcholine receptor M5>
6.45

>  <Norepinephrine transporter>
5.51

>  <Serotonin transporter>
5.23

$$$$
FLUPHENAZINE-2
  Marvin  02231216192D 0   1.00000     0.00000     0

 30 33  0  0  0  0  0  0  0  0999 V2000
    2.0347   -4.2531    0.0000 S   0  0  0  0  0  0  0  0  0
    2.7492   -3.8406    0.0000 C   0  0  0  0  0  0  0  0  0
    2.7492   -3.0156    0.0000 C   0  0  0  0  0  0  0  0  0
    2.0347   -2.6031    0.0000 N   0  0  0  0  0  0  0  0  0
    1.3203   -3.0156    0.0000 C   0  0  0  0  0  0  0  0  0
    1.3203   -3.8406    0.0000 C   0  0  0  0  0  0  0  0  0
    0.6058   -4.2531    0.0000 C   0  0  0  0  0  0  0  0  0
   -0.1087   -3.8406    0.0000 C   0  0  0  0  0  0  0  0  0
   -0.1087   -3.0156    0.0000 C   0  0  0  0  0  0  0  0  0
    0.6058   -2.6031    0.0000 C   0  0  0  0  0  0  0  0  0
    2.0347   -1.7781    0.0000 C   0  0  0  0  0  0  0  0  0
    1.3203   -1.3656    0.0000 C   0  0  0  0  0  0  0  0  0
    1.3203   -0.5406    0.0000 C   0  0  0  0  0  0  0  0  0
    0.6058   -0.1281    0.0000 N   0  0  0  0  0  0  0  0  0
   -0.1087   -0.5406    0.0000 C   0  0  0  0  0  0  0  0  0
   -0.8231   -0.1281    0.0000 C   0  0  0  0  0  0  0  0  0
   -0.8231    0.6969    0.0000 N   0  0  0  0  0  0  0  0  0
   -0.1087    1.1094    0.0000 C   0  0  0  0  0  0  0  0  0
    0.6058    0.6969    0.0000 C   0  0  0  0  0  0  0  0  0
   -1.5376    1.1094    0.0000 C   0  0  0  0  0  0  0  0  0
   -1.5376    1.9344    0.0000 C   0  0  0  0  0  0  0  0  0
   -2.2521    2.3469    0.0000 O   0  0  0  0  0  0  0  0  0
    3.4637   -2.6031    0.0000 C   0  0  0  0  0  0  0  0  0
    4.1782   -3.0156    0.0000 C   0  0  0  0  0  0  0  0  0
    4.1782   -3.8406    0.0000 C   0  0  0  0  0  0  0  0  0
    3.4637   -4.2531    0.0000 C   0  0  0  0  0  0  0  0  0
    4.8926   -2.6031    0.0000 C   0  0  0  0  0  0  0  0  0
    5.6071   -2.1906    0.0000 F   0  0  0  0  0  0  0  0  0
    5.3051   -3.3176    0.0000 F   0  0  0  0  0  0  0  0  0
    4.4801   -1.8887    0.0000 F   0  0  0  0  0  0  0  0  0
  1  2  1  0  0  0  0
  1  6  1  0  0  0  0
  2  3  4  0  0  0  0
  2 26  4  0  0  0  0
  3  4  1  0  0  0  0
  3 23  4  0  0  0  0
  4  5  1  0  0  0  0
  4 11  1  0  0  0  0
  5  6  4  0  0  0  0
  5 10  4  0  0  0  0
  6  7  4  0  0  0  0
  7  8  4  0  0  0  0
  8  9  4  0  0  0  0
  9 10  4  0  0  0  0
 11 12  1  0  0  0  0
 12 13  1  0  0  0  0
 13 14  1  0  0  0  0
 14 15  1  0  0  0  0
 14 19  1  0  0  0  0
 15 16  1  0  0  0  0
 16 17  1  0  0  0  0
 17 18  1  0  0  0  0
 17 20  1  0  0  0  0
 18 19  1  0  0  0  0
 20 21  1  0  0  0  0
 21 22  1  0  0  0  0
 23 24  4  0  0  0  0
 24 25  4  0  0  0  0
 24 27  1  0  0  0  0
 25 26  4  0  0  0  0
 27 28  1  0  0  0  0
 27 29  1  0  0  0  0
 27 30  1  0  0  0  0
M  END
>  <Name_Molregno>
FLUPHENAZINE-2

>  <5-HT6>
7.3

>  <DOPAMINE D1>
6.75

>  <DOPAMINE D2>
8.84

>  <DOPAMINE D3>
8.49

>  <DOPAMINE D5>
7.68

>  <HISTAMINE H1>
7.4

>  <HISTAMINE H3>
6

$$$$
GBR-12909
  Marvin  02231216192D 0   1.00000     0.00000     0

 33 36  0  0  0  0  0  0  0  0999 V2000
    1.8465    2.7773    0.0000 F   0  0  0  0  0  0  0  0  0
    1.8465    1.9523    0.0000 C   0  0  0  0  0  0  0  0  0
    2.5610    1.5398    0.0000 C   0  0  0  0  0  0  0  0  0
    2.5610    0.7148    0.0000 C   0  0  0  0  0  0  0  0  0
    1.8465    0.3023    0.0000 C   0  0  0  0  0  0  0  0  0
    1.1320    0.7148    0.0000 C   0  0  0  0  0  0  0  0  0
    1.1320    1.5398    0.0000 C   0  0  0  0  0  0  0  0  0
    1.8465   -0.5227    0.0000 C   0  0  0  0  0  0  0  0  0
    2.5610   -0.9352    0.0000 O   0  0  0  0  0  0  0  0  0
    2.5610   -1.7602    0.0000 C   0  0  0  0  0  0  0  0  0
    3.2755   -2.1727    0.0000 C   0  0  0  0  0  0  0  0  0
    3.2755   -2.9977    0.0000 N   0  0  0  0  0  0  0  0  0
    3.9899   -3.4102    0.0000 C   0  0  0  0  0  0  0  0  0
    3.9899   -4.2352    0.0000 C   0  0  0  0  0  0  0  0  0
    3.2755   -4.6477    0.0000 N   0  0  0  0  0  0  0  0  0
    2.5610   -4.2352    0.0000 C   0  0  0  0  0  0  0  0  0
    2.5610   -3.4102    0.0000 C   0  0  0  0  0  0  0  0  0
    3.2755   -5.4727    0.0000 C   0  0  0  0  0  0  0  0  0
    2.5610   -5.8852    0.0000 C   0  0  0  0  0  0  0  0  0
    2.5610   -6.7102    0.0000 C   0  0  0  0  0  0  0  0  0
    3.2755   -7.1227    0.0000 C   0  0  0  0  0  0  0  0  0
    3.9899   -6.7102    0.0000 C   0  0  0  0  0  0  0  0  0
    4.7044   -7.1227    0.0000 C   0  0  0  0  0  0  0  0  0
    4.7044   -7.9477    0.0000 C   0  0  0  0  0  0  0  0  0
    3.9899   -8.3602    0.0000 C   0  0  0  0  0  0  0  0  0
    3.2755   -7.9477    0.0000 C   0  0  0  0  0  0  0  0  0
    1.1320   -0.9352    0.0000 C   0  0  0  0  0  0  0  0  0
    1.1320   -1.7602    0.0000 C   0  0  0  0  0  0  0  0  0
    0.4176   -2.1727    0.0000 C   0  0  0  0  0  0  0  0  0
   -0.2969   -1.7602    0.0000 C   0  0  0  0  0  0  0  0  0
   -1.0114   -2.1727    0.0000 F   0  0  0  0  0  0  0  0  0
   -0.2969   -0.9352    0.0000 C   0  0  0  0  0  0  0  0  0
    0.4176   -0.5227    0.0000 C   0  0  0  0  0  0  0  0  0
  1  2  1  0  0  0  0
  2  3  4  0  0  0  0
  2  7  4  0  0  0  0
  3  4  4  0  0  0  0
  4  5  4  0  0  0  0
  5  6  4  0  0  0  0
  5  8  1  0  0  0  0
  6  7  4  0  0  0  0
  8  9  1  0  0  0  0
  8 27  1  0  0  0  0
  9 10  1  0  0  0  0
 10 11  1  0  0  0  0
 11 12  1  0  0  0  0
 12 13  1  0  0  0  0
 12 17  1  0  0  0  0
 13 14  1  0  0  0  0
 14 15  1  0  0  0  0
 15 16  1  0  0  0  0
 15 18  1  0  0  0  0
 16 17  1  0  0  0  0
 18 19  1  0  0  0  0
 19 20  1  0  0  0  0
 20 21  1  0  0  0  0
 21 22  4  0  0  0  0
 21 26  4  0  0  0  0
 22 23  4  0  0  0  0
 23 24  4  0  0  0  0
 24 25  4  0  0  0  0
 25 26  4  0  0  0  0
 27 28  4  0  0  0  0
 27 33  4  0  0  0  0
 28 29  4  0  0  0  0
 29 30  4  0  0  0  0
 30 31  1  0  0  0  0
 30 32  4  0  0  0  0
 32 33  4  0  0  0  0
M  END
>  <Name_Molregno>
GBR-12909

>  <5-HT1A>
5.33

>  <DOPAMINE D1>
5

>  <DOPAMINE D2>
6.13

>  <DOPAMINE D3>
6.96

>  <Dopamine transporter>
8.16

>  <HISTAMINE H1>
8.03

$$$$
HALOPERIDOL
  Marvin  02231216192D 0   1.00000     0.00000     0

 26 28  0  0  0  0  0  0  0  0999 V2000
    1.7138    2.6466    0.0000 Cl  0  0  0  0  0  0  0  0  0
    1.9960    1.8714    0.0000 C   0  0  0  0  0  0  0  0  0
    2.8084    1.7281    0.0000 C   0  0  0  0  0  0  0  0  0
    3.0906    0.9529    0.0000 C   0  0  0  0  0  0  0  0  0
    2.5603    0.3209    0.0000 C   0  0  0  0  0  0  0  0  0
    1.7478    0.4642    0.0000 C   0  0  0  0  0  0  0  0  0
    1.4657    1.2394    0.0000 C   0  0  0  0  0  0  0  0  0
    2.8425   -0.4543    0.0000 C   0  0  0  0  0  0  0  0  0
    2.0300   -0.5976    0.0000 O   0  0  0  0  0  0  0  0  0
    3.5569   -0.0418    0.0000 C   0  0  0  0  0  0  0  0  0
    4.2714   -0.4543    0.0000 C   0  0  0  0  0  0  0  0  0
    4.2714   -1.2793    0.0000 N   0  0  0  0  0  0  0  0  0
    3.5569   -1.6918    0.0000 C   0  0  0  0  0  0  0  0  0
    2.8425   -1.2793    0.0000 C   0  0  0  0  0  0  0  0  0
    4.9859   -1.6918    0.0000 C   0  0  0  0  0  0  0  0  0
    5.7003   -1.2793    0.0000 C   0  0  0  0  0  0  0  0  0
    6.4148   -1.6918    0.0000 C   0  0  0  0  0  0  0  0  0
    7.1293   -1.2793    0.0000 C   0  0  0  0  0  0  0  0  0
    7.1293   -0.4543    0.0000 O   0  0  0  0  0  0  0  0  0
    7.8438   -1.6918    0.0000 C   0  0  0  0  0  0  0  0  0
    8.5582   -1.2793    0.0000 C   0  0  0  0  0  0  0  0  0
    9.2727   -1.6918    0.0000 C   0  0  0  0  0  0  0  0  0
    9.2727   -2.5168    0.0000 C   0  0  0  0  0  0  0  0  0
    9.9872   -2.9293    0.0000 F   0  0  0  0  0  0  0  0  0
    8.5582   -2.9293    0.0000 C   0  0  0  0  0  0  0  0  0
    7.8438   -2.5168    0.0000 C   0  0  0  0  0  0  0  0  0
  1  2  1  0  0  0  0
  2  3  4  0  0  0  0
  2  7  4  0  0  0  0
  3  4  4  0  0  0  0
  4  5  4  0  0  0  0
  5  6  4  0  0  0  0
  5  8  1  0  0  0  0
  6  7  4  0  0  0  0
  8  9  1  0  0  0  0
  8 10  1  0  0  0  0
  8 14  1  0  0  0  0
 10 11  1  0  0  0  0
 11 12  1  0  0  0  0
 12 13  1  0  0  0  0
 12 15  1  0  0  0  0
 13 14  1  0  0  0  0
 15 16  1  0  0  0  0
 16 17  1  0  0  0  0
 17 18  1  0  0  0  0
 18 19  2  0  0  0  0
 18 20  1  0  0  0  0
 20 21  4  0  0  0  0
 20 26  4  0  0  0  0
 21 22  4  0  0  0  0
 22 23  4  0  0  0  0
 23 24  1  0  0  0  0
 23 25  4  0  0  0  0
 25 26  4  0  0  0  0
M  END
>  <Name_Molregno>
HALOPERIDOL

>  <5-HT1A>
5.67

>  <5-HT1B>
6.63

>  <5-HT1D>
5.56

>  <5-HT1E>
5.15

>  <5-HT2A>
7.01

>  <5-HT2C>
5.24

>  <5-HT3>
5

>  <5-HT5>
5.65

>  <5-HT6>
5.28

>  <5-HT7>
6.32

>  <Alpha-1A>
7.92

>  <Alpha-1B>
8.1

>  <Alpha-2A>
6.04

>  <Alpha-2B>
6.32

>  <Alpha-2C>
6.34

>  <Beta-1>
5

>  <Beta-2>
5.15

>  <DOPAMINE D1>
7.22

>  <DOPAMINE D2>
8.75

>  <DOPAMINE D3>
8.33

>  <DOPAMINE D4>
8.29

>  <DOPAMINE D5>
7.03

>  <Dopamine transporter>
5

>  <HISTAMINE H1>
6.04

>  <HISTAMINE H2>
6

>  <HISTAMINE H4>
5

>  <Muscarinic acetylcholine receptor M1>
5.4

>  <Muscarinic acetylcholine receptor M2>
5

>  <Muscarinic acetylcholine receptor M3>
5

>  <Muscarinic acetylcholine receptor M4>
5

>  <Muscarinic acetylcholine receptor M5>
5.59

>  <Norepinephrine transporter>
5.68

>  <Serotonin transporter>
5.74

$$$$
Hyperforin
  Marvin  02231216192D 0   1.00000     0.00000     0

 39 40  0  0  1  0  0  0  0  0999 V2000
   -0.0475    3.0141    0.0000 O   0  0  0  0  0  0  0  0  0
    0.7326    2.5988    0.0000 C   0  0  0  0  0  0  0  0  0
    1.6516    2.5995    0.0000 C   0  0  0  0  0  0  0  0  0
    1.7130    1.6464    0.0000 C   0  0  0  0  0  0  0  0  0
    1.3009    1.0655    0.0000 C   0  0  0  0  0  0  0  0  0
    0.9271    0.2926    0.0000 C   0  0  0  0  0  0  0  0  0
    0.6406   -0.4973    0.0000 C   0  0  0  0  0  0  0  0  0
   -0.1718   -0.6414    0.0000 C   0  0  0  0  0  0  0  0  0
   -0.7027   -0.0100    0.0000 C   0  0  0  0  0  0  0  0  0
   -0.4531   -1.4170    0.0000 C   0  0  0  0  0  0  0  0  0
    2.1172    1.2450    0.0000 C   0  0  0  0  0  0  0  0  0
    2.4176    0.4250    0.0000 C   0  0  0  0  0  0  0  0  0
    3.1181   -0.0803    0.0000 C   0  0  0  0  0  0  0  0  0
    3.0346   -0.9010    0.0000 C   0  0  0  0  0  0  0  0  0
    2.2821   -1.2391    0.0000 C   0  0  0  0  0  0  0  0  0
    1.6130   -0.7565    0.0000 C   0  0  0  0  0  0  0  0  0
    2.1987   -2.0599    0.0000 C   0  0  0  0  0  0  0  0  0
    2.9989    1.2958    0.0000 C   0  0  0  0  0  0  0  0  0
    2.0702    2.2319    0.0000 C   0  0  0  0  0  0  0  0  0
    2.8036    2.7016    0.0000 C   0  0  0  0  0  0  0  0  0
    2.8813    3.6702    0.0000 O   0  0  0  0  0  0  0  0  0
    3.6516    2.8271    0.0000 C   0  0  0  0  0  0  0  0  0
    3.9551    3.5942    0.0000 C   0  0  0  0  0  0  0  0  0
    4.1642    2.1806    0.0000 C   0  0  0  0  0  0  0  0  0
    2.0364    2.8705    0.0000 C   0  0  0  0  0  0  0  0  0
    2.9600    3.1637    0.0000 O   0  0  0  0  0  0  0  0  0
    1.1102    2.2212    0.0000 C   0  0  0  0  0  0  0  0  0
    0.8447    3.1353    0.0000 O   0  0  0  0  0  0  0  0  0
    0.6057    1.7969    0.0000 C   0  0  0  0  0  0  0  0  0
   -0.1558    1.3974    0.0000 C   0  0  0  0  0  0  0  0  0
   -0.9549    1.0682    0.0000 C   0  0  0  0  0  0  0  0  0
   -1.6085    1.5717    0.0000 C   0  0  0  0  0  0  0  0  0
   -2.3713    1.2575    0.0000 C   0  0  0  0  0  0  0  0  0
   -1.4992    2.3895    0.0000 C   0  0  0  0  0  0  0  0  0
    1.5780    3.5970    0.0000 C   0  0  0  0  0  0  0  0  0
    1.5386    4.4833    0.0000 C   0  0  0  0  0  0  0  0  0
    0.8065    4.8636    0.0000 C   0  0  0  0  0  0  0  0  0
    0.7698    5.6878    0.0000 C   0  0  0  0  0  0  0  0  0
    0.1111    4.4198    0.0000 C   0  0  0  0  0  0  0  0  0
  1  2  1  0  0  0  0
  2  3  1  0  0  0  0
  2 29  2  0  0  0  0
  3  4  1  0  0  0  0
  3 25  1  0  0  0  0
  3 35  1  0  0  0  0
  4  5  1  0  0  0  0
  5  6  1  0  0  0  0
  5 11  1  0  0  0  0
  6  7  1  0  0  0  0
  7  8  2  0  0  0  0
  8  9  1  0  0  0  0
  8 10  1  0  0  0  0
 11 12  1  0  0  0  0
 11 18  1  0  0  0  0
 11 19  1  0  0  0  0
 12 13  1  0  0  0  0
 13 14  1  0  0  0  0
 14 15  2  0  0  0  0
 15 16  1  0  0  0  0
 15 17  1  0  0  0  0
 19 20  1  0  0  0  0
 19 25  1  0  0  0  0
 19 27  1  0  0  0  0
 20 21  2  0  0  0  0
 20 22  1  0  0  0  0
 22 23  1  0  0  0  0
 22 24  1  0  0  0  0
 25 26  2  0  0  0  0
 27 28  2  0  0  0  0
 27 29  1  0  0  0  0
 29 30  1  0  0  0  0
 30 31  1  0  0  0  0
 31 32  2  0  0  0  0
 32 33  1  0  0  0  0
 32 34  1  0  0  0  0
 35 36  1  0  0  0  0
 36 37  2  0  0  0  0
 37 38  1  0  0  0  0
 37 39  1  0  0  0  0
M  END
>  <Name_Molregno>
Hyperforin

>  <5-HT1A>
5

>  <5-HT1D>
5

>  <5-HT3>
5

>  <5-HT5>
5

>  <5-HT6>
5

>  <5-HT7>
5

>  <Alpha-1A>
5

>  <Alpha-1B>
5

>  <Alpha-2A>
5

>  <Alpha-2B>
5

>  <Alpha-2C>
5

>  <DOPAMINE D1>
6.22

>  <DOPAMINE D5>
5

>  <Muscarinic acetylcholine receptor M1>
5

>  <Muscarinic acetylcholine receptor M2>
5

>  <Muscarinic acetylcholine receptor M3>
5

>  <Muscarinic acetylcholine receptor M4>
5

>  <Muscarinic acetylcholine receptor M5>
5

>  <Norepinephrine transporter>
5

>  <Serotonin transporter>
5

$$$$
Hypericin
  Marvin  02231216192D 0   1.00000     0.00000     0

 39 46  0  0  0  0  0  0  0  0999 V2000
   -0.3746   -3.0738    0.0000 O   0  0  0  0  0  0  0  0  0
    0.1655   -2.4502    0.0000 C   0  0  0  0  0  0  0  0  0
    0.9756   -2.6061    0.0000 C   0  0  0  0  0  0  0  0  0
    1.5157   -1.9824    0.0000 C   0  0  0  0  0  0  0  0  0
    1.2457   -1.2029    0.0000 C   0  0  0  0  0  0  0  0  0
    1.7858   -0.5792    0.0000 C   0  0  0  0  0  0  0  0  0
    2.5959   -0.7352    0.0000 C   0  0  0  0  0  0  0  0  0
    3.1360   -0.1115    0.0000 C   0  0  0  0  0  0  0  0  0
    3.9461   -0.2674    0.0000 C   0  0  0  0  0  0  0  0  0
    4.4862    0.3562    0.0000 O   0  0  0  0  0  0  0  0  0
    4.2162   -1.0470    0.0000 C   0  0  0  0  0  0  0  0  0
    3.6761   -1.6706    0.0000 C   0  0  0  0  0  0  0  0  0
    3.9461   -2.4502    0.0000 C   0  0  0  0  0  0  0  0  0
    3.4060   -3.0738    0.0000 C   0  0  0  0  0  0  0  0  0
    2.5959   -2.9179    0.0000 C   0  0  0  0  0  0  0  0  0
    2.0558   -3.5415    0.0000 C   0  0  0  0  0  0  0  0  0
    1.2457   -3.3856    0.0000 C   0  0  0  0  0  0  0  0  0
    0.7056   -4.0093    0.0000 O   0  0  0  0  0  0  0  0  0
    2.3258   -4.3211    0.0000 C   0  0  0  0  0  0  0  0  0
    1.7858   -4.9447    0.0000 O   0  0  0  0  0  0  0  0  0
    3.1360   -4.4770    0.0000 C   0  0  0  0  0  0  0  0  0
    3.6761   -3.8534    0.0000 C   0  0  0  0  0  0  0  0  0
    4.4862   -4.0093    0.0000 O   0  0  0  0  0  0  0  0  0
    2.3258   -2.1384    0.0000 C   0  0  0  0  0  0  0  0  0
    2.8659   -1.5147    0.0000 C   0  0  0  0  0  0  0  0  0
    4.7562   -2.6061    0.0000 C   0  0  0  0  0  0  0  0  0
    5.0263   -3.3856    0.0000 O   0  0  0  0  0  0  0  0  0
    5.2963   -1.9824    0.0000 C   0  0  0  0  0  0  0  0  0
    5.0263   -1.2029    0.0000 C   0  0  0  0  0  0  0  0  0
    5.5664   -0.5792    0.0000 O   0  0  0  0  0  0  0  0  0
    2.8659    0.6680    0.0000 C   0  0  0  0  0  0  0  0  0
    3.4060    1.2917    0.0000 O   0  0  0  0  0  0  0  0  0
    2.0558    0.8239    0.0000 C   0  0  0  0  0  0  0  0  0
    1.5157    0.2003    0.0000 C   0  0  0  0  0  0  0  0  0
    0.7056    0.3562    0.0000 C   0  0  0  0  0  0  0  0  0
    0.4355   -1.0470    0.0000 C   0  0  0  0  0  0  0  0  0
   -0.1046   -1.6706    0.0000 C   0  0  0  0  0  0  0  0  0
    0.1655   -0.2674    0.0000 C   0  0  0  0  0  0  0  0  0
   -0.6446   -0.1115    0.0000 O   0  0  0  0  0  0  0  0  0
  1  2  1  0  0  0  0
  2  3  4  0  0  0  0
  2 37  4  0  0  0  0
  3  4  4  0  0  0  0
  3 17  1  0  0  0  0
  4  5  4  0  0  0  0
  4 24  4  0  0  0  0
  5  6  4  0  0  0  0
  5 36  4  0  0  0  0
  6  7  4  0  0  0  0
  6 34  4  0  0  0  0
  7  8  4  0  0  0  0
  7 25  4  0  0  0  0
  8  9  1  0  0  0  0
  8 31  4  0  0  0  0
  9 10  2  0  0  0  0
  9 11  1  0  0  0  0
 11 12  4  0  0  0  0
 11 29  4  0  0  0  0
 12 13  4  0  0  0  0
 12 25  4  0  0  0  0
 13 14  4  0  0  0  0
 13 26  4  0  0  0  0
 14 15  4  0  0  0  0
 14 22  4  0  0  0  0
 15 16  4  0  0  0  0
 15 24  4  0  0  0  0
 16 17  1  0  0  0  0
 16 19  4  0  0  0  0
 17 18  2  0  0  0  0
 19 20  1  0  0  0  0
 19 21  4  0  0  0  0
 21 22  4  0  0  0  0
 22 23  1  0  0  0  0
 24 25  4  0  0  0  0
 26 27  1  0  0  0  0
 26 28  4  0  0  0  0
 28 29  4  0  0  0  0
 29 30  1  0  0  0  0
 31 32  1  0  0  0  0
 31 33  4  0  0  0  0
 33 34  4  0  0  0  0
 34 35  1  0  0  0  0
 36 37  4  0  0  0  0
 36 38  1  0  0  0  0
 38 39  1  0  0  0  0
M  END
>  <Name_Molregno>
Hypericin

>  <5-HT1A>
5

>  <5-HT1D>
5

>  <5-HT3>
5

>  <5-HT5>
5

>  <5-HT6>
5

>  <5-HT7>
5

>  <Alpha-1A>
5

>  <Alpha-1B>
5

>  <Alpha-2A>
5

>  <Alpha-2B>
5

>  <Alpha-2C>
5

>  <DOPAMINE D1>
5

>  <DOPAMINE D5>
5

>  <Muscarinic acetylcholine receptor M1>
5

>  <Muscarinic acetylcholine receptor M2>
5

>  <Muscarinic acetylcholine receptor M3>
5

>  <Muscarinic acetylcholine receptor M4>
5

>  <Muscarinic acetylcholine receptor M5>
5

>  <Norepinephrine transporter>
5

>  <Serotonin transporter>
5

$$$$
Hyperoside
  Marvin  02231216192D 0   1.00000     0.00000     0

 33 36  0  0  1  0  0  0  0  0999 V2000
    1.3731    1.4076    0.0000 O   0  0  0  0  0  0  0  0  0
    1.3731    2.2326    0.0000 C   0  0  0  0  0  0  0  0  0
    2.0876    2.6451    0.0000 C   0  0  0  0  0  0  0  0  0
    2.0876    3.4701    0.0000 O   0  0  0  0  0  0  0  0  0
    0.6587    2.6451    0.0000 C   0  0  0  0  0  0  0  0  0
    0.6587    3.4701    0.0000 O   0  0  0  0  0  0  0  0  0
   -0.0558    2.2326    0.0000 C   0  0  0  0  0  0  0  0  0
   -0.7703    2.6451    0.0000 O   0  0  0  0  0  0  0  0  0
   -0.0558    1.4076    0.0000 C   0  0  0  0  0  0  0  0  0
   -0.7703    0.9951    0.0000 O   0  0  0  0  0  0  0  0  0
    0.6587    0.9951    0.0000 C   0  0  0  0  0  0  0  0  0
    0.6587    0.1701    0.0000 O   0  0  0  0  0  0  0  0  0
    1.3731   -0.2424    0.0000 C   0  0  0  0  0  0  0  0  0
    1.3731   -1.0674    0.0000 C   0  0  0  0  0  0  0  0  0
    2.0876   -1.4799    0.0000 O   0  0  0  0  0  0  0  0  0
    2.8021   -1.0674    0.0000 C   0  0  0  0  0  0  0  0  0
    2.8021   -0.2424    0.0000 C   0  0  0  0  0  0  0  0  0
    2.0876    0.1701    0.0000 C   0  0  0  0  0  0  0  0  0
    2.0876    0.9951    0.0000 O   0  0  0  0  0  0  0  0  0
    3.5166    0.1701    0.0000 C   0  0  0  0  0  0  0  0  0
    3.5166    0.9951    0.0000 O   0  0  0  0  0  0  0  0  0
    4.2310   -0.2424    0.0000 C   0  0  0  0  0  0  0  0  0
    4.2310   -1.0674    0.0000 C   0  0  0  0  0  0  0  0  0
    4.9455   -1.4799    0.0000 O   0  0  0  0  0  0  0  0  0
    3.5166   -1.4799    0.0000 C   0  0  0  0  0  0  0  0  0
    0.6587   -1.4799    0.0000 C   0  0  0  0  0  0  0  0  0
    0.6587   -2.3049    0.0000 C   0  0  0  0  0  0  0  0  0
   -0.0558   -2.7174    0.0000 C   0  0  0  0  0  0  0  0  0
   -0.0558   -3.5424    0.0000 O   0  0  0  0  0  0  0  0  0
   -0.7703   -2.3049    0.0000 C   0  0  0  0  0  0  0  0  0
   -1.4847   -2.7174    0.0000 O   0  0  0  0  0  0  0  0  0
   -0.7703   -1.4799    0.0000 C   0  0  0  0  0  0  0  0  0
   -0.0558   -1.0674    0.0000 C   0  0  0  0  0  0  0  0  0
  1  2  1  0  0  0  0
  1 11  1  0  0  0  0
  2  3  1  0  0  0  0
  2  5  1  0  0  0  0
  3  4  1  0  0  0  0
  5  6  1  0  0  0  0
  5  7  1  0  0  0  0
  7  8  1  0  0  0  0
  7  9  1  0  0  0  0
  9 10  1  0  0  0  0
  9 11  1  0  0  0  0
 11 12  1  0  0  0  0
 12 13  1  0  0  0  0
 13 14  2  0  0  0  0
 13 18  1  0  0  0  0
 14 15  1  0  0  0  0
 14 26  1  0  0  0  0
 15 16  1  0  0  0  0
 16 17  1  0  0  0  0
 16 25  2  0  0  0  0
 17 18  2  0  0  0  0
 17 20  1  0  0  0  0
 18 19  1  0  0  0  0
 20 21  1  0  0  0  0
 20 22  2  0  0  0  0
 22 23  1  0  0  0  0
 23 24  2  0  0  0  0
 23 25  1  0  0  0  0
 26 27  4  0  0  0  0
 26 33  4  0  0  0  0
 27 28  4  0  0  0  0
 28 29  1  0  0  0  0
 28 30  4  0  0  0  0
 30 31  1  0  0  0  0
 30 32  4  0  0  0  0
 32 33  4  0  0  0  0
M  END
>  <Name_Molregno>
Hyperoside

>  <5-HT1A>
5

>  <5-HT1D>
5

>  <5-HT3>
5

>  <5-HT5>
5

>  <5-HT6>
5

>  <5-HT7>
5

>  <Alpha-1A>
5

>  <Alpha-1B>
5

>  <Alpha-2A>
5.38

>  <Alpha-2B>
5

>  <Alpha-2C>
5.13

>  <DOPAMINE D1>
5

>  <DOPAMINE D5>
5

>  <Muscarinic acetylcholine receptor M1>
5

>  <Muscarinic acetylcholine receptor M2>
5

>  <Muscarinic acetylcholine receptor M3>
5

>  <Muscarinic acetylcholine receptor M4>
5

>  <Muscarinic acetylcholine receptor M5>
5

>  <Norepinephrine transporter>
5

>  <Serotonin transporter>
5

$$$$
IBOGAINE
  Marvin  02231216192D 0   1.00000     0.00000     0

 23 27  0  0  1  0  0  0  0  0999 V2000
   -0.4813    1.8136    0.0000 O   0  0  0  0  0  0  0  0  0
    0.3318    1.6738    0.0000 C   0  0  0  0  0  0  0  0  0
   -1.0089    1.1794    0.0000 C   0  0  0  0  0  0  0  0  0
   -1.8219    1.3192    0.0000 C   0  0  0  0  0  0  0  0  0
   -2.3496    0.6850    0.0000 C   0  0  0  0  0  0  0  0  0
   -3.1739    0.6527    0.0000 C   0  0  0  0  0  0  0  0  0
   -3.6353    1.3824    0.0000 C   0  0  0  0  0  0  0  0  0
   -4.4995    1.5535    0.0000 C   0  0  0  0  0  0  0  0  0
   -5.1964    0.9486    0.0000 N   0  0  0  0  0  0  0  0  0
   -4.9426   -0.0968    0.0000 C   0  0  0  0  0  0  0  0  0
   -4.1968   -0.3722    0.0000 C   0  0  0  0  0  0  0  0  0
   -3.9907    0.4313    0.0000 C   0  0  0  0  0  0  0  0  0
   -4.8392    1.1104    0.0000 C   0  0  0  0  0  0  0  0  0
   -5.7717    0.5668    0.0000 C   0  0  0  0  0  0  0  0  0
   -5.6778   -0.2642    0.0000 C   0  0  0  0  0  0  0  0  0
   -6.1553   -0.9370    0.0000 C   0  0  0  0  0  0  0  0  0
   -5.8114   -1.6869    0.0000 C   0  0  0  0  0  0  0  0  0
   -4.2386    1.0063    0.0000 C   0  0  0  0  0  0  0  0  0
   -3.3980   -0.1412    0.0000 C   0  0  0  0  0  0  0  0  0
   -2.7121   -0.5997    0.0000 N   0  0  0  0  0  0  0  0  0
   -2.0641   -0.0890    0.0000 C   0  0  0  0  0  0  0  0  0
   -1.2511   -0.2289    0.0000 C   0  0  0  0  0  0  0  0  0
   -0.7235    0.4054    0.0000 C   0  0  0  0  0  0  0  0  0
  1  2  1  0  0  0  0
  1  3  1  0  0  0  0
  3  4  4  0  0  0  0
  3 23  4  0  0  0  0
  4  5  4  0  0  0  0
  5  6  4  0  0  0  0
  5 21  4  0  0  0  0
  6  7  1  0  0  0  0
  6 19  4  0  0  0  0
  7  8  1  0  0  0  0
  8  9  1  0  0  0  0
  9 10  1  0  0  0  0
  9 18  1  0  0  0  0
 10 11  1  0  0  0  0
 10 15  1  0  0  0  0
 11 12  1  0  0  0  0
 11 19  1  0  0  0  0
 12 13  1  0  0  0  0
 13 14  1  0  0  0  0
 13 18  1  0  0  0  0
 14 15  1  0  0  0  0
 15 16  1  0  0  0  0
 16 17  1  0  0  0  0
 19 20  4  0  0  0  0
 20 21  4  0  0  0  0
 21 22  4  0  0  0  0
 22 23  4  0  0  0  0
M  STY  1   1 DAT
M  SAL   1  1  20
M  SDT   1 MRV_IMPLICIT_H                                        
M  SDD   1     0.0000    0.0000    DR    ALL  0       0  
M  SED   1 IMPL_H1
M  END
>  <Name_Molregno>
IBOGAINE

>  <5-HT1A>
5

>  <DOPAMINE D1>
5

>  <DOPAMINE D2>
5

$$$$
ibuprofen
  Marvin  02231216192D 0   1.00000     0.00000     0

 15 15  0  0  1  0  0  0  0  0999 V2000
    3.0591   -3.4943    0.0000 O   0  0  0  0  0  0  0  0  0
    3.0591   -2.6693    0.0000 C   0  0  0  0  0  0  0  0  0
    3.7735   -2.2568    0.0000 O   0  0  0  0  0  0  0  0  0
    2.3446   -2.2568    0.0000 C   0  0  0  0  0  0  0  0  0
    1.6301   -2.6693    0.0000 C   0  0  0  0  0  0  0  0  0
    2.3446   -1.4318    0.0000 C   0  0  0  0  0  0  0  0  0
    1.6301   -1.0193    0.0000 C   0  0  0  0  0  0  0  0  0
    1.6301   -0.1943    0.0000 C   0  0  0  0  0  0  0  0  0
    2.3446    0.2182    0.0000 C   0  0  0  0  0  0  0  0  0
    3.0591   -0.1943    0.0000 C   0  0  0  0  0  0  0  0  0
    3.0591   -1.0193    0.0000 C   0  0  0  0  0  0  0  0  0
    2.3446    1.0432    0.0000 C   0  0  0  0  0  0  0  0  0
    3.0591    1.4557    0.0000 C   0  0  0  0  0  0  0  0  0
    3.0591    2.2807    0.0000 C   0  0  0  0  0  0  0  0  0
    3.7735    1.0432    0.0000 C   0  0  0  0  0  0  0  0  0
  1  2  1  0  0  0  0
  2  3  2  0  0  0  0
  2  4  1  0  0  0  0
  4  5  1  0  0  0  0
  4  6  1  0  0  0  0
  6  7  4  0  0  0  0
  6 11  4  0  0  0  0
  7  8  4  0  0  0  0
  8  9  4  0  0  0  0
  9 10  4  0  0  0  0
  9 12  1  0  0  0  0
 10 11  4  0  0  0  0
 12 13  1  0  0  0  0
 13 14  1  0  0  0  0
 13 15  1  0  0  0  0
M  END
>  <Name_Molregno>
ibuprofen

>  <5-HT1A>
5

>  <5-HT1B>
5

>  <5-HT1D>
5

>  <5-HT1E>
5

>  <5-HT2A>
5

>  <5-HT3>
5

>  <5-HT6>
5

>  <5-HT7>
5

>  <Alpha-1A>
5

>  <Alpha-1B>
5

>  <Alpha-2A>
5

>  <Alpha-2B>
5

>  <Alpha-2C>
5

>  <DOPAMINE D1>
5

>  <DOPAMINE D2>
5

>  <DOPAMINE D4>
5

>  <DOPAMINE D5>
5

>  <Dopamine transporter>
5

>  <HISTAMINE H1>
5

>  <HISTAMINE H2>
5

>  <Muscarinic acetylcholine receptor M2>
5

>  <Muscarinic acetylcholine receptor M5>
5

>  <Norepinephrine transporter>
5

>  <Serotonin transporter>
5

$$$$
ICS205-930
  Marvin  02231216192D 0   1.00000     0.00000     0

 21 24  0  0  1  0  0  0  0  0999 V2000
   -0.3691   -0.4673    0.0000 O   0  0  0  0  0  0  0  0  0
   -0.1141    0.3173    0.0000 C   0  0  0  0  0  0  0  0  0
    0.6928    0.4889    0.0000 O   0  0  0  0  0  0  0  0  0
   -0.6662    0.9304    0.0000 C   0  0  0  0  0  0  0  0  0
   -0.4946    1.7374    0.0000 C   0  0  0  0  0  0  0  0  0
   -1.2091    2.1499    0.0000 C   0  0  0  0  0  0  0  0  0
   -1.8222    1.5979    0.0000 N   0  0  0  0  0  0  0  0  0
   -1.4866    0.8442    0.0000 C   0  0  0  0  0  0  0  0  0
   -1.2091    2.9749    0.0000 C   0  0  0  0  0  0  0  0  0
   -0.4946    3.3874    0.0000 C   0  0  0  0  0  0  0  0  0
    0.2198    2.9749    0.0000 C   0  0  0  0  0  0  0  0  0
    0.2198    2.1499    0.0000 C   0  0  0  0  0  0  0  0  0
    0.1830   -1.0804    0.0000 C   0  0  0  0  0  0  0  0  0
    0.4889   -1.8509    0.0000 C   0  0  0  0  0  0  0  0  0
    1.3939   -1.6417    0.0000 C   0  0  0  0  0  0  0  0  0
    2.0341   -1.9548    0.0000 N   0  0  0  0  0  0  0  0  0
    1.7276   -1.1888    0.0000 C   0  0  0  0  0  0  0  0  0
    0.7773   -1.3918    0.0000 C   0  0  0  0  0  0  0  0  0
    2.0872   -0.3836    0.0000 C   0  0  0  0  0  0  0  0  0
    1.5594   -0.8818    0.0000 C   0  0  0  0  0  0  0  0  0
    2.5953   -2.5594    0.0000 C   0  0  0  0  0  0  0  0  0
  1  2  1  0  0  0  0
  1 13  1  0  0  0  0
  2  3  2  0  0  0  0
  2  4  1  0  0  0  0
  4  5  4  0  0  0  0
  4  8  4  0  0  0  0
  5  6  4  0  0  0  0
  5 12  4  0  0  0  0
  6  7  4  0  0  0  0
  6  9  4  0  0  0  0
  7  8  4  0  0  0  0
  9 10  4  0  0  0  0
 10 11  4  0  0  0  0
 11 12  4  0  0  0  0
 13 14  1  0  0  0  0
 13 18  1  0  0  0  0
 14 15  1  0  0  0  0
 15 16  1  0  0  0  0
 15 20  1  0  0  0  0
 16 17  1  0  0  0  0
 16 21  1  0  0  0  0
 17 18  1  0  0  0  0
 17 19  1  0  0  0  0
 19 20  1  0  0  0  0
M  STY  1   1 DAT
M  SAL   1  1   7
M  SDT   1 MRV_IMPLICIT_H                                        
M  SDD   1     0.0000    0.0000    DR    ALL  0       0  
M  SED   1 IMPL_H1
M  END
>  <Name_Molregno>
ICS205-930

>  <5-HT1A>
6.64

>  <5-HT1B>
5

>  <5-HT1D>
5

>  <5-HT1E>
5

>  <5-HT3>
8.2

>  <DOPAMINE D1>
5

>  <DOPAMINE D2>
5

$$$$
IDAZOXAN
  Marvin  02231216192D 0   1.00000     0.00000     0

 15 17  0  0  1  0  0  0  0  0999 V2000
    0.2447    0.0307    0.0000 O   0  0  0  0  0  0  0  0  0
    0.9592    0.4432    0.0000 C   0  0  0  0  0  0  0  0  0
    0.9592    1.2682    0.0000 C   0  0  0  0  0  0  0  0  0
    0.2447    1.6807    0.0000 O   0  0  0  0  0  0  0  0  0
   -0.4697    1.2682    0.0000 C   0  0  0  0  0  0  0  0  0
   -0.4697    0.4432    0.0000 C   0  0  0  0  0  0  0  0  0
   -1.1842    0.0307    0.0000 C   0  0  0  0  0  0  0  0  0
   -1.2704   -0.7898    0.0000 N   0  0  0  0  0  0  0  0  0
   -2.0774   -0.9613    0.0000 C   0  0  0  0  0  0  0  0  0
   -2.4899   -0.2468    0.0000 C   0  0  0  0  0  0  0  0  0
   -1.9379    0.3663    0.0000 N   0  0  0  0  0  0  0  0  0
    1.6737    1.6807    0.0000 C   0  0  0  0  0  0  0  0  0
    2.3881    1.2682    0.0000 C   0  0  0  0  0  0  0  0  0
    2.3881    0.4432    0.0000 C   0  0  0  0  0  0  0  0  0
    1.6737    0.0307    0.0000 C   0  0  0  0  0  0  0  0  0
  1  2  1  0  0  0  0
  1  6  1  0  0  0  0
  2  3  4  0  0  0  0
  2 15  4  0  0  0  0
  3  4  1  0  0  0  0
  3 12  4  0  0  0  0
  4  5  1  0  0  0  0
  5  6  1  0  0  0  0
  6  7  1  0  0  0  0
  7  8  1  0  0  0  0
  7 11  2  0  0  0  0
  8  9  1  0  0  0  0
  9 10  1  0  0  0  0
 10 11  1  0  0  0  0
 12 13  4  0  0  0  0
 13 14  4  0  0  0  0
 14 15  4  0  0  0  0
M  END
>  <Name_Molregno>
IDAZOXAN

>  <5-HT1A>
6.18

>  <5-HT3>
5

>  <Alpha-2A>
8.09

>  <Alpha-2B>
7.36

>  <Alpha-2C>
7.72

>  <DOPAMINE D1>
5

>  <DOPAMINE D2>
5

$$$$
ILOPERIDONE
  Marvin  02231216192D 0   1.00000     0.00000     0

 31 34  0  0  0  0  0  0  0  0999 V2000
    9.8408   -5.0338    0.0000 F   0  0  0  0  0  0  0  0  0
    9.1263   -4.6213    0.0000 C   0  0  0  0  0  0  0  0  0
    8.4119   -5.0338    0.0000 C   0  0  0  0  0  0  0  0  0
    7.6974   -4.6213    0.0000 C   0  0  0  0  0  0  0  0  0
    6.9128   -4.8762    0.0000 O   0  0  0  0  0  0  0  0  0
    6.4279   -4.2088    0.0000 N   0  0  0  0  0  0  0  0  0
    6.9128   -3.5413    0.0000 C   0  0  0  0  0  0  0  0  0
    7.6974   -3.7963    0.0000 C   0  0  0  0  0  0  0  0  0
    8.4119   -3.3838    0.0000 C   0  0  0  0  0  0  0  0  0
    9.1263   -3.7963    0.0000 C   0  0  0  0  0  0  0  0  0
    6.6578   -2.7567    0.0000 C   0  0  0  0  0  0  0  0  0
    5.8509   -2.5852    0.0000 C   0  0  0  0  0  0  0  0  0
    5.5959   -1.8006    0.0000 C   0  0  0  0  0  0  0  0  0
    6.1480   -1.1875    0.0000 N   0  0  0  0  0  0  0  0  0
    6.9549   -1.3590    0.0000 C   0  0  0  0  0  0  0  0  0
    7.2099   -2.1436    0.0000 C   0  0  0  0  0  0  0  0  0
    5.8930   -0.4028    0.0000 C   0  0  0  0  0  0  0  0  0
    5.0861   -0.2313    0.0000 C   0  0  0  0  0  0  0  0  0
    4.8311    0.5533    0.0000 C   0  0  0  0  0  0  0  0  0
    4.0241    0.7248    0.0000 O   0  0  0  0  0  0  0  0  0
    3.7692    1.5095    0.0000 C   0  0  0  0  0  0  0  0  0
    2.9622    1.6810    0.0000 C   0  0  0  0  0  0  0  0  0
    2.7073    2.4656    0.0000 C   0  0  0  0  0  0  0  0  0
    3.2593    3.0787    0.0000 C   0  0  0  0  0  0  0  0  0
    4.0663    2.9072    0.0000 C   0  0  0  0  0  0  0  0  0
    4.3212    2.1225    0.0000 C   0  0  0  0  0  0  0  0  0
    5.1282    1.9510    0.0000 O   0  0  0  0  0  0  0  0  0
    5.6802    2.5641    0.0000 C   0  0  0  0  0  0  0  0  0
    3.0044    3.8633    0.0000 C   0  0  0  0  0  0  0  0  0
    2.1974    4.0348    0.0000 O   0  0  0  0  0  0  0  0  0
    3.5564    4.4764    0.0000 C   0  0  0  0  0  0  0  0  0
  1  2  1  0  0  0  0
  2  3  4  0  0  0  0
  2 10  4  0  0  0  0
  3  4  4  0  0  0  0
  4  5  4  0  0  0  0
  4  8  4  0  0  0  0
  5  6  4  0  0  0  0
  6  7  4  0  0  0  0
  7  8  4  0  0  0  0
  7 11  1  0  0  0  0
  8  9  4  0  0  0  0
  9 10  4  0  0  0  0
 11 12  1  0  0  0  0
 11 16  1  0  0  0  0
 12 13  1  0  0  0  0
 13 14  1  0  0  0  0
 14 15  1  0  0  0  0
 14 17  1  0  0  0  0
 15 16  1  0  0  0  0
 17 18  1  0  0  0  0
 18 19  1  0  0  0  0
 19 20  1  0  0  0  0
 20 21  1  0  0  0  0
 21 22  4  0  0  0  0
 21 26  4  0  0  0  0
 22 23  4  0  0  0  0
 23 24  4  0  0  0  0
 24 25  4  0  0  0  0
 24 29  1  0  0  0  0
 25 26  4  0  0  0  0
 26 27  1  0  0  0  0
 27 28  1  0  0  0  0
 29 30  2  0  0  0  0
 29 31  1  0  0  0  0
M  END
>  <Name_Molregno>
ILOPERIDONE

>  <5-HT1A>
7.18

>  <5-HT1B>
7.05

>  <5-HT1D>
7.82

>  <5-HT2A>
9.46

>  <5-HT2C>
7.27

>  <5-HT3>
5

>  <5-HT6>
7.2

>  <5-HT7>
6.95

>  <Alpha-2A>
6.79

>  <Alpha-2B>
6.79

>  <Alpha-2C>
7.79

>  <Beta-1>
5

>  <Beta-2>
5

>  <DOPAMINE D1>
7.02

>  <DOPAMINE D2>
8.23

>  <DOPAMINE D3>
8

>  <DOPAMINE D4>
7.96

>  <DOPAMINE D5>
6.5

>  <Dopamine transporter>
5.53

>  <HISTAMINE H1>
7.91

>  <Muscarinic acetylcholine receptor M1>
5.31

>  <Muscarinic acetylcholine receptor M2>
5.48

>  <Muscarinic acetylcholine receptor M3>
5

>  <Muscarinic acetylcholine receptor M4>
5.08

>  <Muscarinic acetylcholine receptor M5>
5

>  <Norepinephrine transporter>
5.83

$$$$
IMIPRAMINE
  Marvin  02231216192D 0   1.00000     0.00000     0

 21 23  0  0  0  0  0  0  0  0999 V2000
   -0.5243    1.2470    0.0000 N   0  0  0  0  0  0  0  0  0
    0.1902    0.8345    0.0000 C   0  0  0  0  0  0  0  0  0
    0.9046    1.2470    0.0000 C   0  0  0  0  0  0  0  0  0
    1.6191    0.8345    0.0000 C   0  0  0  0  0  0  0  0  0
    2.3336    1.2470    0.0000 N   0  0  0  0  0  0  0  0  0
    2.2719    2.0697    0.0000 C   0  0  0  0  0  0  0  0  0
    2.8767    2.6309    0.0000 C   0  0  0  0  0  0  0  0  0
    3.6925    2.5079    0.0000 C   0  0  0  0  0  0  0  0  0
    4.1050    1.7934    0.0000 C   0  0  0  0  0  0  0  0  0
    3.8036    1.0255    0.0000 C   0  0  0  0  0  0  0  0  0
    3.0152    0.7823    0.0000 C   0  0  0  0  0  0  0  0  0
    2.8316   -0.0220    0.0000 C   0  0  0  0  0  0  0  0  0
    3.4364   -0.5832    0.0000 C   0  0  0  0  0  0  0  0  0
    4.2248   -0.3400    0.0000 C   0  0  0  0  0  0  0  0  0
    4.4083    0.4643    0.0000 C   0  0  0  0  0  0  0  0  0
    2.6931    3.4352    0.0000 C   0  0  0  0  0  0  0  0  0
    1.9048    3.6784    0.0000 C   0  0  0  0  0  0  0  0  0
    1.3000    3.1172    0.0000 C   0  0  0  0  0  0  0  0  0
    1.4836    2.3129    0.0000 C   0  0  0  0  0  0  0  0  0
   -1.2388    0.8345    0.0000 C   0  0  0  0  0  0  0  0  0
   -0.5243    2.0720    0.0000 C   0  0  0  0  0  0  0  0  0
  1  2  1  0  0  0  0
  1 20  1  0  0  0  0
  1 21  1  0  0  0  0
  2  3  1  0  0  0  0
  3  4  1  0  0  0  0
  4  5  1  0  0  0  0
  5  6  1  0  0  0  0
  5 11  1  0  0  0  0
  6  7  4  0  0  0  0
  6 19  4  0  0  0  0
  7  8  1  0  0  0  0
  7 16  4  0  0  0  0
  8  9  1  0  0  0  0
  9 10  1  0  0  0  0
 10 11  4  0  0  0  0
 10 15  4  0  0  0  0
 11 12  4  0  0  0  0
 12 13  4  0  0  0  0
 13 14  4  0  0  0  0
 14 15  4  0  0  0  0
 16 17  4  0  0  0  0
 17 18  4  0  0  0  0
 18 19  4  0  0  0  0
M  END
>  <Name_Molregno>
IMIPRAMINE

>  <5-HT1A>
5.12

>  <DOPAMINE D1>
5

>  <DOPAMINE D2>
6.17

>  <DOPAMINE D3>
6.41

>  <Dopamine transporter>
5.04

>  <HISTAMINE H1>
7.62

>  <Muscarinic acetylcholine receptor M1>
7.38

>  <Muscarinic acetylcholine receptor M2>
8.48

>  <Muscarinic acetylcholine receptor M3>
7.22

>  <Muscarinic acetylcholine receptor M4>
6.95

>  <Muscarinic acetylcholine receptor M5>
7.08

>  <Norepinephrine transporter>
7.18

>  <Serotonin transporter>
8.6

$$$$
KETANSERIN
  Marvin  02231216192D 0   1.00000     0.00000     0

 29 32  0  0  0  0  0  0  0  0999 V2000
    2.3505   -3.5857    0.0000 F   0  0  0  0  0  0  0  0  0
    2.3505   -2.7607    0.0000 C   0  0  0  0  0  0  0  0  0
    1.6360   -2.3482    0.0000 C   0  0  0  0  0  0  0  0  0
    1.6360   -1.5232    0.0000 C   0  0  0  0  0  0  0  0  0
    2.3505   -1.1107    0.0000 C   0  0  0  0  0  0  0  0  0
    3.0649   -1.5232    0.0000 C   0  0  0  0  0  0  0  0  0
    3.0649   -2.3482    0.0000 C   0  0  0  0  0  0  0  0  0
    2.3505   -0.2857    0.0000 C   0  0  0  0  0  0  0  0  0
    1.6360    0.1268    0.0000 O   0  0  0  0  0  0  0  0  0
    3.0649    0.1268    0.0000 C   0  0  0  0  0  0  0  0  0
    3.0649    0.9518    0.0000 C   0  0  0  0  0  0  0  0  0
    3.7794    1.3643    0.0000 C   0  0  0  0  0  0  0  0  0
    4.4939    0.9518    0.0000 N   0  0  0  0  0  0  0  0  0
    4.4939    0.1268    0.0000 C   0  0  0  0  0  0  0  0  0
    3.7794   -0.2857    0.0000 C   0  0  0  0  0  0  0  0  0
    5.2083    1.3643    0.0000 C   0  0  0  0  0  0  0  0  0
    5.9228    0.9518    0.0000 C   0  0  0  0  0  0  0  0  0
    6.6373    1.3643    0.0000 N   0  0  0  0  0  0  0  0  0
    7.3518    0.9518    0.0000 C   0  0  0  0  0  0  0  0  0
    7.3518    0.1268    0.0000 O   0  0  0  0  0  0  0  0  0
    8.0662    1.3643    0.0000 C   0  0  0  0  0  0  0  0  0
    8.0662    2.1893    0.0000 C   0  0  0  0  0  0  0  0  0
    7.3518    2.6018    0.0000 N   0  0  0  0  0  0  0  0  0
    6.6373    2.1893    0.0000 C   0  0  0  0  0  0  0  0  0
    5.9228    2.6018    0.0000 O   0  0  0  0  0  0  0  0  0
    8.7807    2.6018    0.0000 C   0  0  0  0  0  0  0  0  0
    9.4952    2.1893    0.0000 C   0  0  0  0  0  0  0  0  0
    9.4952    1.3643    0.0000 C   0  0  0  0  0  0  0  0  0
    8.7807    0.9518    0.0000 C   0  0  0  0  0  0  0  0  0
  1  2  1  0  0  0  0
  2  3  4  0  0  0  0
  2  7  4  0  0  0  0
  3  4  4  0  0  0  0
  4  5  4  0  0  0  0
  5  6  4  0  0  0  0
  5  8  1  0  0  0  0
  6  7  4  0  0  0  0
  8  9  2  0  0  0  0
  8 10  1  0  0  0  0
 10 11  1  0  0  0  0
 10 15  1  0  0  0  0
 11 12  1  0  0  0  0
 12 13  1  0  0  0  0
 13 14  1  0  0  0  0
 13 16  1  0  0  0  0
 14 15  1  0  0  0  0
 16 17  1  0  0  0  0
 17 18  1  0  0  0  0
 18 19  1  0  0  0  0
 18 24  1  0  0  0  0
 19 20  2  0  0  0  0
 19 21  1  0  0  0  0
 21 22  4  0  0  0  0
 21 29  4  0  0  0  0
 22 23  1  0  0  0  0
 22 26  4  0  0  0  0
 23 24  1  0  0  0  0
 24 25  2  0  0  0  0
 26 27  4  0  0  0  0
 27 28  4  0  0  0  0
 28 29  4  0  0  0  0
M  END
>  <Name_Molregno>
KETANSERIN

>  <5-HT1A>
5.28

>  <5-HT1B>
5.48

>  <5-HT1D>
5.65

>  <5-HT1E>
5

>  <5-HT2A>
8.67

>  <5-HT2C>
7.08

>  <5-HT5>
4.7

>  <5-HT6>
5.55

>  <5-HT7>
6.1

>  <Alpha-2B>
6.7

>  <DOPAMINE D1>
6.52

>  <DOPAMINE D2>
5

>  <DOPAMINE D5>
5.6

>  <Dopamine transporter>
5

>  <HISTAMINE H1>
8.75

$$$$
Ketorolac
  Marvin  02231216192D 0   1.00000     0.00000     0

 19 21  0  0  1  0  0  0  0  0999 V2000
    1.4450    2.2138    0.0000 O   0  0  0  0  0  0  0  0  0
    2.2520    2.0422    0.0000 C   0  0  0  0  0  0  0  0  0
    2.8040    2.6553    0.0000 O   0  0  0  0  0  0  0  0  0
    2.5069    1.2576    0.0000 C   0  0  0  0  0  0  0  0  0
    2.0220    0.5902    0.0000 C   0  0  0  0  0  0  0  0  0
    2.5069   -0.0773    0.0000 C   0  0  0  0  0  0  0  0  0
    3.2915    0.1777    0.0000 N   0  0  0  0  0  0  0  0  0
    3.2915    1.0027    0.0000 C   0  0  0  0  0  0  0  0  0
    4.0761    1.2576    0.0000 C   0  0  0  0  0  0  0  0  0
    4.5611    0.5902    0.0000 C   0  0  0  0  0  0  0  0  0
    4.0761   -0.0773    0.0000 C   0  0  0  0  0  0  0  0  0
    4.3311   -0.8619    0.0000 C   0  0  0  0  0  0  0  0  0
    5.1381   -1.0334    0.0000 O   0  0  0  0  0  0  0  0  0
    3.7791   -1.4750    0.0000 C   0  0  0  0  0  0  0  0  0
    4.0340   -2.2596    0.0000 C   0  0  0  0  0  0  0  0  0
    3.4820   -2.8727    0.0000 C   0  0  0  0  0  0  0  0  0
    2.6750   -2.7012    0.0000 C   0  0  0  0  0  0  0  0  0
    2.4201   -1.9166    0.0000 C   0  0  0  0  0  0  0  0  0
    2.9721   -1.3035    0.0000 C   0  0  0  0  0  0  0  0  0
  1  2  1  0  0  0  0
  2  3  2  0  0  0  0
  2  4  1  0  0  0  0
  4  5  1  0  0  0  0
  4  8  1  0  0  0  0
  5  6  1  0  0  0  0
  6  7  1  0  0  0  0
  7  8  4  0  0  0  0
  7 11  4  0  0  0  0
  8  9  4  0  0  0  0
  9 10  4  0  0  0  0
 10 11  4  0  0  0  0
 11 12  1  0  0  0  0
 12 13  2  0  0  0  0
 12 14  1  0  0  0  0
 14 15  4  0  0  0  0
 14 19  4  0  0  0  0
 15 16  4  0  0  0  0
 16 17  4  0  0  0  0
 17 18  4  0  0  0  0
 18 19  4  0  0  0  0
M  END
>  <Name_Molregno>
Ketorolac

>  <5-HT1A>
5

>  <5-HT1B>
5

>  <5-HT1D>
5

>  <5-HT1E>
5

>  <5-HT2A>
5

>  <5-HT3>
5

>  <5-HT5>
5

>  <5-HT6>
5

>  <5-HT7>
5

>  <Alpha-1A>
5

>  <Alpha-1B>
5

>  <Alpha-2A>
5

>  <Alpha-2B>
5

>  <Alpha-2C>
5

>  <DOPAMINE D1>
5

>  <DOPAMINE D2>
5

>  <DOPAMINE D4>
5

>  <DOPAMINE D5>
5

>  <Dopamine transporter>
5

>  <HISTAMINE H1>
5

>  <HISTAMINE H2>
5

>  <Muscarinic acetylcholine receptor M2>
5

>  <Muscarinic acetylcholine receptor M5>
5

>  <Norepinephrine transporter>
5

>  <Serotonin transporter>
5

$$$$
L-cysteic-acid
  Marvin  02231216192D 0   1.00000     0.00000     0

 10  9  0  0  1  0  0  0  0  0999 V2000
   -1.9749    0.1579    0.0000 S   0  0  0  0  0  0  0  0  0
   -2.6894    0.5704    0.0000 O   0  0  0  0  0  0  0  0  0
   -2.3874   -0.5565    0.0000 O   0  0  0  0  0  0  0  0  0
   -1.5624    0.8724    0.0000 O   0  0  0  0  0  0  0  0  0
   -1.2605   -0.2546    0.0000 C   0  0  0  0  0  0  0  0  0
   -0.5460    0.1579    0.0000 C   0  0  0  0  0  0  0  0  0
   -0.5460    0.9829    0.0000 N   0  0  0  0  0  0  0  0  0
    0.1685   -0.2546    0.0000 C   0  0  0  0  0  0  0  0  0
    0.8829    0.1579    0.0000 O   0  0  0  0  0  0  0  0  0
    0.1685   -1.0796    0.0000 O   0  0  0  0  0  0  0  0  0
  1  2  2  0  0  0  0
  1  3  2  0  0  0  0
  1  4  1  0  0  0  0
  1  5  1  0  0  0  0
  5  6  1  0  0  0  0
  6  7  1  0  0  0  0
  6  8  1  0  0  0  0
  8  9  1  0  0  0  0
  8 10  2  0  0  0  0
M  END
>  <Name_Molregno>
L-cysteic-acid

>  <5-HT1A>
5

>  <5-HT1B>
5

>  <5-HT1D>
5

>  <5-HT3>
5

>  <5-HT5>
5

>  <5-HT6>
5

>  <5-HT7>
5

>  <Alpha-1A>
5

>  <Alpha-1B>
5

>  <Alpha-2A>
5

>  <Alpha-2C>
5

>  <DOPAMINE D1>
5

>  <DOPAMINE D2>
5

>  <DOPAMINE D3>
5

>  <DOPAMINE D5>
5

>  <Dopamine transporter>
5

>  <HISTAMINE H1>
5

>  <HISTAMINE H2>
5

>  <HISTAMINE H4>
5

>  <Muscarinic acetylcholine receptor M1>
5

>  <Muscarinic acetylcholine receptor M2>
5

>  <Muscarinic acetylcholine receptor M3>
5

>  <Muscarinic acetylcholine receptor M4>
5

>  <Muscarinic acetylcholine receptor M5>
5

>  <Norepinephrine transporter>
5

>  <Serotonin transporter>
5

$$$$
L-cysteine
  Marvin  02231216192D 0   1.00000     0.00000     0

  7  6  0  0  1  0  0  0  0  0999 V2000
    1.5580    2.1190    0.0000 S   0  0  0  0  0  0  0  0  0
    1.1455    1.4045    0.0000 C   0  0  0  0  0  0  0  0  0
    1.5580    0.6901    0.0000 C   0  0  0  0  0  0  0  0  0
    2.3830    0.6901    0.0000 N   0  0  0  0  0  0  0  0  0
    1.1455   -0.0244    0.0000 C   0  0  0  0  0  0  0  0  0
    1.5580   -0.7389    0.0000 O   0  0  0  0  0  0  0  0  0
    0.3205   -0.0244    0.0000 O   0  0  0  0  0  0  0  0  0
  1  2  1  0  0  0  0
  2  3  1  0  0  0  0
  3  4  1  0  0  0  0
  3  5  1  0  0  0  0
  5  6  1  0  0  0  0
  5  7  2  0  0  0  0
M  END
>  <Name_Molregno>
L-cysteine

>  <5-HT1A>
5

>  <5-HT1B>
5

>  <5-HT1D>
5

>  <5-HT3>
5

>  <5-HT5>
5

>  <5-HT6>
5

>  <5-HT7>
5

>  <Alpha-1A>
5

>  <Alpha-1B>
5

>  <Alpha-2A>
5

>  <Alpha-2B>
5

>  <Alpha-2C>
5

>  <DOPAMINE D1>
5

>  <DOPAMINE D2>
5

>  <DOPAMINE D3>
5

>  <DOPAMINE D5>
5

>  <Dopamine transporter>
5

>  <HISTAMINE H1>
5

>  <HISTAMINE H2>
5

>  <HISTAMINE H4>
5

>  <Muscarinic acetylcholine receptor M1>
5

>  <Muscarinic acetylcholine receptor M2>
5

>  <Muscarinic acetylcholine receptor M3>
5

>  <Muscarinic acetylcholine receptor M4>
5

>  <Muscarinic acetylcholine receptor M5>
5

>  <Norepinephrine transporter>
5

>  <Serotonin transporter>
5

$$$$
L-cysteine-sulfinic-acid
  Marvin  02231216192D 0   1.00000     0.00000     0

  9  8  0  0  1  0  0  0  0  0999 V2000
   -2.0945    0.5537    0.0000 S   0  0  0  0  0  0  0  0  0
   -2.8090    0.1412    0.0000 O   0  0  0  0  0  0  0  0  0
   -2.0945    1.3787    0.0000 O   0  0  0  0  0  0  0  0  0
   -1.3800    0.1412    0.0000 C   0  0  0  0  0  0  0  0  0
   -0.6656    0.5537    0.0000 C   0  0  0  0  0  0  0  0  0
   -0.6656    1.3787    0.0000 N   0  0  0  0  0  0  0  0  0
    0.0489    0.1412    0.0000 C   0  0  0  0  0  0  0  0  0
    0.7634    0.5537    0.0000 O   0  0  0  0  0  0  0  0  0
    0.0489   -0.6838    0.0000 O   0  0  0  0  0  0  0  0  0
  1  2  2  0  0  0  0
  1  3  1  0  0  0  0
  1  4  1  0  0  0  0
  4  5  1  0  0  0  0
  5  6  1  0  0  0  0
  5  7  1  0  0  0  0
  7  8  1  0  0  0  0
  7  9  2  0  0  0  0
M  END
>  <Name_Molregno>
L-cysteine-sulfinic-acid

>  <5-HT1A>
5

>  <5-HT1B>
5

>  <5-HT1D>
5

>  <5-HT3>
5

>  <5-HT5>
5

>  <5-HT6>
5

>  <5-HT7>
5

>  <Alpha-1A>
5

>  <Alpha-1B>
5

>  <Alpha-2A>
5

>  <Alpha-2B>
5

>  <Alpha-2C>
5

>  <DOPAMINE D1>
5

>  <DOPAMINE D2>
5

>  <DOPAMINE D3>
5

>  <DOPAMINE D5>
5

>  <Dopamine transporter>
5

>  <HISTAMINE H1>
5

>  <HISTAMINE H2>
5

>  <HISTAMINE H4>
5

>  <Muscarinic acetylcholine receptor M1>
5

>  <Muscarinic acetylcholine receptor M2>
5

>  <Muscarinic acetylcholine receptor M3>
5

>  <Muscarinic acetylcholine receptor M4>
5

>  <Muscarinic acetylcholine receptor M5>
5

>  <Norepinephrine transporter>
5

>  <Serotonin transporter>
5

$$$$
L-DOPA
  Marvin  02231216192D 0   1.00000     0.00000     0

 14 14  0  0  1  0  0  0  0  0999 V2000
    3.2565    2.2588    0.0000 O   0  0  0  0  0  0  0  0  0
    2.5420    1.8463    0.0000 C   0  0  0  0  0  0  0  0  0
    2.5420    1.0213    0.0000 C   0  0  0  0  0  0  0  0  0
    1.8275    0.6088    0.0000 C   0  0  0  0  0  0  0  0  0
    1.1131    1.0213    0.0000 C   0  0  0  0  0  0  0  0  0
    1.1131    1.8463    0.0000 C   0  0  0  0  0  0  0  0  0
    1.8275    2.2588    0.0000 C   0  0  0  0  0  0  0  0  0
    1.8275    3.0838    0.0000 O   0  0  0  0  0  0  0  0  0
    1.8275   -0.2162    0.0000 C   0  0  0  0  0  0  0  0  0
    2.5420   -0.6287    0.0000 C   0  0  0  0  0  0  0  0  0
    3.2565   -0.2162    0.0000 N   0  0  0  0  0  0  0  0  0
    2.5420   -1.4537    0.0000 C   0  0  0  0  0  0  0  0  0
    3.2565   -1.8662    0.0000 O   0  0  0  0  0  0  0  0  0
    1.8275   -1.8662    0.0000 O   0  0  0  0  0  0  0  0  0
  1  2  1  0  0  0  0
  2  3  4  0  0  0  0
  2  7  4  0  0  0  0
  3  4  4  0  0  0  0
  4  5  4  0  0  0  0
  4  9  1  0  0  0  0
  5  6  4  0  0  0  0
  6  7  4  0  0  0  0
  7  8  1  0  0  0  0
  9 10  1  0  0  0  0
 10 11  1  0  0  0  0
 10 12  1  0  0  0  0
 12 13  1  0  0  0  0
 12 14  2  0  0  0  0
M  END
>  <Name_Molregno>
L-DOPA

>  <DOPAMINE D1>
5

>  <DOPAMINE D2>
5

>  <DOPAMINE D4>
5

$$$$
L-homocysteine-thiolactone
  Marvin  02231216192D 0   1.00000     0.00000     0

  7  7  0  0  1  0  0  0  0  0999 V2000
    1.4299   -0.7189    0.0000 S   0  0  0  0  0  0  0  0  0
    1.1749   -1.5035    0.0000 C   0  0  0  0  0  0  0  0  0
    0.3499   -1.5035    0.0000 C   0  0  0  0  0  0  0  0  0
    0.0950   -0.7189    0.0000 C   0  0  0  0  0  0  0  0  0
   -0.6896   -0.4639    0.0000 N   0  0  0  0  0  0  0  0  0
    0.7624   -0.2339    0.0000 C   0  0  0  0  0  0  0  0  0
    0.7624    0.5911    0.0000 O   0  0  0  0  0  0  0  0  0
  1  2  1  0  0  0  0
  1  6  1  0  0  0  0
  2  3  1  0  0  0  0
  3  4  1  0  0  0  0
  4  5  1  0  0  0  0
  4  6  1  0  0  0  0
  6  7  2  0  0  0  0
M  END
>  <Name_Molregno>
L-homocysteine-thiolactone

>  <5-HT1A>
5

>  <5-HT3>
5

>  <5-HT5>
5

>  <5-HT6>
5

>  <5-HT7>
5

>  <Alpha-1A>
5

>  <Alpha-1B>
5

>  <Alpha-2A>
5

>  <Alpha-2B>
5

>  <Alpha-2C>
5

>  <DOPAMINE D1>
5

>  <DOPAMINE D2>
5

>  <DOPAMINE D5>
5

>  <Dopamine transporter>
5

>  <HISTAMINE H1>
5

>  <HISTAMINE H2>
5

>  <HISTAMINE H4>
5

>  <Muscarinic acetylcholine receptor M1>
5

>  <Muscarinic acetylcholine receptor M2>
5

>  <Muscarinic acetylcholine receptor M3>
5

>  <Muscarinic acetylcholine receptor M4>
5

>  <Muscarinic acetylcholine receptor M5>
5

>  <Norepinephrine transporter>
5

>  <Serotonin transporter>
5

$$$$
LOXAPINE
  Marvin  02231216192D 0   1.00000     0.00000     0

 23 26  0  0  0  0  0  0  0  0999 V2000
    3.9671    1.6854    0.0000 Cl  0  0  0  0  0  0  0  0  0
    3.1788    1.4422    0.0000 C   0  0  0  0  0  0  0  0  0
    2.5740    2.0033    0.0000 C   0  0  0  0  0  0  0  0  0
    1.7856    1.7602    0.0000 C   0  0  0  0  0  0  0  0  0
    1.6021    0.9558    0.0000 C   0  0  0  0  0  0  0  0  0
    0.8588    0.5979    0.0000 O   0  0  0  0  0  0  0  0  0
    0.1155    0.9558    0.0000 C   0  0  0  0  0  0  0  0  0
   -0.0681    1.7602    0.0000 C   0  0  0  0  0  0  0  0  0
    0.4463    2.4052    0.0000 N   0  0  0  0  0  0  0  0  0
    1.2713    2.4052    0.0000 C   0  0  0  0  0  0  0  0  0
    1.6292    3.1485    0.0000 N   0  0  0  0  0  0  0  0  0
    1.1645    3.8301    0.0000 C   0  0  0  0  0  0  0  0  0
    1.5224    4.5734    0.0000 C   0  0  0  0  0  0  0  0  0
    2.3451    4.6351    0.0000 N   0  0  0  0  0  0  0  0  0
    2.8099    3.9534    0.0000 C   0  0  0  0  0  0  0  0  0
    2.4519    3.2101    0.0000 C   0  0  0  0  0  0  0  0  0
    2.7031    5.3784    0.0000 C   0  0  0  0  0  0  0  0  0
   -0.8565    2.0033    0.0000 C   0  0  0  0  0  0  0  0  0
   -1.4612    1.4422    0.0000 C   0  0  0  0  0  0  0  0  0
   -1.2776    0.6379    0.0000 C   0  0  0  0  0  0  0  0  0
   -0.4893    0.3947    0.0000 C   0  0  0  0  0  0  0  0  0
    2.2068    0.3947    0.0000 C   0  0  0  0  0  0  0  0  0
    2.9952    0.6379    0.0000 C   0  0  0  0  0  0  0  0  0
  1  2  1  0  0  0  0
  2  3  4  0  0  0  0
  2 23  4  0  0  0  0
  3  4  4  0  0  0  0
  4  5  4  0  0  0  0
  4 10  1  0  0  0  0
  5  6  1  0  0  0  0
  5 22  4  0  0  0  0
  6  7  1  0  0  0  0
  7  8  4  0  0  0  0
  7 21  4  0  0  0  0
  8  9  1  0  0  0  0
  8 18  4  0  0  0  0
  9 10  2  0  0  0  0
 10 11  1  0  0  0  0
 11 12  1  0  0  0  0
 11 16  1  0  0  0  0
 12 13  1  0  0  0  0
 13 14  1  0  0  0  0
 14 15  1  0  0  0  0
 14 17  1  0  0  0  0
 15 16  1  0  0  0  0
 18 19  4  0  0  0  0
 19 20  4  0  0  0  0
 20 21  4  0  0  0  0
 22 23  4  0  0  0  0
M  END
>  <Name_Molregno>
LOXAPINE

>  <5-HT1A>
5.59

>  <5-HT1B>
6.41

>  <5-HT1D>
5.46

>  <5-HT1E>
5.85

>  <5-HT2A>
8.43

>  <5-HT2C>
7.9

>  <5-HT3>
6.72

>  <5-HT5>
6.11

>  <5-HT6>
7.46

>  <5-HT7>
7.06

>  <Alpha-1A>
7.51

>  <Alpha-1B>
7.28

>  <Alpha-2A>
6.82

>  <Alpha-2B>
6.97

>  <Alpha-2C>
7.1

>  <Beta-1>
5

>  <Beta-2>
5

>  <DOPAMINE D1>
7.27

>  <DOPAMINE D2>
7.74

>  <DOPAMINE D3>
7.64

>  <DOPAMINE D4>
8.04

>  <DOPAMINE D5>
7.12

>  <Dopamine transporter>
5

>  <HISTAMINE H1>
8.33

>  <HISTAMINE H2>
6.68

>  <HISTAMINE H4>
5.32

>  <Muscarinic acetylcholine receptor M1>
6.98

>  <Muscarinic acetylcholine receptor M2>
6.38

>  <Muscarinic acetylcholine receptor M3>
6.74

>  <Muscarinic acetylcholine receptor M4>
6.09

>  <Muscarinic acetylcholine receptor M5>
6.83

>  <Norepinephrine transporter>
5.24

>  <Serotonin transporter>
5

$$$$
MAPROTILINE
  Marvin  02231216192D 0   1.00000     0.00000     0

 21 24  0  0  0  0  0  0  0  0999 V2000
    1.1690   -3.5982    0.0000 N   0  0  0  0  0  0  0  0  0
    1.8855   -3.1892    0.0000 C   0  0  0  0  0  0  0  0  0
    1.8895   -2.3643    0.0000 C   0  0  0  0  0  0  0  0  0
    2.6060   -1.9553    0.0000 C   0  0  0  0  0  0  0  0  0
    2.6101   -1.1303    0.0000 C   0  0  0  0  0  0  0  0  0
    2.7498   -0.0917    0.0000 C   0  0  0  0  0  0  0  0  0
    2.5051    0.5142    0.0000 C   0  0  0  0  0  0  0  0  0
    2.4674   -0.3819    0.0000 C   0  0  0  0  0  0  0  0  0
    3.2060   -0.7142    0.0000 C   0  0  0  0  0  0  0  0  0
    3.3678   -1.5232    0.0000 C   0  0  0  0  0  0  0  0  0
    4.1493   -1.7876    0.0000 C   0  0  0  0  0  0  0  0  0
    4.7690   -1.2429    0.0000 C   0  0  0  0  0  0  0  0  0
    4.6072   -0.4340    0.0000 C   0  0  0  0  0  0  0  0  0
    3.8257   -0.1696    0.0000 C   0  0  0  0  0  0  0  0  0
    1.6636   -0.7338    0.0000 C   0  0  0  0  0  0  0  0  0
    1.7795   -1.5506    0.0000 C   0  0  0  0  0  0  0  0  0
    1.1301   -2.0594    0.0000 C   0  0  0  0  0  0  0  0  0
    0.3648   -1.7514    0.0000 C   0  0  0  0  0  0  0  0  0
    0.2488   -0.9346    0.0000 C   0  0  0  0  0  0  0  0  0
    0.8983   -0.4258    0.0000 C   0  0  0  0  0  0  0  0  0
    1.1649   -4.4232    0.0000 C   0  0  0  0  0  0  0  0  0
  1  2  1  0  0  0  0
  1 21  1  0  0  0  0
  2  3  1  0  0  0  0
  3  4  1  0  0  0  0
  4  5  1  0  0  0  0
  5  6  1  0  0  0  0
  5 10  1  0  0  0  0
  5 16  1  0  0  0  0
  6  7  1  0  0  0  0
  7  8  1  0  0  0  0
  8  9  1  0  0  0  0
  8 15  1  0  0  0  0
  9 10  4  0  0  0  0
  9 14  4  0  0  0  0
 10 11  4  0  0  0  0
 11 12  4  0  0  0  0
 12 13  4  0  0  0  0
 13 14  4  0  0  0  0
 15 16  4  0  0  0  0
 15 20  4  0  0  0  0
 16 17  4  0  0  0  0
 17 18  4  0  0  0  0
 18 19  4  0  0  0  0
 19 20  4  0  0  0  0
M  END
>  <Name_Molregno>
MAPROTILINE

>  <DOPAMINE D1>
6.4

>  <DOPAMINE D2>
6.18

>  <DOPAMINE D3>
6.3

>  <DOPAMINE D5>
6.37

>  <Dopamine transporter>
6

>  <HISTAMINE H1>
8.89

>  <HISTAMINE H3>
6

>  <Norepinephrine transporter>
7.95

>  <Serotonin transporter>
5.24

$$$$
MDA
  Marvin  02231216192D 0   1.00000     0.00000     0

 13 14  0  0  1  0  0  0  0  0999 V2000
   -3.4392   -0.1658    0.0000 O   0  0  0  0  0  0  0  0  0
   -2.6546   -0.4208    0.0000 C   0  0  0  0  0  0  0  0  0
   -1.9402   -0.0083    0.0000 C   0  0  0  0  0  0  0  0  0
   -1.2257   -0.4208    0.0000 C   0  0  0  0  0  0  0  0  0
   -1.2257   -1.2458    0.0000 C   0  0  0  0  0  0  0  0  0
   -1.9402   -1.6583    0.0000 C   0  0  0  0  0  0  0  0  0
   -2.6546   -1.2458    0.0000 C   0  0  0  0  0  0  0  0  0
   -3.4392   -1.5007    0.0000 O   0  0  0  0  0  0  0  0  0
   -3.9242   -0.8333    0.0000 C   0  0  0  0  0  0  0  0  0
   -0.5112   -0.0083    0.0000 C   0  0  0  0  0  0  0  0  0
    0.2033   -0.4208    0.0000 C   0  0  0  0  0  0  0  0  0
    0.9177   -0.0083    0.0000 N   0  0  0  0  0  0  0  0  0
    0.2033   -1.2458    0.0000 C   0  0  0  0  0  0  0  0  0
  1  2  1  0  0  0  0
  1  9  1  0  0  0  0
  2  3  4  0  0  0  0
  2  7  4  0  0  0  0
  3  4  4  0  0  0  0
  4  5  4  0  0  0  0
  4 10  1  0  0  0  0
  5  6  4  0  0  0  0
  6  7  4  0  0  0  0
  7  8  1  0  0  0  0
  8  9  1  0  0  0  0
 10 11  1  0  0  0  0
 11 12  1  0  0  0  0
 11 13  1  0  0  0  0
M  END
>  <Name_Molregno>
MDA

>  <5-HT1A>
5

>  <5-HT2A>
5.08

>  <DOPAMINE D1>
5

>  <DOPAMINE D2>
5

>  <Serotonin transporter>
5

$$$$
Meloxicam
  Marvin  02231216192D 0   1.00000     0.00000     0

 23 25  0  0  0  0  0  0  0  0999 V2000
    1.0530    2.3261    0.0000 S   0  0  0  0  0  0  0  0  0
    0.2461    2.4976    0.0000 C   0  0  0  0  0  0  0  0  0
   -0.1664    1.7831    0.0000 C   0  0  0  0  0  0  0  0  0
    0.3856    1.1700    0.0000 N   0  0  0  0  0  0  0  0  0
    1.1393    1.5056    0.0000 C   0  0  0  0  0  0  0  0  0
    1.8537    1.0931    0.0000 N   0  0  0  0  0  0  0  0  0
    1.8537    0.2681    0.0000 C   0  0  0  0  0  0  0  0  0
    1.1393   -0.1444    0.0000 O   0  0  0  0  0  0  0  0  0
    2.5682   -0.1444    0.0000 C   0  0  0  0  0  0  0  0  0
    2.5682   -0.9694    0.0000 N   0  0  0  0  0  0  0  0  0
    3.2827   -1.3819    0.0000 S   0  0  0  0  0  0  0  0  0
    2.7524   -2.0139    0.0000 O   0  0  0  0  0  0  0  0  0
    3.8130   -2.0139    0.0000 O   0  0  0  0  0  0  0  0  0
    3.9972   -0.9694    0.0000 C   0  0  0  0  0  0  0  0  0
    3.9972   -0.1444    0.0000 C   0  0  0  0  0  0  0  0  0
    4.7116    0.2681    0.0000 C   0  0  0  0  0  0  0  0  0
    5.4261   -0.1444    0.0000 C   0  0  0  0  0  0  0  0  0
    5.4261   -0.9694    0.0000 C   0  0  0  0  0  0  0  0  0
    4.7116   -1.3819    0.0000 C   0  0  0  0  0  0  0  0  0
    3.2827    0.2681    0.0000 C   0  0  0  0  0  0  0  0  0
    3.2827    1.0931    0.0000 O   0  0  0  0  0  0  0  0  0
    1.8537   -1.3819    0.0000 C   0  0  0  0  0  0  0  0  0
   -0.0895    3.2513    0.0000 C   0  0  0  0  0  0  0  0  0
  1  2  4  0  0  0  0
  1  5  4  0  0  0  0
  2  3  4  0  0  0  0
  2 23  1  0  0  0  0
  3  4  4  0  0  0  0
  4  5  4  0  0  0  0
  5  6  1  0  0  0  0
  6  7  1  0  0  0  0
  7  8  1  0  0  0  0
  7  9  2  0  0  0  0
  9 10  1  0  0  0  0
  9 20  1  0  0  0  0
 10 11  1  0  0  0  0
 10 22  1  0  0  0  0
 11 12  2  0  0  0  0
 11 13  2  0  0  0  0
 11 14  1  0  0  0  0
 14 15  4  0  0  0  0
 14 19  4  0  0  0  0
 15 16  4  0  0  0  0
 15 20  1  0  0  0  0
 16 17  4  0  0  0  0
 17 18  4  0  0  0  0
 18 19  4  0  0  0  0
 20 21  2  0  0  0  0
M  END
>  <Name_Molregno>
Meloxicam

>  <5-HT1A>
5

>  <5-HT1B>
5

>  <5-HT1D>
5

>  <5-HT1E>
5

>  <5-HT2A>
5

>  <5-HT3>
5

>  <5-HT5>
5

>  <5-HT6>
5

>  <5-HT7>
5

>  <Alpha-1A>
5

>  <Alpha-1B>
5

>  <Alpha-2A>
5

>  <Alpha-2B>
5

>  <Alpha-2C>
5

>  <DOPAMINE D1>
5

>  <DOPAMINE D2>
5

>  <DOPAMINE D4>
5

>  <DOPAMINE D5>
5

>  <Dopamine transporter>
5

>  <HISTAMINE H1>
5

>  <HISTAMINE H2>
5

>  <HISTAMINE H4>
5

>  <Muscarinic acetylcholine receptor M2>
5

>  <Muscarinic acetylcholine receptor M5>
5

>  <Norepinephrine transporter>
5

>  <Serotonin transporter>
5

$$$$
METHAMPHETAMINE
  Marvin  02231216192D 0   1.00000     0.00000     0

 11 11  0  0  1  0  0  0  0  0999 V2000
    1.4662    1.5280    0.0000 N   0  0  0  0  0  0  0  0  0
    1.4662    0.7030    0.0000 C   0  0  0  0  0  0  0  0  0
    2.1807    0.2905    0.0000 C   0  0  0  0  0  0  0  0  0
    2.1807   -0.5345    0.0000 C   0  0  0  0  0  0  0  0  0
    2.8952   -0.9470    0.0000 C   0  0  0  0  0  0  0  0  0
    2.8952   -1.7720    0.0000 C   0  0  0  0  0  0  0  0  0
    2.1807   -2.1845    0.0000 C   0  0  0  0  0  0  0  0  0
    1.4662   -1.7720    0.0000 C   0  0  0  0  0  0  0  0  0
    1.4662   -0.9470    0.0000 C   0  0  0  0  0  0  0  0  0
    0.7518    0.2905    0.0000 C   0  0  0  0  0  0  0  0  0
    0.7518    1.9405    0.0000 C   0  0  0  0  0  0  0  0  0
  1  2  1  0  0  0  0
  1 11  1  0  0  0  0
  2  3  1  0  0  0  0
  2 10  1  0  0  0  0
  3  4  1  0  0  0  0
  4  5  4  0  0  0  0
  4  9  4  0  0  0  0
  5  6  4  0  0  0  0
  6  7  4  0  0  0  0
  7  8  4  0  0  0  0
  8  9  4  0  0  0  0
M  END
>  <Name_Molregno>
METHAMPHETAMINE

>  <5-HT1A>
5

>  <Alpha-2A>
5.38

>  <Alpha-2B>
6.13

>  <Alpha-2C>
6.09

>  <DOPAMINE D1>
5

>  <DOPAMINE D2>
5

>  <Dopamine transporter>
7.61

>  <Norepinephrine transporter>
6.96

>  <Serotonin transporter>
6.13

$$$$
Methcathinone
  Marvin  02231216192D 0   1.00000     0.00000     0

 12 12  0  0  1  0  0  0  0  0999 V2000
    1.9192   -0.0549    0.0000 O   0  0  0  0  0  0  0  0  0
    1.2047   -0.4674    0.0000 C   0  0  0  0  0  0  0  0  0
    0.4903   -0.0549    0.0000 C   0  0  0  0  0  0  0  0  0
    0.4903    0.7701    0.0000 N   0  0  0  0  0  0  0  0  0
   -0.2242    1.1826    0.0000 C   0  0  0  0  0  0  0  0  0
   -0.2242   -0.4674    0.0000 C   0  0  0  0  0  0  0  0  0
    1.2047   -1.2924    0.0000 C   0  0  0  0  0  0  0  0  0
    1.9192   -1.7049    0.0000 C   0  0  0  0  0  0  0  0  0
    1.9192   -2.5299    0.0000 C   0  0  0  0  0  0  0  0  0
    1.2047   -2.9424    0.0000 C   0  0  0  0  0  0  0  0  0
    0.4903   -2.5299    0.0000 C   0  0  0  0  0  0  0  0  0
    0.4903   -1.7049    0.0000 C   0  0  0  0  0  0  0  0  0
  1  2  2  0  0  0  0
  2  3  1  0  0  0  0
  2  7  1  0  0  0  0
  3  4  1  0  0  0  0
  3  6  1  0  0  0  0
  4  5  1  0  0  0  0
  7  8  4  0  0  0  0
  7 12  4  0  0  0  0
  8  9  4  0  0  0  0
  9 10  4  0  0  0  0
 10 11  4  0  0  0  0
 11 12  4  0  0  0  0
M  END
>  <Name_Molregno>
Methcathinone

>  <5-HT1A>
5

>  <5-HT1B>
5

>  <5-HT1D>
5

>  <5-HT1E>
5

>  <5-HT3>
5

>  <5-HT5>
5

>  <5-HT6>
5

>  <5-HT7>
6

>  <Alpha-1A>
5

>  <Alpha-1B>
5

>  <Alpha-2A>
5.04

>  <Alpha-2B>
5.81

>  <Alpha-2C>
6.22

>  <Beta-1>
5

>  <Beta-2>
5

>  <DOPAMINE D1>
5

>  <DOPAMINE D2>
5

>  <DOPAMINE D4>
5

>  <DOPAMINE D5>
5

>  <Dopamine transporter>
6.41

>  <HISTAMINE H1>
5

>  <HISTAMINE H2>
5

>  <HISTAMINE H4>
5

>  <Muscarinic acetylcholine receptor M1>
5

>  <Muscarinic acetylcholine receptor M2>
5

>  <Muscarinic acetylcholine receptor M3>
5

>  <Muscarinic acetylcholine receptor M4>
5

>  <Muscarinic acetylcholine receptor M5>
5

>  <Norepinephrine transporter>
6.87

>  <Serotonin transporter>
5.38

$$$$
METHYLPHENIDATE
  Marvin  02231216192D 0   1.00000     0.00000     0

 17 18  0  0  1  0  0  0  0  0999 V2000
   -0.3749   -0.6902    0.0000 O   0  0  0  0  0  0  0  0  0
    0.3395   -0.2777    0.0000 C   0  0  0  0  0  0  0  0  0
    0.3395    0.5473    0.0000 O   0  0  0  0  0  0  0  0  0
    1.0540   -0.6902    0.0000 C   0  0  0  0  0  0  0  0  0
    1.0540   -1.5152    0.0000 C   0  0  0  0  0  0  0  0  0
    1.7685   -1.9277    0.0000 N   0  0  0  0  0  0  0  0  0
    1.7685   -2.7527    0.0000 C   0  0  0  0  0  0  0  0  0
    1.0540   -3.1652    0.0000 C   0  0  0  0  0  0  0  0  0
    0.3395   -2.7527    0.0000 C   0  0  0  0  0  0  0  0  0
    0.3395   -1.9277    0.0000 C   0  0  0  0  0  0  0  0  0
    1.7685   -0.2777    0.0000 C   0  0  0  0  0  0  0  0  0
    1.7685    0.5473    0.0000 C   0  0  0  0  0  0  0  0  0
    2.4829    0.9598    0.0000 C   0  0  0  0  0  0  0  0  0
    3.1974    0.5473    0.0000 C   0  0  0  0  0  0  0  0  0
    3.1974   -0.2777    0.0000 C   0  0  0  0  0  0  0  0  0
    2.4829   -0.6902    0.0000 C   0  0  0  0  0  0  0  0  0
   -0.3749   -1.5152    0.0000 C   0  0  0  0  0  0  0  0  0
  1  2  1  0  0  0  0
  1 17  1  0  0  0  0
  2  3  2  0  0  0  0
  2  4  1  0  0  0  0
  4  5  1  0  0  0  0
  4 11  1  0  0  0  0
  5  6  1  0  0  0  0
  5 10  1  0  0  0  0
  6  7  1  0  0  0  0
  7  8  1  0  0  0  0
  8  9  1  0  0  0  0
  9 10  1  0  0  0  0
 11 12  4  0  0  0  0
 11 16  4  0  0  0  0
 12 13  4  0  0  0  0
 13 14  4  0  0  0  0
 14 15  4  0  0  0  0
 15 16  4  0  0  0  0
M  END
>  <Name_Molregno>
METHYLPHENIDATE

>  <5-HT1A>
5

>  <5-HT1B>
5

>  <5-HT1E>
5

>  <5-HT3>
5

>  <5-HT5>
5

>  <5-HT6>
5

>  <5-HT7>
5

>  <Alpha-1A>
5

>  <Alpha-1B>
5

>  <Alpha-2A>
5.25

>  <Alpha-2B>
5.61

>  <Alpha-2C>
6.07

>  <DOPAMINE D1>
5

>  <DOPAMINE D2>
5

>  <Dopamine transporter>
7.28

>  <Muscarinic acetylcholine receptor M1>
5

>  <Muscarinic acetylcholine receptor M2>
5

>  <Muscarinic acetylcholine receptor M3>
5

>  <Muscarinic acetylcholine receptor M4>
5

>  <Muscarinic acetylcholine receptor M5>
5

>  <Norepinephrine transporter>
6.46

>  <Serotonin transporter>
5

$$$$
METHYSERGIDE
  Marvin  02231216192D 0   1.00000     0.00000     0

 26 29  0  0  1  0  0  0  0  0999 V2000
   -5.6466   -4.8655    0.0000 O   0  0  0  0  0  0  0  0  0
   -5.6457   -4.0405    0.0000 C   0  0  0  0  0  0  0  0  0
   -4.9307   -3.6289    0.0000 C   0  0  0  0  0  0  0  0  0
   -4.9297   -2.8039    0.0000 N   0  0  0  0  0  0  0  0  0
   -4.2147   -2.3922    0.0000 C   0  0  0  0  0  0  0  0  0
   -3.5008   -2.8056    0.0000 O   0  0  0  0  0  0  0  0  0
   -4.2138   -1.5672    0.0000 C   0  0  0  0  0  0  0  0  0
   -3.4988   -1.1556    0.0000 C   0  0  0  0  0  0  0  0  0
   -3.4978   -0.3306    0.0000 C   0  0  0  0  0  0  0  0  0
   -4.2118    0.0828    0.0000 C   0  0  0  0  0  0  0  0  0
   -4.9267   -0.3289    0.0000 N   0  0  0  0  0  0  0  0  0
   -4.9277   -1.1539    0.0000 C   0  0  0  0  0  0  0  0  0
   -5.6407    0.0845    0.0000 C   0  0  0  0  0  0  0  0  0
   -4.2103    0.9069    0.0000 C   0  0  0  0  0  0  0  0  0
   -3.4978    1.3194    0.0000 C   0  0  0  0  0  0  0  0  0
   -2.7853    0.9069    0.0000 C   0  0  0  0  0  0  0  0  0
   -2.7853    0.0819    0.0000 C   0  0  0  0  0  0  0  0  0
   -2.0674   -0.3306    0.0000 C   0  0  0  0  0  0  0  0  0
   -1.3549    0.0819    0.0000 C   0  0  0  0  0  0  0  0  0
   -1.3549    0.9069    0.0000 C   0  0  0  0  0  0  0  0  0
   -2.0674    1.3194    0.0000 C   0  0  0  0  0  0  0  0  0
   -2.3728    2.1766    0.0000 N   0  0  0  0  0  0  0  0  0
   -3.1978    2.1766    0.0000 C   0  0  0  0  0  0  0  0  0
   -1.8973    2.8507    0.0000 C   0  0  0  0  0  0  0  0  0
   -4.2167   -4.0422    0.0000 C   0  0  0  0  0  0  0  0  0
   -4.2177   -4.8672    0.0000 C   0  0  0  0  0  0  0  0  0
  1  2  1  0  0  0  0
  2  3  1  0  0  0  0
  3  4  1  0  0  0  0
  3 25  1  0  0  0  0
  4  5  1  0  0  0  0
  5  6  2  0  0  0  0
  5  7  1  0  0  0  0
  7  8  1  0  0  0  0
  7 12  1  0  0  0  0
  8  9  2  0  0  0  0
  9 10  1  0  0  0  0
  9 17  1  0  0  0  0
 10 11  1  0  0  0  0
 10 14  1  0  0  0  0
 11 12  1  0  0  0  0
 11 13  1  0  0  0  0
 14 15  1  0  0  0  0
 15 16  4  0  0  0  0
 15 23  4  0  0  0  0
 16 17  4  0  0  0  0
 16 21  4  0  0  0  0
 17 18  4  0  0  0  0
 18 19  4  0  0  0  0
 19 20  4  0  0  0  0
 20 21  4  0  0  0  0
 21 22  4  0  0  0  0
 22 23  4  0  0  0  0
 22 24  1  0  0  0  0
 25 26  1  0  0  0  0
M  END
>  <Name_Molregno>
METHYSERGIDE

>  <5-HT1A>
7.81

>  <5-HT1B>
7.91

>  <5-HT1D>
7.56

>  <5-HT1E>
6.71

>  <5-HT2A>
8.05

>  <5-HT2C>
8.69

>  <5-HT3>
5

>  <5-HT5>
5

>  <5-HT6>
6.82

>  <5-HT7>
7.32

>  <Alpha-1A>
5

>  <Alpha-1B>
5

>  <Alpha-2A>
6.77

>  <Alpha-2B>
6.97

>  <Alpha-2C>
7.05

>  <Beta-1>
5

>  <Beta-2>
5

>  <DOPAMINE D1>
5

>  <DOPAMINE D2>
5

>  <DOPAMINE D4>
5

>  <DOPAMINE D5>
5

>  <Dopamine transporter>
5

>  <HISTAMINE H1>
5.26

>  <HISTAMINE H2>
5

>  <Muscarinic acetylcholine receptor M1>
5.26

>  <Muscarinic acetylcholine receptor M2>
5.21

>  <Muscarinic acetylcholine receptor M3>
5.33

>  <Muscarinic acetylcholine receptor M4>
5

>  <Muscarinic acetylcholine receptor M5>
5

>  <Norepinephrine transporter>
5

>  <Serotonin transporter>
5

$$$$
METOCLOPRAMIDE
  Marvin  02231216192D 0   1.00000     0.00000     0

 20 20  0  0  0  0  0  0  0  0999 V2000
   -0.1329    0.9766    0.0000 Cl  0  0  0  0  0  0  0  0  0
    0.2796    0.2621    0.0000 C   0  0  0  0  0  0  0  0  0
    1.1046    0.2621    0.0000 C   0  0  0  0  0  0  0  0  0
    1.5171   -0.4524    0.0000 C   0  0  0  0  0  0  0  0  0
    2.3421   -0.4524    0.0000 C   0  0  0  0  0  0  0  0  0
    2.7546    0.2621    0.0000 O   0  0  0  0  0  0  0  0  0
    2.7546   -1.1669    0.0000 N   0  0  0  0  0  0  0  0  0
    3.5796   -1.1669    0.0000 C   0  0  0  0  0  0  0  0  0
    3.9921   -1.8813    0.0000 C   0  0  0  0  0  0  0  0  0
    4.8171   -1.8813    0.0000 N   0  0  0  0  0  0  0  0  0
    5.2296   -2.5958    0.0000 C   0  0  0  0  0  0  0  0  0
    6.0546   -2.5958    0.0000 C   0  0  0  0  0  0  0  0  0
    5.2296   -1.1669    0.0000 C   0  0  0  0  0  0  0  0  0
    6.0546   -1.1669    0.0000 C   0  0  0  0  0  0  0  0  0
    1.1046   -1.1669    0.0000 C   0  0  0  0  0  0  0  0  0
    1.5171   -1.8813    0.0000 O   0  0  0  0  0  0  0  0  0
    1.1046   -2.5958    0.0000 C   0  0  0  0  0  0  0  0  0
    0.2796   -1.1669    0.0000 C   0  0  0  0  0  0  0  0  0
   -0.1329   -0.4524    0.0000 C   0  0  0  0  0  0  0  0  0
   -0.9579   -0.4524    0.0000 N   0  0  0  0  0  0  0  0  0
  1  2  1  0  0  0  0
  2  3  4  0  0  0  0
  2 19  4  0  0  0  0
  3  4  4  0  0  0  0
  4  5  1  0  0  0  0
  4 15  4  0  0  0  0
  5  6  2  0  0  0  0
  5  7  1  0  0  0  0
  7  8  1  0  0  0  0
  8  9  1  0  0  0  0
  9 10  1  0  0  0  0
 10 11  1  0  0  0  0
 10 13  1  0  0  0  0
 11 12  1  0  0  0  0
 13 14  1  0  0  0  0
 15 16  1  0  0  0  0
 15 18  4  0  0  0  0
 16 17  1  0  0  0  0
 18 19  4  0  0  0  0
 19 20  1  0  0  0  0
M  END
>  <Name_Molregno>
METOCLOPRAMIDE

>  <5-HT1A>
5

>  <5-HT1D>
5

>  <5-HT3>
6.16

>  <DOPAMINE D1>
5

>  <DOPAMINE D2>
7.19

>  <DOPAMINE D3>
7.69

$$$$
MIANSERIN
  Marvin  02231216192D 0   1.00000     0.00000     0

 20 23  0  0  1  0  0  0  0  0999 V2000
   -0.0097    0.0139    0.0000 N   0  0  0  0  0  0  0  0  0
    0.8153    0.0139    0.0000 C   0  0  0  0  0  0  0  0  0
    1.3296   -0.6312    0.0000 C   0  0  0  0  0  0  0  0  0
    1.1460   -1.4355    0.0000 C   0  0  0  0  0  0  0  0  0
    0.4028   -1.7934    0.0000 C   0  0  0  0  0  0  0  0  0
   -0.3405   -1.4355    0.0000 C   0  0  0  0  0  0  0  0  0
   -0.5241   -0.6312    0.0000 C   0  0  0  0  0  0  0  0  0
   -1.3125   -0.3880    0.0000 C   0  0  0  0  0  0  0  0  0
   -1.9172   -0.9491    0.0000 C   0  0  0  0  0  0  0  0  0
   -1.7337   -1.7534    0.0000 C   0  0  0  0  0  0  0  0  0
   -0.9453   -1.9966    0.0000 C   0  0  0  0  0  0  0  0  0
    1.7508   -1.9966    0.0000 C   0  0  0  0  0  0  0  0  0
    2.5392   -1.7534    0.0000 C   0  0  0  0  0  0  0  0  0
    2.7227   -0.9491    0.0000 C   0  0  0  0  0  0  0  0  0
    2.1180   -0.3880    0.0000 C   0  0  0  0  0  0  0  0  0
    1.2278    0.7283    0.0000 C   0  0  0  0  0  0  0  0  0
    0.8153    1.4428    0.0000 N   0  0  0  0  0  0  0  0  0
   -0.0097    1.4428    0.0000 C   0  0  0  0  0  0  0  0  0
   -0.4222    0.7283    0.0000 C   0  0  0  0  0  0  0  0  0
    1.2278    2.1573    0.0000 C   0  0  0  0  0  0  0  0  0
  1  2  1  0  0  0  0
  1  7  1  0  0  0  0
  1 19  1  0  0  0  0
  2  3  1  0  0  0  0
  2 16  1  0  0  0  0
  3  4  4  0  0  0  0
  3 15  4  0  0  0  0
  4  5  1  0  0  0  0
  4 12  4  0  0  0  0
  5  6  1  0  0  0  0
  6  7  4  0  0  0  0
  6 11  4  0  0  0  0
  7  8  4  0  0  0  0
  8  9  4  0  0  0  0
  9 10  4  0  0  0  0
 10 11  4  0  0  0  0
 12 13  4  0  0  0  0
 13 14  4  0  0  0  0
 14 15  4  0  0  0  0
 16 17  1  0  0  0  0
 17 18  1  0  0  0  0
 17 20  1  0  0  0  0
 18 19  1  0  0  0  0
M  END
>  <Name_Molregno>
MIANSERIN

>  <5-HT1A>
6.15

>  <5-HT1D>
6.53

>  <5-HT2A>
8.13

>  <5-HT2C>
8.5

>  <5-HT6>
7.2

>  <5-HT7>
7.28

>  <Alpha-2A>
8.32

>  <Alpha-2B>
7.57

>  <Alpha-2C>
8.42

>  <DOPAMINE D1>
6.11

>  <DOPAMINE D2>
5.69

>  <DOPAMINE D3>
5.55

>  <Dopamine transporter>
5.03

>  <HISTAMINE H1>
9.13

>  <HISTAMINE H4>
6.12

>  <Norepinephrine transporter>
7.15

>  <Serotonin transporter>
5.4

$$$$
MIRTAZAPINE
  Marvin  02231216192D 0   1.00000     0.00000     0

 20 23  0  0  1  0  0  0  0  0999 V2000
   -2.9515    1.3173    0.0000 N   0  0  0  0  0  0  0  0  0
   -2.1632    1.0741    0.0000 C   0  0  0  0  0  0  0  0  0
   -1.6488    1.7191    0.0000 N   0  0  0  0  0  0  0  0  0
   -0.8238    1.7191    0.0000 C   0  0  0  0  0  0  0  0  0
   -0.3094    1.0741    0.0000 C   0  0  0  0  0  0  0  0  0
   -0.4930    0.2698    0.0000 C   0  0  0  0  0  0  0  0  0
   -1.2363   -0.0881    0.0000 C   0  0  0  0  0  0  0  0  0
   -1.9796    0.2698    0.0000 C   0  0  0  0  0  0  0  0  0
   -2.5844   -0.2913    0.0000 C   0  0  0  0  0  0  0  0  0
   -3.3727   -0.0482    0.0000 C   0  0  0  0  0  0  0  0  0
   -3.5563    0.7562    0.0000 C   0  0  0  0  0  0  0  0  0
    0.1118   -0.2913    0.0000 C   0  0  0  0  0  0  0  0  0
    0.9001   -0.0482    0.0000 C   0  0  0  0  0  0  0  0  0
    1.0837    0.7562    0.0000 C   0  0  0  0  0  0  0  0  0
    0.4789    1.3173    0.0000 C   0  0  0  0  0  0  0  0  0
   -0.4113    2.4336    0.0000 C   0  0  0  0  0  0  0  0  0
   -0.8238    3.1481    0.0000 N   0  0  0  0  0  0  0  0  0
   -1.6488    3.1481    0.0000 C   0  0  0  0  0  0  0  0  0
   -2.0613    2.4336    0.0000 C   0  0  0  0  0  0  0  0  0
   -0.4113    3.8626    0.0000 C   0  0  0  0  0  0  0  0  0
  1  2  4  0  0  0  0
  1 11  4  0  0  0  0
  2  3  1  0  0  0  0
  2  8  4  0  0  0  0
  3  4  1  0  0  0  0
  3 19  1  0  0  0  0
  4  5  1  0  0  0  0
  4 16  1  0  0  0  0
  5  6  4  0  0  0  0
  5 15  4  0  0  0  0
  6  7  1  0  0  0  0
  6 12  4  0  0  0  0
  7  8  1  0  0  0  0
  8  9  4  0  0  0  0
  9 10  4  0  0  0  0
 10 11  4  0  0  0  0
 12 13  4  0  0  0  0
 13 14  4  0  0  0  0
 14 15  4  0  0  0  0
 16 17  1  0  0  0  0
 17 18  1  0  0  0  0
 17 20  1  0  0  0  0
 18 19  1  0  0  0  0
M  END
>  <Name_Molregno>
MIRTAZAPINE

>  <5-HT1A>
7.74

>  <5-HT2A>
7.16

>  <5-HT2C>
7.41

>  <5-HT7>
6.58

>  <Alpha-2A>
7.7

>  <Alpha-2C>
7.74

>  <DOPAMINE D1>
5.38

>  <DOPAMINE D2>
5.26

>  <DOPAMINE D3>
6.06

>  <DOPAMINE D4>
7.6

>  <Dopamine transporter>
5

>  <HISTAMINE H1>
8.8

>  <Norepinephrine transporter>
5.29

>  <Serotonin transporter>
5

$$$$
N-(4-Acetamidophenyl)indomethacinamide
  Marvin  02231216192D 0   1.00000     0.00000     0

 37 40  0  0  0  0  0  0  0  0999 V2000
    0.5106    2.7433    0.0000 Cl  0  0  0  0  0  0  0  0  0
    1.3311    2.6571    0.0000 C   0  0  0  0  0  0  0  0  0
    1.8160    3.3245    0.0000 C   0  0  0  0  0  0  0  0  0
    2.6365    3.2383    0.0000 C   0  0  0  0  0  0  0  0  0
    2.9720    2.4846    0.0000 C   0  0  0  0  0  0  0  0  0
    2.4871    1.8172    0.0000 C   0  0  0  0  0  0  0  0  0
    1.6666    1.9034    0.0000 C   0  0  0  0  0  0  0  0  0
    3.7925    2.3984    0.0000 C   0  0  0  0  0  0  0  0  0
    4.2774    3.0658    0.0000 O   0  0  0  0  0  0  0  0  0
    4.1281    1.6447    0.0000 N   0  0  0  0  0  0  0  0  0
    3.7156    0.9302    0.0000 C   0  0  0  0  0  0  0  0  0
    4.2676    0.3171    0.0000 C   0  0  0  0  0  0  0  0  0
    4.0127   -0.4675    0.0000 C   0  0  0  0  0  0  0  0  0
    3.2057   -0.6390    0.0000 C   0  0  0  0  0  0  0  0  0
    2.9508   -1.4236    0.0000 O   0  0  0  0  0  0  0  0  0
    2.1438   -1.5952    0.0000 C   0  0  0  0  0  0  0  0  0
    2.6537   -0.0259    0.0000 C   0  0  0  0  0  0  0  0  0
    2.9086    0.7587    0.0000 C   0  0  0  0  0  0  0  0  0
    5.0213    0.6527    0.0000 C   0  0  0  0  0  0  0  0  0
    5.7358    0.2402    0.0000 C   0  0  0  0  0  0  0  0  0
    5.7358   -0.5848    0.0000 C   0  0  0  0  0  0  0  0  0
    5.0213   -0.9973    0.0000 O   0  0  0  0  0  0  0  0  0
    6.4502   -0.9973    0.0000 N   0  0  0  0  0  0  0  0  0
    7.1647   -0.5848    0.0000 C   0  0  0  0  0  0  0  0  0
    7.1647    0.2402    0.0000 C   0  0  0  0  0  0  0  0  0
    7.8792    0.6527    0.0000 C   0  0  0  0  0  0  0  0  0
    7.8792    1.4777    0.0000 C   0  0  0  0  0  0  0  0  0
    8.5936    1.8902    0.0000 C   0  0  0  0  0  0  0  0  0
    9.3081    1.4777    0.0000 C   0  0  0  0  0  0  0  0  0
   10.0226    1.8902    0.0000 N   0  0  0  0  0  0  0  0  0
   10.7371    1.4777    0.0000 C   0  0  0  0  0  0  0  0  0
   11.4515    1.8902    0.0000 O   0  0  0  0  0  0  0  0  0
   10.7371    0.6527    0.0000 C   0  0  0  0  0  0  0  0  0
    9.3081    0.6527    0.0000 C   0  0  0  0  0  0  0  0  0
    8.5936    0.2402    0.0000 C   0  0  0  0  0  0  0  0  0
    4.9351    1.4732    0.0000 C   0  0  0  0  0  0  0  0  0
    5.5481    2.0252    0.0000 C   0  0  0  0  0  0  0  0  0
  1  2  1  0  0  0  0
  2  3  4  0  0  0  0
  2  7  4  0  0  0  0
  3  4  4  0  0  0  0
  4  5  4  0  0  0  0
  5  6  4  0  0  0  0
  5  8  1  0  0  0  0
  6  7  4  0  0  0  0
  8  9  2  0  0  0  0
  8 10  1  0  0  0  0
 10 11  4  0  0  0  0
 10 36  4  0  0  0  0
 11 12  4  0  0  0  0
 11 18  4  0  0  0  0
 12 13  4  0  0  0  0
 12 19  4  0  0  0  0
 13 14  4  0  0  0  0
 14 15  1  0  0  0  0
 14 17  4  0  0  0  0
 15 16  1  0  0  0  0
 17 18  4  0  0  0  0
 19 20  1  0  0  0  0
 19 36  4  0  0  0  0
 20 21  1  0  0  0  0
 21 22  2  0  0  0  0
 21 23  1  0  0  0  0
 23 24  1  0  0  0  0
 24 25  1  0  0  0  0
 25 26  1  0  0  0  0
 26 27  4  0  0  0  0
 26 35  4  0  0  0  0
 27 28  4  0  0  0  0
 28 29  4  0  0  0  0
 29 30  1  0  0  0  0
 29 34  4  0  0  0  0
 30 31  1  0  0  0  0
 31 32  2  0  0  0  0
 31 33  1  0  0  0  0
 34 35  4  0  0  0  0
 36 37  1  0  0  0  0
M  END
>  <Name_Molregno>
N-(4-Acetamidophenyl)indomethacinamide

>  <5-HT1A>
5

>  <5-HT1B>
5

>  <5-HT1E>
5

>  <5-HT2A>
5

>  <5-HT3>
5

>  <5-HT6>
5

>  <5-HT7>
5

>  <Alpha-1A>
5

>  <Alpha-1B>
5

>  <Alpha-2A>
5

>  <Alpha-2B>
5

>  <Alpha-2C>
5

>  <DOPAMINE D1>
5

>  <DOPAMINE D2>
5

>  <DOPAMINE D5>
5

>  <Dopamine transporter>
5

>  <HISTAMINE H1>
5

>  <HISTAMINE H2>
5

>  <HISTAMINE H4>
5

>  <Muscarinic acetylcholine receptor M2>
5

>  <Muscarinic acetylcholine receptor M5>
5

>  <Serotonin transporter>
5

$$$$
N-0437
  Marvin  02231216192D 0   1.00000     0.00000     0

 22 24  0  0  1  0  0  0  0  0999 V2000
    0.5697    1.1278    0.0000 S   0  0  0  0  0  0  0  0  0
    0.0177    1.7409    0.0000 C   0  0  0  0  0  0  0  0  0
    0.4302    2.4554    0.0000 C   0  0  0  0  0  0  0  0  0
    1.2372    2.2838    0.0000 C   0  0  0  0  0  0  0  0  0
    1.3234    1.4634    0.0000 C   0  0  0  0  0  0  0  0  0
    2.0379    1.0509    0.0000 C   0  0  0  0  0  0  0  0  0
    2.0379    0.2259    0.0000 C   0  0  0  0  0  0  0  0  0
    2.7523   -0.1866    0.0000 N   0  0  0  0  0  0  0  0  0
    3.4668    0.2259    0.0000 C   0  0  0  0  0  0  0  0  0
    3.4668    1.0509    0.0000 C   0  0  0  0  0  0  0  0  0
    4.1813    1.4634    0.0000 C   0  0  0  0  0  0  0  0  0
    2.7523   -1.0116    0.0000 C   0  0  0  0  0  0  0  0  0
    2.0379   -1.4241    0.0000 C   0  0  0  0  0  0  0  0  0
    2.0379   -2.2491    0.0000 C   0  0  0  0  0  0  0  0  0
    2.7523   -2.6616    0.0000 C   0  0  0  0  0  0  0  0  0
    3.4668   -2.2491    0.0000 C   0  0  0  0  0  0  0  0  0
    3.4668   -1.4241    0.0000 C   0  0  0  0  0  0  0  0  0
    4.1813   -2.6616    0.0000 C   0  0  0  0  0  0  0  0  0
    4.1813   -3.4866    0.0000 C   0  0  0  0  0  0  0  0  0
    3.4668   -3.8991    0.0000 C   0  0  0  0  0  0  0  0  0
    2.7523   -3.4866    0.0000 C   0  0  0  0  0  0  0  0  0
    2.0379   -3.8991    0.0000 O   0  0  0  0  0  0  0  0  0
  1  2  4  0  0  0  0
  1  5  4  0  0  0  0
  2  3  4  0  0  0  0
  3  4  4  0  0  0  0
  4  5  4  0  0  0  0
  5  6  1  0  0  0  0
  6  7  1  0  0  0  0
  7  8  1  0  0  0  0
  8  9  1  0  0  0  0
  8 12  1  0  0  0  0
  9 10  1  0  0  0  0
 10 11  1  0  0  0  0
 12 13  1  0  0  0  0
 12 17  1  0  0  0  0
 13 14  1  0  0  0  0
 14 15  1  0  0  0  0
 15 16  4  0  0  0  0
 15 21  4  0  0  0  0
 16 17  1  0  0  0  0
 16 18  4  0  0  0  0
 18 19  4  0  0  0  0
 19 20  4  0  0  0  0
 20 21  4  0  0  0  0
 21 22  1  0  0  0  0
M  END
>  <Name_Molregno>
N-0437

>  <DOPAMINE D1>
5.66

>  <DOPAMINE D5>
6.01

$$$$
Naproxen
  Marvin  02231216192D 0   1.00000     0.00000     0

 17 18  0  0  1  0  0  0  0  0999 V2000
   -5.3383   -1.4581    0.0000 O   0  0  0  0  0  0  0  0  0
   -6.0528   -1.0456    0.0000 C   0  0  0  0  0  0  0  0  0
   -4.6238   -1.0456    0.0000 C   0  0  0  0  0  0  0  0  0
   -3.9093   -1.4581    0.0000 C   0  0  0  0  0  0  0  0  0
   -3.1949   -1.0456    0.0000 C   0  0  0  0  0  0  0  0  0
   -3.1949   -0.2206    0.0000 C   0  0  0  0  0  0  0  0  0
   -2.4804    0.1919    0.0000 C   0  0  0  0  0  0  0  0  0
   -1.7659   -0.2206    0.0000 C   0  0  0  0  0  0  0  0  0
   -1.7659   -1.0456    0.0000 C   0  0  0  0  0  0  0  0  0
   -2.4804   -1.4581    0.0000 C   0  0  0  0  0  0  0  0  0
   -1.0515    0.1919    0.0000 C   0  0  0  0  0  0  0  0  0
   -0.3370   -0.2206    0.0000 C   0  0  0  0  0  0  0  0  0
    0.3775    0.1919    0.0000 O   0  0  0  0  0  0  0  0  0
   -0.3370   -1.0456    0.0000 O   0  0  0  0  0  0  0  0  0
   -1.0515    1.0169    0.0000 C   0  0  0  0  0  0  0  0  0
   -3.9093    0.1919    0.0000 C   0  0  0  0  0  0  0  0  0
   -4.6238   -0.2206    0.0000 C   0  0  0  0  0  0  0  0  0
  1  2  1  0  0  0  0
  1  3  1  0  0  0  0
  3  4  4  0  0  0  0
  3 17  4  0  0  0  0
  4  5  4  0  0  0  0
  5  6  4  0  0  0  0
  5 10  4  0  0  0  0
  6  7  4  0  0  0  0
  6 16  4  0  0  0  0
  7  8  4  0  0  0  0
  8  9  4  0  0  0  0
  8 11  1  0  0  0  0
  9 10  4  0  0  0  0
 11 12  1  0  0  0  0
 11 15  1  0  0  0  0
 12 13  1  0  0  0  0
 12 14  2  0  0  0  0
 16 17  4  0  0  0  0
M  END
>  <Name_Molregno>
Naproxen

>  <5-HT1A>
5

>  <5-HT1B>
5

>  <5-HT1D>
5

>  <5-HT1E>
5

>  <5-HT2A>
5

>  <5-HT3>
5

>  <5-HT5>
5

>  <5-HT6>
5

>  <5-HT7>
5

>  <Alpha-1A>
5

>  <Alpha-1B>
5

>  <Alpha-2A>
5

>  <Alpha-2B>
5

>  <Alpha-2C>
5

>  <DOPAMINE D1>
5

>  <DOPAMINE D2>
5

>  <DOPAMINE D4>
5

>  <DOPAMINE D5>
5

>  <Dopamine transporter>
5

>  <HISTAMINE H1>
5

>  <HISTAMINE H2>
5

>  <HISTAMINE H4>
5

>  <Muscarinic acetylcholine receptor M2>
5

>  <Muscarinic acetylcholine receptor M5>
5

>  <Norepinephrine transporter>
5

>  <Serotonin transporter>
5

$$$$
N-DESMETHYLCLOZAPINE
  Marvin  02231216192D 0   1.00000     0.00000     0

 22 25  0  0  0  0  0  0  0  0999 V2000
   -0.3818   -1.7384    0.0000 Cl  0  0  0  0  0  0  0  0  0
    0.4065   -1.9816    0.0000 C   0  0  0  0  0  0  0  0  0
    1.0113   -1.4204    0.0000 C   0  0  0  0  0  0  0  0  0
    1.7996   -1.6636    0.0000 C   0  0  0  0  0  0  0  0  0
    2.3140   -1.0186    0.0000 N   0  0  0  0  0  0  0  0  0
    3.1390   -1.0186    0.0000 C   0  0  0  0  0  0  0  0  0
    3.4969   -0.2753    0.0000 N   0  0  0  0  0  0  0  0  0
    3.0322    0.4063    0.0000 C   0  0  0  0  0  0  0  0  0
    3.3902    1.1496    0.0000 C   0  0  0  0  0  0  0  0  0
    4.2129    1.2113    0.0000 N   0  0  0  0  0  0  0  0  0
    4.6776    0.5296    0.0000 C   0  0  0  0  0  0  0  0  0
    4.3196   -0.2137    0.0000 C   0  0  0  0  0  0  0  0  0
    3.6534   -1.6636    0.0000 C   0  0  0  0  0  0  0  0  0
    3.4698   -2.4679    0.0000 C   0  0  0  0  0  0  0  0  0
    2.7265   -2.8259    0.0000 N   0  0  0  0  0  0  0  0  0
    1.9832   -2.4679    0.0000 C   0  0  0  0  0  0  0  0  0
    1.3784   -3.0291    0.0000 C   0  0  0  0  0  0  0  0  0
    0.5901   -2.7859    0.0000 C   0  0  0  0  0  0  0  0  0
    4.0746   -3.0291    0.0000 C   0  0  0  0  0  0  0  0  0
    4.8629   -2.7859    0.0000 C   0  0  0  0  0  0  0  0  0
    5.0465   -1.9816    0.0000 C   0  0  0  0  0  0  0  0  0
    4.4417   -1.4204    0.0000 C   0  0  0  0  0  0  0  0  0
  1  2  1  0  0  0  0
  2  3  4  0  0  0  0
  2 18  4  0  0  0  0
  3  4  4  0  0  0  0
  4  5  1  0  0  0  0
  4 16  4  0  0  0  0
  5  6  1  0  0  0  0
  6  7  1  0  0  0  0
  6 13  2  0  0  0  0
  7  8  1  0  0  0  0
  7 12  1  0  0  0  0
  8  9  1  0  0  0  0
  9 10  1  0  0  0  0
 10 11  1  0  0  0  0
 11 12  1  0  0  0  0
 13 14  1  0  0  0  0
 13 22  1  0  0  0  0
 14 15  2  0  0  0  0
 14 19  1  0  0  0  0
 15 16  1  0  0  0  0
 16 17  4  0  0  0  0
 17 18  4  0  0  0  0
 19 20  2  0  0  0  0
 20 21  1  0  0  0  0
 21 22  2  0  0  0  0
M  END
>  <Name_Molregno>
N-DESMETHYLCLOZAPINE

>  <5-HT1A>
7.86

>  <5-HT1B>
6.39

>  <5-HT1D>
6.32

>  <5-HT1E>
6.41

>  <5-HT2A>
7.96

>  <5-HT3>
6.57

>  <5-HT5>
6.46

>  <5-HT6>
7.94

>  <5-HT7>
7.22

>  <Alpha-1A>
6.98

>  <Alpha-1B>
7.07

>  <Alpha-2A>
6.86

>  <Alpha-2B>
7.02

>  <Alpha-2C>
6.93

>  <Beta-1>
5.2

>  <Beta-2>
5.33

>  <DOPAMINE D1>
7.84

>  <DOPAMINE D2>
7

>  <DOPAMINE D3>
6.82

>  <DOPAMINE D4>
7.28

>  <DOPAMINE D5>
6.55

>  <Dopamine transporter>
5

>  <HISTAMINE H1>
8.47

>  <HISTAMINE H2>
6.46

>  <HISTAMINE H4>
5.99

>  <Muscarinic acetylcholine receptor M1>
7.17

>  <Muscarinic acetylcholine receptor M2>
6.38

>  <Muscarinic acetylcholine receptor M3>
7.02

>  <Muscarinic acetylcholine receptor M4>
6.77

>  <Muscarinic acetylcholine receptor M5>
7.45

>  <Norepinephrine transporter>
6.31

>  <Serotonin transporter>
6.5

$$$$
NEMONAPRIDE
  Marvin  02231216192D 0   1.00000     0.00000     0

 27 29  0  0  1  0  0  0  0  0999 V2000
    5.2060    2.2336    0.0000 Cl  0  0  0  0  0  0  0  0  0
    4.4916    1.8211    0.0000 C   0  0  0  0  0  0  0  0  0
    4.4916    0.9961    0.0000 C   0  0  0  0  0  0  0  0  0
    3.7771    0.5836    0.0000 C   0  0  0  0  0  0  0  0  0
    3.7771   -0.2414    0.0000 C   0  0  0  0  0  0  0  0  0
    4.4916   -0.6539    0.0000 O   0  0  0  0  0  0  0  0  0
    3.0626   -0.6539    0.0000 N   0  0  0  0  0  0  0  0  0
    3.0626   -1.4789    0.0000 C   0  0  0  0  0  0  0  0  0
    3.7300   -1.9638    0.0000 C   0  0  0  0  0  0  0  0  0
    3.4751   -2.7484    0.0000 C   0  0  0  0  0  0  0  0  0
    2.6501   -2.7484    0.0000 N   0  0  0  0  0  0  0  0  0
    2.1652   -3.4159    0.0000 C   0  0  0  0  0  0  0  0  0
    2.5007   -4.1696    0.0000 C   0  0  0  0  0  0  0  0  0
    3.3212   -4.2558    0.0000 C   0  0  0  0  0  0  0  0  0
    3.6568   -5.0095    0.0000 C   0  0  0  0  0  0  0  0  0
    3.1719   -5.6769    0.0000 C   0  0  0  0  0  0  0  0  0
    2.3514   -5.5907    0.0000 C   0  0  0  0  0  0  0  0  0
    2.0158   -4.8370    0.0000 C   0  0  0  0  0  0  0  0  0
    2.3952   -1.9638    0.0000 C   0  0  0  0  0  0  0  0  0
    1.6105   -1.7089    0.0000 C   0  0  0  0  0  0  0  0  0
    3.0626    0.9961    0.0000 C   0  0  0  0  0  0  0  0  0
    2.3481    0.5836    0.0000 O   0  0  0  0  0  0  0  0  0
    1.6337    0.9961    0.0000 C   0  0  0  0  0  0  0  0  0
    3.0626    1.8211    0.0000 C   0  0  0  0  0  0  0  0  0
    3.7771    2.2336    0.0000 C   0  0  0  0  0  0  0  0  0
    3.7771    3.0586    0.0000 N   0  0  0  0  0  0  0  0  0
    3.0626    3.4711    0.0000 C   0  0  0  0  0  0  0  0  0
  1  2  1  0  0  0  0
  2  3  4  0  0  0  0
  2 25  4  0  0  0  0
  3  4  4  0  0  0  0
  4  5  1  0  0  0  0
  4 21  4  0  0  0  0
  5  6  2  0  0  0  0
  5  7  1  0  0  0  0
  7  8  1  0  0  0  0
  8  9  1  0  0  0  0
  8 19  1  0  0  0  0
  9 10  1  0  0  0  0
 10 11  1  0  0  0  0
 11 12  1  0  0  0  0
 11 19  1  0  0  0  0
 12 13  1  0  0  0  0
 13 14  4  0  0  0  0
 13 18  4  0  0  0  0
 14 15  4  0  0  0  0
 15 16  4  0  0  0  0
 16 17  4  0  0  0  0
 17 18  4  0  0  0  0
 19 20  1  0  0  0  0
 21 22  1  0  0  0  0
 21 24  4  0  0  0  0
 22 23  1  0  0  0  0
 24 25  4  0  0  0  0
 25 26  1  0  0  0  0
 26 27  1  0  0  0  0
M  END
>  <Name_Molregno>
NEMONAPRIDE

>  <5-HT1A>
7.82

>  <DOPAMINE D1>
5.58

>  <DOPAMINE D2>
10.31

>  <DOPAMINE D3>
9.7

>  <DOPAMINE D4>
9.97

$$$$
nimesulide
  Marvin  02231216192D 0   1.00000     0.00000     0

 21 22  0  0  0  0  0  0  0  0999 V2000
    3.1126    1.9121    0.0000 S   0  0  0  0  0  0  0  0  0
    3.8271    2.3246    0.0000 O   0  0  0  0  0  0  0  0  0
    2.7001    2.6266    0.0000 O   0  0  0  0  0  0  0  0  0
    2.3982    1.4996    0.0000 N   0  0  0  0  0  0  0  0  0
    2.3982    0.6746    0.0000 C   0  0  0  0  0  0  0  0  0
    3.1126    0.2621    0.0000 C   0  0  0  0  0  0  0  0  0
    3.1126   -0.5629    0.0000 C   0  0  0  0  0  0  0  0  0
    2.3982   -0.9754    0.0000 C   0  0  0  0  0  0  0  0  0
    2.3982   -1.8004    0.0000 N   0  3  0  0  0  0  0  0  0
    1.6837   -2.2129    0.0000 O   0  5  0  0  0  0  0  0  0
    3.1126   -2.2129    0.0000 O   0  5  0  0  0  0  0  0  0
    1.6837   -0.5629    0.0000 C   0  0  0  0  0  0  0  0  0
    1.6837    0.2621    0.0000 C   0  0  0  0  0  0  0  0  0
    0.9692    0.6746    0.0000 O   0  0  0  0  0  0  0  0  0
    0.9692    1.4996    0.0000 C   0  0  0  0  0  0  0  0  0
    0.2548    1.9121    0.0000 C   0  0  0  0  0  0  0  0  0
    0.2548    2.7371    0.0000 C   0  0  0  0  0  0  0  0  0
    0.9692    3.1496    0.0000 C   0  0  0  0  0  0  0  0  0
    1.6837    2.7371    0.0000 C   0  0  0  0  0  0  0  0  0
    1.6837    1.9121    0.0000 C   0  0  0  0  0  0  0  0  0
    3.5251    1.1976    0.0000 C   0  0  0  0  0  0  0  0  0
  1  2  2  0  0  0  0
  1  3  2  0  0  0  0
  1  4  1  0  0  0  0
  1 21  1  0  0  0  0
  4  5  1  0  0  0  0
  5  6  4  0  0  0  0
  5 13  4  0  0  0  0
  6  7  4  0  0  0  0
  7  8  4  0  0  0  0
  8  9  1  0  0  0  0
  8 12  4  0  0  0  0
  9 10  1  0  0  0  0
  9 11  1  0  0  0  0
 12 13  4  0  0  0  0
 13 14  1  0  0  0  0
 14 15  1  0  0  0  0
 15 16  4  0  0  0  0
 15 20  4  0  0  0  0
 16 17  4  0  0  0  0
 17 18  4  0  0  0  0
 18 19  4  0  0  0  0
 19 20  4  0  0  0  0
M  CHG  3   9   1  10  -1  11  -1
M  END
>  <Name_Molregno>
nimesulide

>  <5-HT1A>
5

>  <5-HT1B>
5

>  <5-HT1D>
5

>  <5-HT1E>
5

>  <5-HT2A>
5

>  <5-HT3>
5

>  <5-HT5>
5

>  <5-HT6>
5

>  <5-HT7>
5

>  <Alpha-1A>
5

>  <Alpha-1B>
5

>  <Alpha-2A>
5

>  <Alpha-2B>
5

>  <Alpha-2C>
5

>  <DOPAMINE D1>
5

>  <DOPAMINE D2>
5

>  <DOPAMINE D4>
5

>  <DOPAMINE D5>
5

>  <Dopamine transporter>
5

>  <HISTAMINE H1>
5

>  <HISTAMINE H2>
5

>  <HISTAMINE H4>
5

>  <Muscarinic acetylcholine receptor M2>
5

>  <Muscarinic acetylcholine receptor M5>
5

>  <Norepinephrine transporter>
5

>  <Serotonin transporter>
5

$$$$
NOMIFENSINE
  Marvin  02231216192D 0   1.00000     0.00000     0

 18 20  0  0  1  0  0  0  0  0999 V2000
    1.4401   -2.6248    0.0000 N   0  0  0  0  0  0  0  0  0
    1.4401   -1.7998    0.0000 C   0  0  0  0  0  0  0  0  0
    2.1546   -1.3873    0.0000 C   0  0  0  0  0  0  0  0  0
    2.1546   -0.5623    0.0000 C   0  0  0  0  0  0  0  0  0
    1.4401   -0.1498    0.0000 C   0  0  0  0  0  0  0  0  0
    0.7256   -0.5623    0.0000 C   0  0  0  0  0  0  0  0  0
    0.7256   -1.3873    0.0000 C   0  0  0  0  0  0  0  0  0
    2.8690   -0.1498    0.0000 C   0  0  0  0  0  0  0  0  0
    3.5835   -0.5623    0.0000 C   0  0  0  0  0  0  0  0  0
    3.5835   -1.3873    0.0000 N   0  0  0  0  0  0  0  0  0
    2.8690   -1.7998    0.0000 C   0  0  0  0  0  0  0  0  0
    4.2980   -1.7998    0.0000 C   0  0  0  0  0  0  0  0  0
    2.8690    0.6752    0.0000 C   0  0  0  0  0  0  0  0  0
    2.1546    1.0877    0.0000 C   0  0  0  0  0  0  0  0  0
    2.1546    1.9127    0.0000 C   0  0  0  0  0  0  0  0  0
    2.8690    2.3252    0.0000 C   0  0  0  0  0  0  0  0  0
    3.5835    1.9127    0.0000 C   0  0  0  0  0  0  0  0  0
    3.5835    1.0877    0.0000 C   0  0  0  0  0  0  0  0  0
  1  2  1  0  0  0  0
  2  3  4  0  0  0  0
  2  7  4  0  0  0  0
  3  4  4  0  0  0  0
  3 11  1  0  0  0  0
  4  5  4  0  0  0  0
  4  8  1  0  0  0  0
  5  6  4  0  0  0  0
  6  7  4  0  0  0  0
  8  9  1  0  0  0  0
  8 13  1  0  0  0  0
  9 10  1  0  0  0  0
 10 11  1  0  0  0  0
 10 12  1  0  0  0  0
 13 14  4  0  0  0  0
 13 18  4  0  0  0  0
 14 15  4  0  0  0  0
 15 16  4  0  0  0  0
 16 17  4  0  0  0  0
 17 18  4  0  0  0  0
M  END
>  <Name_Molregno>
NOMIFENSINE

>  <5-HT1A>
5.93

>  <DOPAMINE D1>
5

>  <DOPAMINE D2>
5

>  <Dopamine transporter>
7.31

>  <HISTAMINE H1>
5.57

>  <Norepinephrine transporter>
7.67

>  <Serotonin transporter>
5.65

$$$$
Norephedrine
  Marvin  02231216192D 0   1.00000     0.00000     0

 11 11  0  0  1  0  0  0  0  0999 V2000
    1.9974    0.2298    0.0000 O   0  0  0  0  0  0  0  0  0
    1.2829   -0.1827    0.0000 C   0  0  0  0  0  0  0  0  0
    0.5684    0.2298    0.0000 C   0  0  0  0  0  0  0  0  0
    0.5684    1.0548    0.0000 N   0  0  0  0  0  0  0  0  0
   -0.1461   -0.1827    0.0000 C   0  0  0  0  0  0  0  0  0
    1.2829   -1.0077    0.0000 C   0  0  0  0  0  0  0  0  0
    1.9974   -1.4202    0.0000 C   0  0  0  0  0  0  0  0  0
    1.9974   -2.2452    0.0000 C   0  0  0  0  0  0  0  0  0
    1.2829   -2.6577    0.0000 C   0  0  0  0  0  0  0  0  0
    0.5684   -2.2452    0.0000 C   0  0  0  0  0  0  0  0  0
    0.5684   -1.4202    0.0000 C   0  0  0  0  0  0  0  0  0
  1  2  1  0  0  0  0
  2  3  1  0  0  0  0
  2  6  1  0  0  0  0
  3  4  1  0  0  0  0
  3  5  1  0  0  0  0
  6  7  4  0  0  0  0
  6 11  4  0  0  0  0
  7  8  4  0  0  0  0
  8  9  4  0  0  0  0
  9 10  4  0  0  0  0
 10 11  4  0  0  0  0
M  END
>  <Name_Molregno>
Norephedrine

>  <5-HT1A>
5

>  <5-HT1B>
5

>  <5-HT1D>
5

>  <5-HT1E>
5

>  <5-HT3>
5

>  <5-HT5>
5

>  <5-HT6>
5

>  <5-HT7>
5.04

>  <Alpha-1A>
5

>  <Alpha-1B>
5

>  <Alpha-2A>
5.64

>  <Alpha-2B>
5.73

>  <Alpha-2C>
6.04

>  <Beta-1>
5

>  <Beta-2>
5

>  <DOPAMINE D1>
5

>  <DOPAMINE D2>
5

>  <DOPAMINE D4>
5

>  <DOPAMINE D5>
5

>  <Dopamine transporter>
5.76

>  <HISTAMINE H1>
5

>  <HISTAMINE H2>
5

>  <HISTAMINE H4>
5

>  <Muscarinic acetylcholine receptor M1>
5.04

>  <Muscarinic acetylcholine receptor M2>
5

>  <Muscarinic acetylcholine receptor M3>
5

>  <Muscarinic acetylcholine receptor M4>
5

>  <Muscarinic acetylcholine receptor M5>
5

>  <Norepinephrine transporter>
6.34

>  <Serotonin transporter>
5

$$$$
NOREPINEPHRINE
  Marvin  02231216192D 0   1.00000     0.00000     0

 12 12  0  0  1  0  0  0  0  0999 V2000
    3.1670    0.8378    0.0000 O   0  0  0  0  0  0  0  0  0
    2.4525    0.4253    0.0000 C   0  0  0  0  0  0  0  0  0
    2.4525   -0.3997    0.0000 C   0  0  0  0  0  0  0  0  0
    1.7381   -0.8122    0.0000 C   0  0  0  0  0  0  0  0  0
    1.0236   -0.3997    0.0000 C   0  0  0  0  0  0  0  0  0
    1.0236    0.4253    0.0000 C   0  0  0  0  0  0  0  0  0
    1.7381    0.8378    0.0000 C   0  0  0  0  0  0  0  0  0
    1.7381    1.6628    0.0000 O   0  0  0  0  0  0  0  0  0
    1.7381   -1.6372    0.0000 C   0  0  0  0  0  0  0  0  0
    2.4525   -2.0497    0.0000 O   0  0  0  0  0  0  0  0  0
    1.0236   -2.0497    0.0000 C   0  0  0  0  0  0  0  0  0
    1.0236   -2.8747    0.0000 N   0  0  0  0  0  0  0  0  0
  1  2  1  0  0  0  0
  2  3  4  0  0  0  0
  2  7  4  0  0  0  0
  3  4  4  0  0  0  0
  4  5  4  0  0  0  0
  4  9  1  0  0  0  0
  5  6  4  0  0  0  0
  6  7  4  0  0  0  0
  7  8  1  0  0  0  0
  9 10  1  0  0  0  0
  9 11  1  0  0  0  0
 11 12  1  0  0  0  0
M  END
>  <Name_Molregno>
NOREPINEPHRINE

>  <5-HT1A>
5

>  <5-HT2A>
5

>  <5-HT3>
5

>  <5-HT7>
5

>  <Alpha-1A>
5.33

>  <Alpha-1B>
5.1

>  <Alpha-2A>
6.32

>  <Alpha-2B>
6.02

>  <Alpha-2C>
6.43

>  <Beta-1>
5.45

>  <Beta-2>
4.9

>  <DOPAMINE D1>
5

>  <DOPAMINE D2>
5

>  <DOPAMINE D5>
5

>  <Dopamine transporter>
5.02

$$$$
Norfenfluramine
  Marvin  02231216192D 0   1.00000     0.00000     0

 14 14  0  0  1  0  0  0  0  0999 V2000
    0.4631   -1.9707    0.0000 F   0  0  0  0  0  0  0  0  0
    1.1776   -1.5582    0.0000 C   0  0  0  0  0  0  0  0  0
    1.5901   -2.2727    0.0000 F   0  0  0  0  0  0  0  0  0
    0.7651   -0.8437    0.0000 F   0  0  0  0  0  0  0  0  0
    1.8921   -1.1457    0.0000 C   0  0  0  0  0  0  0  0  0
    1.8921   -0.3207    0.0000 C   0  0  0  0  0  0  0  0  0
    2.6065    0.0918    0.0000 C   0  0  0  0  0  0  0  0  0
    3.3210   -0.3207    0.0000 C   0  0  0  0  0  0  0  0  0
    3.3210   -1.1457    0.0000 C   0  0  0  0  0  0  0  0  0
    2.6065   -1.5582    0.0000 C   0  0  0  0  0  0  0  0  0
    2.6065    0.9168    0.0000 C   0  0  0  0  0  0  0  0  0
    3.3210    1.3293    0.0000 C   0  0  0  0  0  0  0  0  0
    3.3210    2.1543    0.0000 N   0  0  0  0  0  0  0  0  0
    4.0355    0.9168    0.0000 C   0  0  0  0  0  0  0  0  0
  1  2  1  0  0  0  0
  2  3  1  0  0  0  0
  2  4  1  0  0  0  0
  2  5  1  0  0  0  0
  5  6  4  0  0  0  0
  5 10  4  0  0  0  0
  6  7  4  0  0  0  0
  7  8  4  0  0  0  0
  7 11  1  0  0  0  0
  8  9  4  0  0  0  0
  9 10  4  0  0  0  0
 11 12  1  0  0  0  0
 12 13  1  0  0  0  0
 12 14  1  0  0  0  0
M  END
>  <Name_Molregno>
Norfenfluramine

>  <5-HT1A>
5.77

>  <5-HT1B>
5.57

>  <5-HT1D>
5.88

>  <5-HT1E>
5

>  <5-HT3>
5

>  <5-HT5>
5

>  <5-HT6>
5

>  <5-HT7>
6.44

>  <Alpha-1A>
5.11

>  <Alpha-1B>
5

>  <Alpha-2A>
5.42

>  <Alpha-2B>
5.75

>  <Alpha-2C>
6.08

>  <Beta-1>
5

>  <Beta-2>
5

>  <DOPAMINE D1>
5

>  <DOPAMINE D2>
5

>  <DOPAMINE D4>
5

>  <DOPAMINE D5>
5

>  <Dopamine transporter>
5

>  <HISTAMINE H1>
5

>  <HISTAMINE H2>
5

>  <Muscarinic acetylcholine receptor M1>
5.42

>  <Muscarinic acetylcholine receptor M2>
5.24

>  <Muscarinic acetylcholine receptor M3>
6.04

>  <Muscarinic acetylcholine receptor M4>
5.31

>  <Muscarinic acetylcholine receptor M5>
5.78

>  <Norepinephrine transporter>
5

>  <Serotonin transporter>
5

$$$$
NPA
  Marvin  02231216192D 0   1.00000     0.00000     0

 22 24  0  0  0  0  0  0  0  0999 V2000
    4.3238   -1.8089    0.0000 O   0  0  0  0  0  0  0  0  0
    3.6094   -1.3964    0.0000 C   0  0  0  0  0  0  0  0  0
    3.6094   -0.5714    0.0000 O   0  0  0  0  0  0  0  0  0
    2.8949   -1.8089    0.0000 C   0  0  0  0  0  0  0  0  0
    2.8949   -2.6339    0.0000 C   0  0  0  0  0  0  0  0  0
    2.1804   -3.0464    0.0000 C   0  0  0  0  0  0  0  0  0
    1.4659   -2.6339    0.0000 C   0  0  0  0  0  0  0  0  0
    1.4659   -1.8089    0.0000 C   0  0  0  0  0  0  0  0  0
    2.1804   -1.3964    0.0000 C   0  0  0  0  0  0  0  0  0
    2.1804   -0.5714    0.0000 C   0  0  0  0  0  0  0  0  0
    1.4659   -0.1589    0.0000 O   0  0  0  0  0  0  0  0  0
    2.8949   -0.1589    0.0000 N   0  0  0  0  0  0  0  0  0
    2.8949    0.6661    0.0000 C   0  0  0  0  0  0  0  0  0
    3.6094    1.0786    0.0000 C   0  0  0  0  0  0  0  0  0
    3.6094    1.9036    0.0000 C   0  0  0  0  0  0  0  0  0
    2.8949    2.3161    0.0000 C   0  0  0  0  0  0  0  0  0
    2.1804    1.9036    0.0000 C   0  0  0  0  0  0  0  0  0
    2.1804    1.0786    0.0000 C   0  0  0  0  0  0  0  0  0
    4.3238    2.3161    0.0000 C   0  0  0  0  0  0  0  0  0
    5.0383    1.9036    0.0000 C   0  0  0  0  0  0  0  0  0
    5.0383    1.0786    0.0000 C   0  0  0  0  0  0  0  0  0
    4.3238    0.6661    0.0000 C   0  0  0  0  0  0  0  0  0
  1  2  1  0  0  0  0
  2  3  2  0  0  0  0
  2  4  1  0  0  0  0
  4  5  4  0  0  0  0
  4  9  4  0  0  0  0
  5  6  4  0  0  0  0
  6  7  4  0  0  0  0
  7  8  4  0  0  0  0
  8  9  4  0  0  0  0
  9 10  1  0  0  0  0
 10 11  2  0  0  0  0
 10 12  1  0  0  0  0
 12 13  1  0  0  0  0
 13 14  4  0  0  0  0
 13 18  4  0  0  0  0
 14 15  4  0  0  0  0
 14 22  4  0  0  0  0
 15 16  4  0  0  0  0
 15 19  4  0  0  0  0
 16 17  4  0  0  0  0
 17 18  4  0  0  0  0
 19 20  4  0  0  0  0
 20 21  4  0  0  0  0
 21 22  4  0  0  0  0
M  END
>  <Name_Molregno>
NPA

>  <DOPAMINE D1>
5.77

>  <DOPAMINE D2>
6.42

>  <DOPAMINE D4>
7.74

>  <DOPAMINE D5>
5.94

$$$$
OLANZAPINE
  Marvin  02231216192D 0   1.00000     0.00000     0

 22 25  0  0  0  0  0  0  0  0999 V2000
   -1.5954    3.4952    0.0000 S   0  0  0  0  0  0  0  0  0
   -0.8919    3.0642    0.0000 C   0  0  0  0  0  0  0  0  0
   -0.1447    3.4138    0.0000 N   0  0  0  0  0  0  0  0  0
    0.5946    3.0476    0.0000 C   0  0  0  0  0  0  0  0  0
    0.7691    2.2413    0.0000 C   0  0  0  0  0  0  0  0  0
    0.2476    1.6020    0.0000 N   0  0  0  0  0  0  0  0  0
   -0.5774    1.6113    0.0000 C   0  0  0  0  0  0  0  0  0
   -0.9436    0.8720    0.0000 N   0  0  0  0  0  0  0  0  0
   -0.4865    0.1852    0.0000 C   0  0  0  0  0  0  0  0  0
   -0.8527   -0.5540    0.0000 C   0  0  0  0  0  0  0  0  0
   -1.6761   -0.6065    0.0000 N   0  0  0  0  0  0  0  0  0
   -2.1332    0.0803    0.0000 C   0  0  0  0  0  0  0  0  0
   -1.7669    0.8196    0.0000 C   0  0  0  0  0  0  0  0  0
   -2.0423   -1.3458    0.0000 C   0  0  0  0  0  0  0  0  0
   -1.0845    2.2620    0.0000 C   0  0  0  0  0  0  0  0  0
   -1.9069    2.1972    0.0000 C   0  0  0  0  0  0  0  0  0
   -2.2227    2.9594    0.0000 C   0  0  0  0  0  0  0  0  0
   -3.0249    3.1520    0.0000 C   0  0  0  0  0  0  0  0  0
    1.5547    1.9893    0.0000 C   0  0  0  0  0  0  0  0  0
    2.1657    2.5436    0.0000 C   0  0  0  0  0  0  0  0  0
    1.9912    3.3499    0.0000 C   0  0  0  0  0  0  0  0  0
    1.2056    3.6019    0.0000 C   0  0  0  0  0  0  0  0  0
  1  2  1  0  0  0  0
  1 17  1  0  0  0  0
  2  3  2  0  0  0  0
  2 15  1  0  0  0  0
  3  4  1  0  0  0  0
  4  5  4  0  0  0  0
  4 22  4  0  0  0  0
  5  6  1  0  0  0  0
  5 19  4  0  0  0  0
  6  7  1  0  0  0  0
  7  8  1  0  0  0  0
  7 15  2  0  0  0  0
  8  9  1  0  0  0  0
  8 13  1  0  0  0  0
  9 10  1  0  0  0  0
 10 11  1  0  0  0  0
 11 12  1  0  0  0  0
 11 14  1  0  0  0  0
 12 13  1  0  0  0  0
 15 16  1  0  0  0  0
 16 17  2  0  0  0  0
 17 18  1  0  0  0  0
 19 20  4  0  0  0  0
 20 21  4  0  0  0  0
 21 22  4  0  0  0  0
M  END
>  <Name_Molregno>
OLANZAPINE

>  <5-HT1A>
5.77

>  <5-HT1B>
6.23

>  <5-HT1D>
6.3

>  <5-HT1E>
5.66

>  <5-HT2A>
8.46

>  <5-HT2C>
7.86

>  <5-HT3>
6.69

>  <5-HT5>
5.92

>  <5-HT6>
7.97

>  <5-HT7>
6.73

>  <Alpha-1A>
6.95

>  <Alpha-1B>
6.58

>  <Alpha-2A>
6.51

>  <Alpha-2B>
6.97

>  <Alpha-2C>
7.21

>  <Beta-1>
5.15

>  <Beta-2>
5.15

>  <DOPAMINE D1>
7.3

>  <DOPAMINE D2>
7.67

>  <DOPAMINE D3>
7.53

>  <DOPAMINE D4>
7.73

>  <DOPAMINE D5>
7.09

>  <Dopamine transporter>
5

>  <HISTAMINE H1>
8.96

>  <HISTAMINE H2>
7.36

>  <HISTAMINE H4>
5

>  <Muscarinic acetylcholine receptor M1>
7.99

>  <Muscarinic acetylcholine receptor M2>
6.93

>  <Muscarinic acetylcholine receptor M3>
7.33

>  <Muscarinic acetylcholine receptor M4>
7.35

>  <Muscarinic acetylcholine receptor M5>
7.78

>  <Norepinephrine transporter>
5

>  <Serotonin transporter>
5.48

$$$$
OLANZAPINE-2
  Marvin  02231216192D 0   1.00000     0.00000     0

 22 25  0  0  0  0  0  0  0  0999 V2000
   -1.5954    3.4952    0.0000 S   0  0  0  0  0  0  0  0  0
   -0.8919    3.0642    0.0000 C   0  0  0  0  0  0  0  0  0
   -0.1447    3.4138    0.0000 N   0  0  0  0  0  0  0  0  0
    0.5946    3.0476    0.0000 C   0  0  0  0  0  0  0  0  0
    0.7691    2.2413    0.0000 C   0  0  0  0  0  0  0  0  0
    0.2476    1.6020    0.0000 N   0  0  0  0  0  0  0  0  0
   -0.5774    1.6113    0.0000 C   0  0  0  0  0  0  0  0  0
   -0.9436    0.8720    0.0000 N   0  0  0  0  0  0  0  0  0
   -0.4865    0.1852    0.0000 C   0  0  0  0  0  0  0  0  0
   -0.8527   -0.5540    0.0000 C   0  0  0  0  0  0  0  0  0
   -1.6761   -0.6065    0.0000 N   0  0  0  0  0  0  0  0  0
   -2.1332    0.0803    0.0000 C   0  0  0  0  0  0  0  0  0
   -1.7669    0.8196    0.0000 C   0  0  0  0  0  0  0  0  0
   -2.0423   -1.3458    0.0000 C   0  0  0  0  0  0  0  0  0
   -1.0845    2.2620    0.0000 C   0  0  0  0  0  0  0  0  0
   -1.9069    2.1972    0.0000 C   0  0  0  0  0  0  0  0  0
   -2.2227    2.9594    0.0000 C   0  0  0  0  0  0  0  0  0
   -3.0249    3.1520    0.0000 C   0  0  0  0  0  0  0  0  0
    1.5547    1.9893    0.0000 C   0  0  0  0  0  0  0  0  0
    2.1657    2.5436    0.0000 C   0  0  0  0  0  0  0  0  0
    1.9912    3.3499    0.0000 C   0  0  0  0  0  0  0  0  0
    1.2056    3.6019    0.0000 C   0  0  0  0  0  0  0  0  0
  1  2  4  0  0  0  0
  1 17  4  0  0  0  0
  2  3  1  0  0  0  0
  2 15  4  0  0  0  0
  3  4  1  0  0  0  0
  4  5  4  0  0  0  0
  4 22  4  0  0  0  0
  5  6  1  0  0  0  0
  5 19  4  0  0  0  0
  6  7  2  0  0  0  0
  7  8  1  0  0  0  0
  7 15  1  0  0  0  0
  8  9  1  0  0  0  0
  8 13  1  0  0  0  0
  9 10  1  0  0  0  0
 10 11  1  0  0  0  0
 11 12  1  0  0  0  0
 11 14  1  0  0  0  0
 12 13  1  0  0  0  0
 15 16  4  0  0  0  0
 16 17  4  0  0  0  0
 17 18  1  0  0  0  0
 19 20  4  0  0  0  0
 20 21  4  0  0  0  0
 21 22  4  0  0  0  0
M  END
>  <Name_Molregno>
OLANZAPINE-2

>  <5-HT1A>
5.68

>  <5-HT2A>
8.66

>  <5-HT2C>
8.05

>  <5-HT3>
6.7

>  <5-HT6>
7.8

>  <5-HT7>
6.77

>  <Alpha-2A>
6.72

>  <Alpha-2C>
7.09

>  <DOPAMINE D1>
7.28

>  <DOPAMINE D2>
7.63

>  <DOPAMINE D3>
7.47

>  <DOPAMINE D4>
7.3

>  <HISTAMINE H1>
8.74

>  <Muscarinic acetylcholine receptor M1>
8.16

>  <Muscarinic acetylcholine receptor M4>
7.9

>  <Serotonin transporter>
4.82

$$$$
ONDANSETRON
  Marvin  02231216192D 0   1.00000     0.00000     0

 22 25  0  0  1  0  0  0  0  0999 V2000
   -0.0587   -2.1575    0.0000 O   0  0  0  0  0  0  0  0  0
    0.1963   -1.3729    0.0000 C   0  0  0  0  0  0  0  0  0
   -0.3558   -0.7598    0.0000 C   0  0  0  0  0  0  0  0  0
   -0.1008    0.0249    0.0000 C   0  0  0  0  0  0  0  0  0
   -0.7683    0.5098    0.0000 N   0  0  0  0  0  0  0  0  0
   -1.4357    0.0249    0.0000 C   0  0  0  0  0  0  0  0  0
   -1.1808   -0.7598    0.0000 C   0  0  0  0  0  0  0  0  0
   -1.7328   -1.3729    0.0000 C   0  0  0  0  0  0  0  0  0
   -2.5398   -1.2013    0.0000 C   0  0  0  0  0  0  0  0  0
   -2.7947   -0.4167    0.0000 C   0  0  0  0  0  0  0  0  0
   -2.2427    0.1964    0.0000 C   0  0  0  0  0  0  0  0  0
   -0.7683    1.3348    0.0000 C   0  0  0  0  0  0  0  0  0
    0.7061    0.1964    0.0000 C   0  0  0  0  0  0  0  0  0
    1.2582   -0.4167    0.0000 C   0  0  0  0  0  0  0  0  0
    1.0032   -1.2013    0.0000 C   0  0  0  0  0  0  0  0  0
    1.5553   -1.8144    0.0000 C   0  0  0  0  0  0  0  0  0
    1.3003   -2.5990    0.0000 N   0  0  0  0  0  0  0  0  0
    0.5157   -2.8540    0.0000 C   0  0  0  0  0  0  0  0  0
    0.5157   -3.6790    0.0000 C   0  0  0  0  0  0  0  0  0
    1.3003   -3.9339    0.0000 N   0  0  0  0  0  0  0  0  0
    1.7853   -3.2665    0.0000 C   0  0  0  0  0  0  0  0  0
    2.6103   -3.2665    0.0000 C   0  0  0  0  0  0  0  0  0
  1  2  2  0  0  0  0
  2  3  1  0  0  0  0
  2 15  1  0  0  0  0
  3  4  4  0  0  0  0
  3  7  4  0  0  0  0
  4  5  4  0  0  0  0
  4 13  1  0  0  0  0
  5  6  4  0  0  0  0
  5 12  1  0  0  0  0
  6  7  4  0  0  0  0
  6 11  4  0  0  0  0
  7  8  4  0  0  0  0
  8  9  4  0  0  0  0
  9 10  4  0  0  0  0
 10 11  4  0  0  0  0
 13 14  1  0  0  0  0
 14 15  1  0  0  0  0
 15 16  1  0  0  0  0
 16 17  1  0  0  0  0
 17 18  4  0  0  0  0
 17 21  4  0  0  0  0
 18 19  4  0  0  0  0
 19 20  4  0  0  0  0
 20 21  4  0  0  0  0
 21 22  1  0  0  0  0
M  END
>  <Name_Molregno>
ONDANSETRON

>  <5-HT1A>
5

>  <5-HT3>
8.15

>  <DOPAMINE D1>
5

>  <DOPAMINE D2>
5

$$$$
ORG-5222
  Marvin  02231216192D 0   1.00000     0.00000     0

 20 23  0  0  1  0  0  0  0  0999 V2000
   -0.0754   -0.1702    0.0000 Cl  0  0  0  0  0  0  0  0  0
    0.7129   -0.4133    0.0000 C   0  0  0  0  0  0  0  0  0
    1.3177    0.1478    0.0000 C   0  0  0  0  0  0  0  0  0
    2.1060   -0.0954    0.0000 C   0  0  0  0  0  0  0  0  0
    2.6204    0.5496    0.0000 C   0  0  0  0  0  0  0  0  0
    3.4454    0.5496    0.0000 C   0  0  0  0  0  0  0  0  0
    3.9598   -0.0954    0.0000 C   0  0  0  0  0  0  0  0  0
    3.7762   -0.8997    0.0000 C   0  0  0  0  0  0  0  0  0
    3.0329   -1.2576    0.0000 O   0  0  0  0  0  0  0  0  0
    2.2896   -0.8997    0.0000 C   0  0  0  0  0  0  0  0  0
    1.6849   -1.4608    0.0000 C   0  0  0  0  0  0  0  0  0
    0.8965   -1.2176    0.0000 C   0  0  0  0  0  0  0  0  0
    4.3810   -1.4608    0.0000 C   0  0  0  0  0  0  0  0  0
    5.1693   -1.2176    0.0000 C   0  0  0  0  0  0  0  0  0
    5.3529   -0.4133    0.0000 C   0  0  0  0  0  0  0  0  0
    4.7482    0.1478    0.0000 C   0  0  0  0  0  0  0  0  0
    3.7004    1.3343    0.0000 C   0  0  0  0  0  0  0  0  0
    3.0329    1.8192    0.0000 N   0  0  0  0  0  0  0  0  0
    2.3655    1.3343    0.0000 C   0  0  0  0  0  0  0  0  0
    3.0329    2.6442    0.0000 C   0  0  0  0  0  0  0  0  0
  1  2  1  0  0  0  0
  2  3  4  0  0  0  0
  2 12  4  0  0  0  0
  3  4  4  0  0  0  0
  4  5  1  0  0  0  0
  4 10  4  0  0  0  0
  5  6  1  0  0  0  0
  5 19  1  0  0  0  0
  6  7  1  0  0  0  0
  6 17  1  0  0  0  0
  7  8  4  0  0  0  0
  7 16  4  0  0  0  0
  8  9  1  0  0  0  0
  8 13  4  0  0  0  0
  9 10  1  0  0  0  0
 10 11  4  0  0  0  0
 11 12  4  0  0  0  0
 13 14  4  0  0  0  0
 14 15  4  0  0  0  0
 15 16  4  0  0  0  0
 17 18  1  0  0  0  0
 18 19  1  0  0  0  0
 18 20  1  0  0  0  0
M  END
>  <Name_Molregno>
ORG-5222

>  <5-HT1A>
7.7

>  <5-HT1B>
8.34

>  <5-HT1D>
8.07

>  <5-HT1E>
7.69

>  <5-HT2A>
9.41

>  <5-HT2C>
9.63

>  <5-HT3>
6.35

>  <5-HT5>
8.4

>  <5-HT6>
8.85

>  <5-HT7>
9.05

>  <Alpha-1A>
8.36

>  <Alpha-1B>
8.41

>  <Alpha-2A>
8.08

>  <Alpha-2B>
8.64

>  <Alpha-2C>
7.82

>  <Beta-1>
5.3

>  <Beta-2>
5.3

>  <DOPAMINE D1>
8.54

>  <DOPAMINE D2>
8.72

>  <DOPAMINE D3>
8.74

>  <DOPAMINE D4>
8.58

>  <DOPAMINE D5>
7.64

>  <Dopamine transporter>
5.5

>  <HISTAMINE H1>
8.91

>  <HISTAMINE H2>
8.64

>  <HISTAMINE H4>
5

>  <Muscarinic acetylcholine receptor M1>
7.61

>  <Muscarinic acetylcholine receptor M2>
7.1

>  <Muscarinic acetylcholine receptor M3>
7.41

>  <Muscarinic acetylcholine receptor M4>
5

>  <Muscarinic acetylcholine receptor M5>
8.02

>  <Norepinephrine transporter>
5

>  <Serotonin transporter>
5.5

$$$$
PARECOXIB
  Marvin  02231216192D 0   1.00000     0.00000     0

 26 28  0  0  0  0  0  0  0  0999 V2000
    3.2898   -1.2399    0.0000 S   0  0  0  0  0  0  0  0  0
    3.7023   -0.5254    0.0000 O   0  0  0  0  0  0  0  0  0
    2.8773   -1.9544    0.0000 O   0  0  0  0  0  0  0  0  0
    4.0042   -1.6524    0.0000 N   0  0  0  0  0  0  0  0  0
    4.7187   -1.2399    0.0000 C   0  0  0  0  0  0  0  0  0
    4.7187   -0.4149    0.0000 O   0  0  0  0  0  0  0  0  0
    5.4332   -1.6524    0.0000 C   0  0  0  0  0  0  0  0  0
    6.1476   -1.2399    0.0000 C   0  0  0  0  0  0  0  0  0
    2.5753   -0.8274    0.0000 C   0  0  0  0  0  0  0  0  0
    1.8608   -1.2399    0.0000 C   0  0  0  0  0  0  0  0  0
    1.1463   -0.8274    0.0000 C   0  0  0  0  0  0  0  0  0
    1.1463   -0.0024    0.0000 C   0  0  0  0  0  0  0  0  0
    1.8608    0.4101    0.0000 C   0  0  0  0  0  0  0  0  0
    2.5753   -0.0024    0.0000 C   0  0  0  0  0  0  0  0  0
    0.4319    0.4101    0.0000 C   0  0  0  0  0  0  0  0  0
   -0.3218    0.0745    0.0000 C   0  0  0  0  0  0  0  0  0
   -0.8738    0.6876    0.0000 N   0  0  0  0  0  0  0  0  0
   -0.4613    1.4021    0.0000 O   0  0  0  0  0  0  0  0  0
    0.3456    1.2306    0.0000 C   0  0  0  0  0  0  0  0  0
    0.9587    1.7826    0.0000 C   0  0  0  0  0  0  0  0  0
   -0.4933   -0.7324    0.0000 C   0  0  0  0  0  0  0  0  0
    0.1198   -1.2845    0.0000 C   0  0  0  0  0  0  0  0  0
   -0.0518   -2.0914    0.0000 C   0  0  0  0  0  0  0  0  0
   -0.8364   -2.3464    0.0000 C   0  0  0  0  0  0  0  0  0
   -1.4495   -1.7943    0.0000 C   0  0  0  0  0  0  0  0  0
   -1.2779   -0.9874    0.0000 C   0  0  0  0  0  0  0  0  0
  1  2  2  0  0  0  0
  1  3  2  0  0  0  0
  1  4  1  0  0  0  0
  1  9  1  0  0  0  0
  4  5  1  0  0  0  0
  5  6  2  0  0  0  0
  5  7  1  0  0  0  0
  7  8  1  0  0  0  0
  9 10  4  0  0  0  0
  9 14  4  0  0  0  0
 10 11  4  0  0  0  0
 11 12  4  0  0  0  0
 12 13  4  0  0  0  0
 12 15  1  0  0  0  0
 13 14  4  0  0  0  0
 15 16  4  0  0  0  0
 15 19  4  0  0  0  0
 16 17  4  0  0  0  0
 16 21  1  0  0  0  0
 17 18  4  0  0  0  0
 18 19  4  0  0  0  0
 19 20  1  0  0  0  0
 21 22  4  0  0  0  0
 21 26  4  0  0  0  0
 22 23  4  0  0  0  0
 23 24  4  0  0  0  0
 24 25  4  0  0  0  0
 25 26  4  0  0  0  0
M  END
>  <Name_Molregno>
PARECOXIB

>  <5-HT1A>
5

>  <5-HT1B>
5

>  <5-HT1D>
5

>  <5-HT1E>
5

>  <5-HT2A>
5

>  <5-HT3>
5

>  <5-HT6>
5

>  <5-HT7>
5

>  <Alpha-1A>
5

>  <Alpha-1B>
5

>  <Alpha-2A>
5

>  <Alpha-2B>
5

>  <Alpha-2C>
5

>  <DOPAMINE D1>
5

>  <DOPAMINE D2>
5

>  <DOPAMINE D4>
5

>  <DOPAMINE D5>
5

>  <Dopamine transporter>
5

>  <HISTAMINE H1>
5

>  <HISTAMINE H2>
5

>  <HISTAMINE H4>
5

>  <Muscarinic acetylcholine receptor M2>
5

>  <Muscarinic acetylcholine receptor M5>
5

>  <Norepinephrine transporter>
5

>  <Serotonin transporter>
5

$$$$
PBR28
  Marvin  02231216192D 0   1.00000     0.00000     0

 26 28  0  0  0  0  0  0  0  0999 V2000
    0.4191    0.0796    0.0000 O   0  0  0  0  0  0  0  0  0
    0.4191   -0.7454    0.0000 C   0  0  0  0  0  0  0  0  0
    1.1336   -1.1579    0.0000 C   0  0  0  0  0  0  0  0  0
    1.1336   -1.9829    0.0000 C   0  0  0  0  0  0  0  0  0
    0.4191   -2.3954    0.0000 C   0  0  0  0  0  0  0  0  0
   -0.2953   -1.9829    0.0000 C   0  0  0  0  0  0  0  0  0
   -0.2953   -1.1579    0.0000 C   0  0  0  0  0  0  0  0  0
   -1.0098   -0.7454    0.0000 N   0  0  0  0  0  0  0  0  0
   -1.7243   -1.1579    0.0000 C   0  0  0  0  0  0  0  0  0
   -2.4387   -0.7454    0.0000 C   0  0  0  0  0  0  0  0  0
   -2.4387    0.0796    0.0000 C   0  0  0  0  0  0  0  0  0
   -3.1532    0.4921    0.0000 C   0  0  0  0  0  0  0  0  0
   -3.8677    0.0796    0.0000 C   0  0  0  0  0  0  0  0  0
   -3.8677   -0.7454    0.0000 C   0  0  0  0  0  0  0  0  0
   -3.1532   -1.1579    0.0000 C   0  0  0  0  0  0  0  0  0
   -3.1532   -1.9829    0.0000 O   0  0  0  0  0  0  0  0  0
   -3.8677   -2.3954    0.0000 C   0  0  0  0  0  0  0  0  0
   -1.0098    0.0796    0.0000 C   0  0  0  0  0  0  0  0  0
   -1.7243    0.4921    0.0000 O   0  0  0  0  0  0  0  0  0
   -0.2953    0.4921    0.0000 C   0  0  0  0  0  0  0  0  0
    1.1336    0.4921    0.0000 C   0  0  0  0  0  0  0  0  0
    1.1336    1.3171    0.0000 C   0  0  0  0  0  0  0  0  0
    1.8481    1.7296    0.0000 C   0  0  0  0  0  0  0  0  0
    2.5626    1.3171    0.0000 C   0  0  0  0  0  0  0  0  0
    2.5626    0.4921    0.0000 C   0  0  0  0  0  0  0  0  0
    1.8481    0.0796    0.0000 C   0  0  0  0  0  0  0  0  0
  1  2  1  0  0  0  0
  1 21  1  0  0  0  0
  2  3  4  0  0  0  0
  2  7  4  0  0  0  0
  3  4  4  0  0  0  0
  4  5  4  0  0  0  0
  5  6  4  0  0  0  0
  6  7  4  0  0  0  0
  7  8  1  0  0  0  0
  8  9  1  0  0  0  0
  8 18  1  0  0  0  0
  9 10  1  0  0  0  0
 10 11  4  0  0  0  0
 10 15  4  0  0  0  0
 11 12  4  0  0  0  0
 12 13  4  0  0  0  0
 13 14  4  0  0  0  0
 14 15  4  0  0  0  0
 15 16  1  0  0  0  0
 16 17  1  0  0  0  0
 18 19  2  0  0  0  0
 18 20  1  0  0  0  0
 21 22  4  0  0  0  0
 21 26  4  0  0  0  0
 22 23  4  0  0  0  0
 23 24  4  0  0  0  0
 24 25  4  0  0  0  0
 25 26  4  0  0  0  0
M  END
>  <Name_Molregno>
PBR28

>  <5-HT1A>
5

>  <5-HT1B>
5

>  <5-HT1D>
5

>  <5-HT1E>
5

>  <5-HT2A>
5

>  <5-HT3>
5

>  <5-HT5>
5

>  <5-HT6>
5

>  <5-HT7>
5

>  <Alpha-1A>
5

>  <Alpha-1B>
5

>  <Alpha-2A>
5

>  <Alpha-2B>
5

>  <Alpha-2C>
5

>  <Beta-1>
5

>  <Beta-2>
5

>  <DOPAMINE D1>
5

>  <DOPAMINE D2>
5

>  <DOPAMINE D4>
5

>  <Dopamine transporter>
5

>  <HISTAMINE H1>
5

>  <HISTAMINE H2>
5

>  <HISTAMINE H4>
5

>  <Muscarinic acetylcholine receptor M2>
5

>  <Muscarinic acetylcholine receptor M5>
5

>  <Norepinephrine transporter>
5

>  <Serotonin transporter>
5

$$$$
PERGOLIDE
  Marvin  02231216192D 0   1.00000     0.00000     0

 22 25  0  0  1  0  0  0  0  0999 V2000
    2.3775   -0.9399    0.0000 S   0  0  0  0  0  0  0  0  0
    1.6635   -0.5265    0.0000 C   0  0  0  0  0  0  0  0  0
    1.6645    0.2985    0.0000 C   0  0  0  0  0  0  0  0  0
    2.3795    0.7101    0.0000 C   0  0  0  0  0  0  0  0  0
    2.3805    1.5351    0.0000 C   0  0  0  0  0  0  0  0  0
    1.6665    1.9485    0.0000 C   0  0  0  0  0  0  0  0  0
    0.9515    1.5368    0.0000 N   0  0  0  0  0  0  0  0  0
    0.9505    0.7118    0.0000 C   0  0  0  0  0  0  0  0  0
    0.2376    1.9502    0.0000 C   0  0  0  0  0  0  0  0  0
   -0.4774    1.5385    0.0000 C   0  0  0  0  0  0  0  0  0
   -1.1914    1.9519    0.0000 C   0  0  0  0  0  0  0  0  0
    1.6680    2.7726    0.0000 C   0  0  0  0  0  0  0  0  0
    2.3805    3.1851    0.0000 C   0  0  0  0  0  0  0  0  0
    3.0930    2.7726    0.0000 C   0  0  0  0  0  0  0  0  0
    3.0930    1.9476    0.0000 C   0  0  0  0  0  0  0  0  0
    3.8108    1.5351    0.0000 C   0  0  0  0  0  0  0  0  0
    4.5233    1.9476    0.0000 C   0  0  0  0  0  0  0  0  0
    4.5233    2.7726    0.0000 C   0  0  0  0  0  0  0  0  0
    3.8108    3.1851    0.0000 C   0  0  0  0  0  0  0  0  0
    3.5055    4.0422    0.0000 N   0  0  0  0  0  0  0  0  0
    2.6805    4.0422    0.0000 C   0  0  0  0  0  0  0  0  0
    2.3765   -1.7649    0.0000 C   0  0  0  0  0  0  0  0  0
  1  2  1  0  0  0  0
  1 22  1  0  0  0  0
  2  3  1  0  0  0  0
  3  4  1  0  0  0  0
  3  8  1  0  0  0  0
  4  5  1  0  0  0  0
  5  6  1  0  0  0  0
  5 15  1  0  0  0  0
  6  7  1  0  0  0  0
  6 12  1  0  0  0  0
  7  8  1  0  0  0  0
  7  9  1  0  0  0  0
  9 10  1  0  0  0  0
 10 11  1  0  0  0  0
 12 13  1  0  0  0  0
 13 14  4  0  0  0  0
 13 21  4  0  0  0  0
 14 15  4  0  0  0  0
 14 19  4  0  0  0  0
 15 16  4  0  0  0  0
 16 17  4  0  0  0  0
 17 18  4  0  0  0  0
 18 19  4  0  0  0  0
 19 20  4  0  0  0  0
 20 21  4  0  0  0  0
M  STY  1   1 DAT
M  SAL   1  1  20
M  SDT   1 MRV_IMPLICIT_H                                        
M  SDD   1     0.0000    0.0000    DR    ALL  0       0  
M  SED   1 IMPL_H1
M  END
>  <Name_Molregno>
PERGOLIDE

>  <5-HT1A>
8.56

>  <5-HT1B>
6.55

>  <5-HT1D>
7.88

>  <5-HT2A>
8.08

>  <5-HT2C>
6.53

>  <Alpha-1A>
5.98

>  <Alpha-1B>
6.16

>  <Alpha-2A>
7.3

>  <Alpha-2B>
7.49

>  <Alpha-2C>
7.17

>  <Beta-1>
5

>  <Beta-2>
5

>  <DOPAMINE D1>
6.17

>  <DOPAMINE D2>
7.8

>  <DOPAMINE D3>
8.59

>  <DOPAMINE D4>
7.25

>  <DOPAMINE D5>
6.76

$$$$
PHENTOLAMINE
  Marvin  02231216192D 0   1.00000     0.00000     0

 21 23  0  0  0  0  0  0  0  0999 V2000
    4.7921    2.7933    0.0000 O   0  0  0  0  0  0  0  0  0
    4.0777    2.3808    0.0000 C   0  0  0  0  0  0  0  0  0
    4.0777    1.5558    0.0000 C   0  0  0  0  0  0  0  0  0
    3.3632    1.1433    0.0000 C   0  0  0  0  0  0  0  0  0
    3.3632    0.3183    0.0000 N   0  0  0  0  0  0  0  0  0
    4.0777   -0.0942    0.0000 C   0  0  0  0  0  0  0  0  0
    4.0777   -0.9192    0.0000 C   0  0  0  0  0  0  0  0  0
    4.7451   -1.4042    0.0000 N   0  0  0  0  0  0  0  0  0
    4.4902   -2.1888    0.0000 C   0  0  0  0  0  0  0  0  0
    3.6652   -2.1888    0.0000 C   0  0  0  0  0  0  0  0  0
    3.4102   -1.4042    0.0000 N   0  0  0  0  0  0  0  0  0
    2.6487   -0.0942    0.0000 C   0  0  0  0  0  0  0  0  0
    2.6487   -0.9192    0.0000 C   0  0  0  0  0  0  0  0  0
    1.9343   -1.3317    0.0000 C   0  0  0  0  0  0  0  0  0
    1.2198   -0.9192    0.0000 C   0  0  0  0  0  0  0  0  0
    1.2198   -0.0942    0.0000 C   0  0  0  0  0  0  0  0  0
    1.9343    0.3183    0.0000 C   0  0  0  0  0  0  0  0  0
    0.5053   -1.3317    0.0000 C   0  0  0  0  0  0  0  0  0
    2.6487    1.5558    0.0000 C   0  0  0  0  0  0  0  0  0
    2.6487    2.3808    0.0000 C   0  0  0  0  0  0  0  0  0
    3.3632    2.7933    0.0000 C   0  0  0  0  0  0  0  0  0
  1  2  1  0  0  0  0
  2  3  4  0  0  0  0
  2 21  4  0  0  0  0
  3  4  4  0  0  0  0
  4  5  1  0  0  0  0
  4 19  4  0  0  0  0
  5  6  1  0  0  0  0
  5 12  1  0  0  0  0
  6  7  1  0  0  0  0
  7  8  1  0  0  0  0
  7 11  2  0  0  0  0
  8  9  1  0  0  0  0
  9 10  1  0  0  0  0
 10 11  1  0  0  0  0
 12 13  4  0  0  0  0
 12 17  4  0  0  0  0
 13 14  4  0  0  0  0
 14 15  4  0  0  0  0
 15 16  4  0  0  0  0
 15 18  1  0  0  0  0
 16 17  4  0  0  0  0
 19 20  4  0  0  0  0
 20 21  4  0  0  0  0
M  END
>  <Name_Molregno>
PHENTOLAMINE

>  <5-HT1A>
5.67

>  <5-HT2A>
5.61

>  <Alpha-1A>
8.39

>  <Alpha-1B>
7.32

>  <Alpha-2A>
8.07

>  <Alpha-2B>
7.82

>  <Alpha-2C>
7.59

>  <DOPAMINE D1>
5

>  <DOPAMINE D2>
5

>  <HISTAMINE H1>
5.4

$$$$
PIMOZIDE
  Marvin  02231216192D 0   1.00000     0.00000     0

 34 38  0  0  0  0  0  0  0  0999 V2000
    3.4878   -7.4849    0.0000 F   0  0  0  0  0  0  0  0  0
    3.7428   -6.7002    0.0000 C   0  0  0  0  0  0  0  0  0
    3.1908   -6.0871    0.0000 C   0  0  0  0  0  0  0  0  0
    3.4457   -5.3025    0.0000 C   0  0  0  0  0  0  0  0  0
    4.2527   -5.1310    0.0000 C   0  0  0  0  0  0  0  0  0
    4.8047   -5.7441    0.0000 C   0  0  0  0  0  0  0  0  0
    4.5498   -6.5287    0.0000 C   0  0  0  0  0  0  0  0  0
    4.5076   -4.3464    0.0000 C   0  0  0  0  0  0  0  0  0
    3.9556   -3.7333    0.0000 C   0  0  0  0  0  0  0  0  0
    4.2105   -2.9487    0.0000 C   0  0  0  0  0  0  0  0  0
    3.6585   -2.3356    0.0000 C   0  0  0  0  0  0  0  0  0
    3.9134   -1.5509    0.0000 N   0  0  0  0  0  0  0  0  0
    3.3614   -0.9378    0.0000 C   0  0  0  0  0  0  0  0  0
    3.6163   -0.1532    0.0000 C   0  0  0  0  0  0  0  0  0
    4.4233    0.0183    0.0000 C   0  0  0  0  0  0  0  0  0
    4.6782    0.8029    0.0000 N   0  0  0  0  0  0  0  0  0
    5.4629    1.0579    0.0000 C   0  0  0  0  0  0  0  0  0
    5.4629    1.8829    0.0000 C   0  0  0  0  0  0  0  0  0
    4.6782    2.1378    0.0000 N   0  0  0  0  0  0  0  0  0
    4.1933    1.4704    0.0000 C   0  0  0  0  0  0  0  0  0
    3.3683    1.4704    0.0000 O   0  0  0  0  0  0  0  0  0
    6.1773    2.2954    0.0000 C   0  0  0  0  0  0  0  0  0
    6.8918    1.8829    0.0000 C   0  0  0  0  0  0  0  0  0
    6.8918    1.0579    0.0000 C   0  0  0  0  0  0  0  0  0
    6.1773    0.6454    0.0000 C   0  0  0  0  0  0  0  0  0
    4.9753   -0.5948    0.0000 C   0  0  0  0  0  0  0  0  0
    4.7204   -1.3794    0.0000 C   0  0  0  0  0  0  0  0  0
    5.3146   -4.1748    0.0000 C   0  0  0  0  0  0  0  0  0
    5.5695   -3.3902    0.0000 C   0  0  0  0  0  0  0  0  0
    6.3765   -3.2187    0.0000 C   0  0  0  0  0  0  0  0  0
    6.9285   -3.8318    0.0000 C   0  0  0  0  0  0  0  0  0
    7.7355   -3.6603    0.0000 F   0  0  0  0  0  0  0  0  0
    6.6736   -4.6164    0.0000 C   0  0  0  0  0  0  0  0  0
    5.8666   -4.7879    0.0000 C   0  0  0  0  0  0  0  0  0
  1  2  1  0  0  0  0
  2  3  4  0  0  0  0
  2  7  4  0  0  0  0
  3  4  4  0  0  0  0
  4  5  4  0  0  0  0
  5  6  4  0  0  0  0
  5  8  1  0  0  0  0
  6  7  4  0  0  0  0
  8  9  1  0  0  0  0
  8 28  1  0  0  0  0
  9 10  1  0  0  0  0
 10 11  1  0  0  0  0
 11 12  1  0  0  0  0
 12 13  1  0  0  0  0
 12 27  1  0  0  0  0
 13 14  1  0  0  0  0
 14 15  1  0  0  0  0
 15 16  1  0  0  0  0
 15 26  1  0  0  0  0
 16 17  1  0  0  0  0
 16 20  1  0  0  0  0
 17 18  4  0  0  0  0
 17 25  4  0  0  0  0
 18 19  1  0  0  0  0
 18 22  4  0  0  0  0
 19 20  1  0  0  0  0
 20 21  2  0  0  0  0
 22 23  4  0  0  0  0
 23 24  4  0  0  0  0
 24 25  4  0  0  0  0
 26 27  1  0  0  0  0
 28 29  4  0  0  0  0
 28 34  4  0  0  0  0
 29 30  4  0  0  0  0
 30 31  4  0  0  0  0
 31 32  1  0  0  0  0
 31 33  4  0  0  0  0
 33 34  4  0  0  0  0
M  END
>  <Name_Molregno>
PIMOZIDE

>  <5-HT1A>
6.48

>  <5-HT1D>
5.51

>  <5-HT2A>
7.56

>  <5-HT2C>
5.92

>  <5-HT6>
7.15

>  <5-HT7>
9.3

>  <Alpha-1A>
6.7

>  <Alpha-2A>
5.8

>  <Alpha-2B>
6.09

>  <Alpha-2C>
6.42

>  <DOPAMINE D1>
5

>  <DOPAMINE D2>
8.86

>  <DOPAMINE D3>
9.05

>  <DOPAMINE D4>
8.74

>  <HISTAMINE H1>
6.88

>  <Muscarinic acetylcholine receptor M3>
5.71

$$$$
Piribedil
  Marvin  02231216192D 0   1.00000     0.00000     0

 22 25  0  0  0  0  0  0  0  0999 V2000
   -6.9931    0.7446    0.0000 O   0  0  0  0  0  0  0  0  0
   -6.2084    0.4897    0.0000 C   0  0  0  0  0  0  0  0  0
   -5.4940    0.9022    0.0000 C   0  0  0  0  0  0  0  0  0
   -4.7795    0.4897    0.0000 C   0  0  0  0  0  0  0  0  0
   -4.7795   -0.3353    0.0000 C   0  0  0  0  0  0  0  0  0
   -5.4940   -0.7478    0.0000 C   0  0  0  0  0  0  0  0  0
   -6.2084   -0.3353    0.0000 C   0  0  0  0  0  0  0  0  0
   -6.9931   -0.5902    0.0000 O   0  0  0  0  0  0  0  0  0
   -7.4780    0.0772    0.0000 C   0  0  0  0  0  0  0  0  0
   -4.0650    0.9022    0.0000 C   0  0  0  0  0  0  0  0  0
   -3.3506    0.4897    0.0000 N   0  0  0  0  0  0  0  0  0
   -2.6361    0.9022    0.0000 C   0  0  0  0  0  0  0  0  0
   -1.9216    0.4897    0.0000 C   0  0  0  0  0  0  0  0  0
   -1.9216   -0.3353    0.0000 N   0  0  0  0  0  0  0  0  0
   -2.6361   -0.7478    0.0000 C   0  0  0  0  0  0  0  0  0
   -3.3506   -0.3353    0.0000 C   0  0  0  0  0  0  0  0  0
   -1.2071   -0.7478    0.0000 C   0  0  0  0  0  0  0  0  0
   -0.4927   -0.3353    0.0000 N   0  0  0  0  0  0  0  0  0
    0.2218   -0.7478    0.0000 C   0  0  0  0  0  0  0  0  0
    0.2218   -1.5728    0.0000 C   0  0  0  0  0  0  0  0  0
   -0.4927   -1.9853    0.0000 C   0  0  0  0  0  0  0  0  0
   -1.2071   -1.5728    0.0000 N   0  0  0  0  0  0  0  0  0
  1  2  1  0  0  0  0
  1  9  1  0  0  0  0
  2  3  4  0  0  0  0
  2  7  4  0  0  0  0
  3  4  4  0  0  0  0
  4  5  4  0  0  0  0
  4 10  1  0  0  0  0
  5  6  4  0  0  0  0
  6  7  4  0  0  0  0
  7  8  1  0  0  0  0
  8  9  1  0  0  0  0
 10 11  1  0  0  0  0
 11 12  1  0  0  0  0
 11 16  1  0  0  0  0
 12 13  1  0  0  0  0
 13 14  1  0  0  0  0
 14 15  1  0  0  0  0
 14 17  1  0  0  0  0
 15 16  1  0  0  0  0
 17 18  4  0  0  0  0
 17 22  4  0  0  0  0
 18 19  4  0  0  0  0
 19 20  4  0  0  0  0
 20 21  4  0  0  0  0
 21 22  4  0  0  0  0
M  END
>  <Name_Molregno>
Piribedil

>  <5-HT1A>
6.35

>  <5-HT1B>
5

>  <5-HT1D>
5

>  <5-HT2A>
5

>  <5-HT2C>
5

>  <Alpha-1A>
6.09

>  <Alpha-1B>
5.21

>  <Alpha-2A>
7.05

>  <Alpha-2B>
6.54

>  <Alpha-2C>
7.16

>  <Beta-1>
5

>  <Beta-2>
5

>  <DOPAMINE D1>
5

>  <DOPAMINE D2>
6.88

>  <DOPAMINE D3>
6.63

>  <DOPAMINE D4>
6.51

>  <DOPAMINE D5>
5

>  <Norepinephrine transporter>
5

$$$$
Piroxicam
  Marvin  02231216192D 0   1.00000     0.00000     0

 23 25  0  0  0  0  0  0  0  0999 V2000
    2.3267    1.3854    0.0000 S   0  0  0  0  0  0  0  0  0
    1.7964    2.0174    0.0000 O   0  0  0  0  0  0  0  0  0
    2.8570    2.0174    0.0000 O   0  0  0  0  0  0  0  0  0
    1.6123    0.9729    0.0000 N   0  0  0  0  0  0  0  0  0
    0.8978    1.3854    0.0000 C   0  0  0  0  0  0  0  0  0
    1.6123    0.1479    0.0000 C   0  0  0  0  0  0  0  0  0
    0.8978   -0.2646    0.0000 C   0  0  0  0  0  0  0  0  0
    0.1833    0.1479    0.0000 O   0  0  0  0  0  0  0  0  0
    0.8978   -1.0896    0.0000 N   0  0  0  0  0  0  0  0  0
    0.1833   -1.5021    0.0000 C   0  0  0  0  0  0  0  0  0
    0.1833   -2.3271    0.0000 N   0  0  0  0  0  0  0  0  0
   -0.5311   -2.7396    0.0000 C   0  0  0  0  0  0  0  0  0
   -1.2456   -2.3271    0.0000 C   0  0  0  0  0  0  0  0  0
   -1.2456   -1.5021    0.0000 C   0  0  0  0  0  0  0  0  0
   -0.5311   -1.0896    0.0000 C   0  0  0  0  0  0  0  0  0
    2.3267   -0.2646    0.0000 C   0  0  0  0  0  0  0  0  0
    2.3267   -1.0896    0.0000 O   0  0  0  0  0  0  0  0  0
    3.0412    0.1479    0.0000 C   0  0  0  0  0  0  0  0  0
    3.0412    0.9729    0.0000 C   0  0  0  0  0  0  0  0  0
    3.7557    1.3854    0.0000 C   0  0  0  0  0  0  0  0  0
    4.4702    0.9729    0.0000 C   0  0  0  0  0  0  0  0  0
    4.4702    0.1479    0.0000 C   0  0  0  0  0  0  0  0  0
    3.7557   -0.2646    0.0000 C   0  0  0  0  0  0  0  0  0
  1  2  2  0  0  0  0
  1  3  2  0  0  0  0
  1  4  1  0  0  0  0
  1 19  1  0  0  0  0
  4  5  1  0  0  0  0
  4  6  1  0  0  0  0
  6  7  2  0  0  0  0
  6 16  1  0  0  0  0
  7  8  1  0  0  0  0
  7  9  1  0  0  0  0
  9 10  1  0  0  0  0
 10 11  4  0  0  0  0
 10 15  4  0  0  0  0
 11 12  4  0  0  0  0
 12 13  4  0  0  0  0
 13 14  4  0  0  0  0
 14 15  4  0  0  0  0
 16 17  2  0  0  0  0
 16 18  1  0  0  0  0
 18 19  4  0  0  0  0
 18 23  4  0  0  0  0
 19 20  4  0  0  0  0
 20 21  4  0  0  0  0
 21 22  4  0  0  0  0
 22 23  4  0  0  0  0
M  END
>  <Name_Molregno>
Piroxicam

>  <5-HT1A>
5

>  <5-HT1B>
5

>  <5-HT1D>
5

>  <5-HT1E>
5

>  <5-HT2A>
5

>  <5-HT3>
5

>  <5-HT5>
5

>  <5-HT6>
5

>  <Alpha-1A>
5

>  <Alpha-1B>
5

>  <Alpha-2A>
5

>  <Alpha-2B>
5

>  <Alpha-2C>
5

>  <DOPAMINE D1>
5

>  <DOPAMINE D2>
5

>  <DOPAMINE D4>
5

>  <DOPAMINE D5>
5

>  <Dopamine transporter>
5

>  <HISTAMINE H1>
5

>  <HISTAMINE H2>
5

>  <Muscarinic acetylcholine receptor M2>
5

>  <Muscarinic acetylcholine receptor M5>
5

>  <Norepinephrine transporter>
5

>  <Serotonin transporter>
5

$$$$
Propanolol
  Marvin  02231216192D 0   1.00000     0.00000     0

 19 20  0  0  1  0  0  0  0  0999 V2000
   -0.0029    0.3857    0.0000 O   0  0  0  0  0  0  0  0  0
    0.7115   -0.0268    0.0000 C   0  0  0  0  0  0  0  0  0
    1.4260    0.3857    0.0000 C   0  0  0  0  0  0  0  0  0
    1.4260    1.2107    0.0000 O   0  0  0  0  0  0  0  0  0
    2.1405   -0.0268    0.0000 C   0  0  0  0  0  0  0  0  0
    2.8550    0.3857    0.0000 N   0  0  0  0  0  0  0  0  0
    3.5694   -0.0268    0.0000 C   0  0  0  0  0  0  0  0  0
    4.2839    0.3857    0.0000 C   0  0  0  0  0  0  0  0  0
    3.5694   -0.8518    0.0000 C   0  0  0  0  0  0  0  0  0
   -0.7174   -0.0268    0.0000 C   0  0  0  0  0  0  0  0  0
   -1.4319    0.3857    0.0000 C   0  0  0  0  0  0  0  0  0
   -2.1463   -0.0268    0.0000 C   0  0  0  0  0  0  0  0  0
   -2.1463   -0.8518    0.0000 C   0  0  0  0  0  0  0  0  0
   -1.4319   -1.2643    0.0000 C   0  0  0  0  0  0  0  0  0
   -0.7174   -0.8518    0.0000 C   0  0  0  0  0  0  0  0  0
   -2.8608    0.3857    0.0000 C   0  0  0  0  0  0  0  0  0
   -2.8608    1.2107    0.0000 C   0  0  0  0  0  0  0  0  0
   -2.1463    1.6232    0.0000 C   0  0  0  0  0  0  0  0  0
   -1.4319    1.2107    0.0000 C   0  0  0  0  0  0  0  0  0
  1  2  1  0  0  0  0
  1 10  1  0  0  0  0
  2  3  1  0  0  0  0
  3  4  1  0  0  0  0
  3  5  1  0  0  0  0
  5  6  1  0  0  0  0
  6  7  1  0  0  0  0
  7  8  1  0  0  0  0
  7  9  1  0  0  0  0
 10 11  4  0  0  0  0
 10 15  4  0  0  0  0
 11 12  4  0  0  0  0
 11 19  4  0  0  0  0
 12 13  4  0  0  0  0
 12 16  4  0  0  0  0
 13 14  4  0  0  0  0
 14 15  4  0  0  0  0
 16 17  4  0  0  0  0
 17 18  4  0  0  0  0
 18 19  4  0  0  0  0
M  END
>  <Name_Molregno>
Propanolol

>  <5-HT1A>
6.57

>  <5-HT1B>
5.87

>  <5-HT1D>
5.35

>  <5-HT2A>
5.3

>  <5-HT3>
5

>  <Beta-1>
9.34

>  <Beta-2>
9.68

>  <DOPAMINE D1>
5

>  <DOPAMINE D2>
5

>  <HISTAMINE H1>
5

$$$$
PSILOCIN
  Marvin  02231216192D 0   1.00000     0.00000     0

 15 16  0  0  0  0  0  0  0  0999 V2000
    1.2794   -2.2041    0.0000 O   0  0  0  0  0  0  0  0  0
    1.2794   -1.3791    0.0000 C   0  0  0  0  0  0  0  0  0
    0.5650   -0.9666    0.0000 C   0  0  0  0  0  0  0  0  0
    0.5650   -0.1416    0.0000 C   0  0  0  0  0  0  0  0  0
   -0.2197    0.1134    0.0000 N   0  0  0  0  0  0  0  0  0
   -0.7046   -0.5541    0.0000 C   0  0  0  0  0  0  0  0  0
   -0.2197   -1.2215    0.0000 C   0  0  0  0  0  0  0  0  0
   -0.4746   -2.0061    0.0000 C   0  0  0  0  0  0  0  0  0
   -1.2816   -2.1777    0.0000 C   0  0  0  0  0  0  0  0  0
   -1.5365   -2.9623    0.0000 N   0  0  0  0  0  0  0  0  0
   -2.3435   -3.1338    0.0000 C   0  0  0  0  0  0  0  0  0
   -0.9845   -3.5754    0.0000 C   0  0  0  0  0  0  0  0  0
    1.2794    0.2709    0.0000 C   0  0  0  0  0  0  0  0  0
    1.9939   -0.1416    0.0000 C   0  0  0  0  0  0  0  0  0
    1.9939   -0.9666    0.0000 C   0  0  0  0  0  0  0  0  0
  1  2  1  0  0  0  0
  2  3  4  0  0  0  0
  2 15  4  0  0  0  0
  3  4  4  0  0  0  0
  3  7  4  0  0  0  0
  4  5  4  0  0  0  0
  4 13  4  0  0  0  0
  5  6  4  0  0  0  0
  6  7  4  0  0  0  0
  7  8  1  0  0  0  0
  8  9  1  0  0  0  0
  9 10  1  0  0  0  0
 10 11  1  0  0  0  0
 10 12  1  0  0  0  0
 13 14  4  0  0  0  0
 14 15  4  0  0  0  0
M  STY  1   1 DAT
M  SAL   1  1   5
M  SDT   1 MRV_IMPLICIT_H                                        
M  SDD   1     0.0000    0.0000    DR    ALL  0       0  
M  SED   1 IMPL_H1
M  END
>  <Name_Molregno>
PSILOCIN

>  <5-HT1A>
6.78

>  <5-HT1B>
6.66

>  <5-HT1D>
7.44

>  <5-HT1E>
7.28

>  <5-HT2A>
6.97

>  <5-HT3>
5

>  <5-HT5>
7.08

>  <5-HT6>
7.24

>  <5-HT7>
8.46

>  <Alpha-1A>
5

>  <Alpha-1B>
5

>  <Alpha-2A>
5.86

>  <Alpha-2B>
5.72

>  <Alpha-2C>
5

>  <Beta-1>
5

>  <DOPAMINE D1>
5

>  <DOPAMINE D2>
5

>  <DOPAMINE D4>
5

>  <DOPAMINE D5>
5

>  <Dopamine transporter>
5

>  <HISTAMINE H1>
6.52

>  <HISTAMINE H2>
5

>  <HISTAMINE H4>
5

>  <Muscarinic acetylcholine receptor M2>
5

>  <Muscarinic acetylcholine receptor M5>
5

>  <Norepinephrine transporter>
5

>  <Serotonin transporter>
5.42

$$$$
PSILOCYBIN
  Marvin  02231216192D 0   1.00000     0.00000     0

 19 20  0  0  0  0  0  0  0  0999 V2000
    0.6946   -2.4480    0.0000 P   0  0  0  0  0  0  0  0  0
   -0.0199   -2.0355    0.0000 O   0  0  0  0  0  0  0  0  0
   -0.0199   -1.2105    0.0000 C   0  0  0  0  0  0  0  0  0
   -0.7343   -0.7980    0.0000 C   0  0  0  0  0  0  0  0  0
   -0.7343    0.0270    0.0000 C   0  0  0  0  0  0  0  0  0
   -1.5190    0.2819    0.0000 N   0  0  0  0  0  0  0  0  0
   -2.0039   -0.3855    0.0000 C   0  0  0  0  0  0  0  0  0
   -1.5190   -1.0530    0.0000 C   0  0  0  0  0  0  0  0  0
   -1.7739   -1.8376    0.0000 C   0  0  0  0  0  0  0  0  0
   -2.5809   -2.0091    0.0000 C   0  0  0  0  0  0  0  0  0
   -2.8358   -2.7937    0.0000 N   0  0  0  0  0  0  0  0  0
   -3.6428   -2.9653    0.0000 C   0  0  0  0  0  0  0  0  0
   -2.2838   -3.4068    0.0000 C   0  0  0  0  0  0  0  0  0
   -0.0199    0.4395    0.0000 C   0  0  0  0  0  0  0  0  0
    0.6946    0.0270    0.0000 C   0  0  0  0  0  0  0  0  0
    0.6946   -0.7980    0.0000 C   0  0  0  0  0  0  0  0  0
    1.4091   -2.8605    0.0000 O   0  0  0  0  0  0  0  0  0
    0.2821   -3.1625    0.0000 O   0  0  0  0  0  0  0  0  0
    1.1071   -1.7336    0.0000 O   0  0  0  0  0  0  0  0  0
  1  2  1  0  0  0  0
  1 17  2  0  0  0  0
  1 18  1  0  0  0  0
  1 19  1  0  0  0  0
  2  3  1  0  0  0  0
  3  4  4  0  0  0  0
  3 16  4  0  0  0  0
  4  5  4  0  0  0  0
  4  8  4  0  0  0  0
  5  6  4  0  0  0  0
  5 14  4  0  0  0  0
  6  7  4  0  0  0  0
  7  8  4  0  0  0  0
  8  9  1  0  0  0  0
  9 10  1  0  0  0  0
 10 11  1  0  0  0  0
 11 12  1  0  0  0  0
 11 13  1  0  0  0  0
 14 15  4  0  0  0  0
 15 16  4  0  0  0  0
M  STY  1   1 DAT
M  SAL   1  1   6
M  SDT   1 MRV_IMPLICIT_H                                        
M  SDD   1     0.0000    0.0000    DR    ALL  0       0  
M  SED   1 IMPL_H1
M  END
>  <Name_Molregno>
PSILOCYBIN

>  <5-HT1A>
5

>  <5-HT1B>
5

>  <5-HT1D>
5.67

>  <5-HT1E>
6.71

>  <5-HT2A>
5

>  <5-HT3>
5

>  <5-HT5>
5.21

>  <5-HT6>
6.38

>  <5-HT7>
6.22

>  <Alpha-1A>
5

>  <Alpha-1B>
5

>  <Alpha-2A>
5

>  <Alpha-2B>
5

>  <Alpha-2C>
5

>  <DOPAMINE D1>
5

>  <DOPAMINE D2>
5

>  <DOPAMINE D4>
5

>  <DOPAMINE D5>
5

>  <Dopamine transporter>
5

>  <HISTAMINE H1>
5

>  <HISTAMINE H2>
5

>  <HISTAMINE H4>
5

>  <Muscarinic acetylcholine receptor M2>
5

>  <Muscarinic acetylcholine receptor M5>
5

>  <Norepinephrine transporter>
5

>  <Serotonin transporter>
5

$$$$
Quercetin
  Marvin  02231216192D 0   1.00000     0.00000     0

 22 24  0  0  0  0  0  0  0  0999 V2000
    0.2617    0.1403    0.0000 O   0  0  0  0  0  0  0  0  0
    0.9762    0.5528    0.0000 C   0  0  0  0  0  0  0  0  0
    0.9762    1.3778    0.0000 C   0  0  0  0  0  0  0  0  0
    0.2617    1.7903    0.0000 C   0  0  0  0  0  0  0  0  0
    0.2617    2.6153    0.0000 O   0  0  0  0  0  0  0  0  0
   -0.4528    1.3778    0.0000 C   0  0  0  0  0  0  0  0  0
   -1.1672    1.7903    0.0000 O   0  0  0  0  0  0  0  0  0
   -0.4528    0.5528    0.0000 C   0  0  0  0  0  0  0  0  0
   -1.1672    0.1403    0.0000 C   0  0  0  0  0  0  0  0  0
   -1.1672   -0.6847    0.0000 C   0  0  0  0  0  0  0  0  0
   -1.8817   -1.0972    0.0000 C   0  0  0  0  0  0  0  0  0
   -1.8817   -1.9222    0.0000 O   0  0  0  0  0  0  0  0  0
   -2.5962   -0.6847    0.0000 C   0  0  0  0  0  0  0  0  0
   -3.3106   -1.0972    0.0000 O   0  0  0  0  0  0  0  0  0
   -2.5962    0.1403    0.0000 C   0  0  0  0  0  0  0  0  0
   -1.8817    0.5528    0.0000 C   0  0  0  0  0  0  0  0  0
    1.6907    1.7903    0.0000 C   0  0  0  0  0  0  0  0  0
    1.6907    2.6153    0.0000 O   0  0  0  0  0  0  0  0  0
    2.4051    1.3778    0.0000 C   0  0  0  0  0  0  0  0  0
    2.4051    0.5528    0.0000 C   0  0  0  0  0  0  0  0  0
    3.1196    0.1403    0.0000 O   0  0  0  0  0  0  0  0  0
    1.6907    0.1403    0.0000 C   0  0  0  0  0  0  0  0  0
  1  2  1  0  0  0  0
  1  8  1  0  0  0  0
  2  3  4  0  0  0  0
  2 22  4  0  0  0  0
  3  4  1  0  0  0  0
  3 17  4  0  0  0  0
  4  5  2  0  0  0  0
  4  6  1  0  0  0  0
  6  7  1  0  0  0  0
  6  8  2  0  0  0  0
  8  9  1  0  0  0  0
  9 10  4  0  0  0  0
  9 16  4  0  0  0  0
 10 11  4  0  0  0  0
 11 12  1  0  0  0  0
 11 13  4  0  0  0  0
 13 14  1  0  0  0  0
 13 15  4  0  0  0  0
 15 16  4  0  0  0  0
 17 18  1  0  0  0  0
 17 19  4  0  0  0  0
 19 20  4  0  0  0  0
 20 21  1  0  0  0  0
 20 22  4  0  0  0  0
M  END
>  <Name_Molregno>
Quercetin

>  <5-HT1A>
5

>  <5-HT1D>
5

>  <5-HT3>
5

>  <5-HT5>
5

>  <5-HT6>
5

>  <5-HT7>
5

>  <Alpha-1A>
5

>  <Alpha-1B>
5

>  <Alpha-2A>
5

>  <Alpha-2B>
5

>  <Alpha-2C>
5

>  <DOPAMINE D1>
5

>  <DOPAMINE D5>
5

>  <Muscarinic acetylcholine receptor M1>
5

>  <Muscarinic acetylcholine receptor M2>
5

>  <Muscarinic acetylcholine receptor M3>
5

>  <Muscarinic acetylcholine receptor M4>
5

>  <Muscarinic acetylcholine receptor M5>
5

>  <Norepinephrine transporter>
5

>  <Serotonin transporter>
5

$$$$
Quercitrin
  Marvin  02231216192D 0   1.00000     0.00000     0

 32 35  0  0  1  0  0  0  0  0999 V2000
    1.5011    1.5398    0.0000 O   0  0  0  0  0  0  0  0  0
    1.5011    2.3648    0.0000 C   0  0  0  0  0  0  0  0  0
    2.2156    2.7773    0.0000 C   0  0  0  0  0  0  0  0  0
    0.7866    2.7773    0.0000 C   0  0  0  0  0  0  0  0  0
    0.7866    3.6023    0.0000 O   0  0  0  0  0  0  0  0  0
    0.0722    2.3648    0.0000 C   0  0  0  0  0  0  0  0  0
   -0.6423    2.7773    0.0000 O   0  0  0  0  0  0  0  0  0
    0.0722    1.5398    0.0000 C   0  0  0  0  0  0  0  0  0
   -0.6423    1.1273    0.0000 O   0  0  0  0  0  0  0  0  0
    0.7866    1.1273    0.0000 C   0  0  0  0  0  0  0  0  0
    0.7866    0.3023    0.0000 O   0  0  0  0  0  0  0  0  0
    1.5011   -0.1102    0.0000 C   0  0  0  0  0  0  0  0  0
    1.5011   -0.9352    0.0000 C   0  0  0  0  0  0  0  0  0
    2.2156   -1.3477    0.0000 O   0  0  0  0  0  0  0  0  0
    2.9300   -0.9352    0.0000 C   0  0  0  0  0  0  0  0  0
    2.9300   -0.1102    0.0000 C   0  0  0  0  0  0  0  0  0
    2.2156    0.3023    0.0000 C   0  0  0  0  0  0  0  0  0
    2.2156    1.1273    0.0000 O   0  0  0  0  0  0  0  0  0
    3.6445    0.3023    0.0000 C   0  0  0  0  0  0  0  0  0
    3.6445    1.1273    0.0000 O   0  0  0  0  0  0  0  0  0
    4.3590   -0.1102    0.0000 C   0  0  0  0  0  0  0  0  0
    4.3590   -0.9352    0.0000 C   0  0  0  0  0  0  0  0  0
    5.0734   -1.3477    0.0000 O   0  0  0  0  0  0  0  0  0
    3.6445   -1.3477    0.0000 C   0  0  0  0  0  0  0  0  0
    0.7866   -1.3477    0.0000 C   0  0  0  0  0  0  0  0  0
    0.7866   -2.1727    0.0000 C   0  0  0  0  0  0  0  0  0
    0.0722   -2.5852    0.0000 C   0  0  0  0  0  0  0  0  0
    0.0722   -3.4102    0.0000 O   0  0  0  0  0  0  0  0  0
   -0.6423   -2.1727    0.0000 C   0  0  0  0  0  0  0  0  0
   -1.3568   -2.5852    0.0000 O   0  0  0  0  0  0  0  0  0
   -0.6423   -1.3477    0.0000 C   0  0  0  0  0  0  0  0  0
    0.0722   -0.9352    0.0000 C   0  0  0  0  0  0  0  0  0
  1  2  1  0  0  0  0
  1 10  1  0  0  0  0
  2  3  1  0  0  0  0
  2  4  1  0  0  0  0
  4  5  1  0  0  0  0
  4  6  1  0  0  0  0
  6  7  1  0  0  0  0
  6  8  1  0  0  0  0
  8  9  1  0  0  0  0
  8 10  1  0  0  0  0
 10 11  1  0  0  0  0
 11 12  1  0  0  0  0
 12 13  2  0  0  0  0
 12 17  1  0  0  0  0
 13 14  1  0  0  0  0
 13 25  1  0  0  0  0
 14 15  1  0  0  0  0
 15 16  1  0  0  0  0
 15 24  2  0  0  0  0
 16 17  2  0  0  0  0
 16 19  1  0  0  0  0
 17 18  1  0  0  0  0
 19 20  1  0  0  0  0
 19 21  2  0  0  0  0
 21 22  1  0  0  0  0
 22 23  2  0  0  0  0
 22 24  1  0  0  0  0
 25 26  4  0  0  0  0
 25 32  4  0  0  0  0
 26 27  4  0  0  0  0
 27 28  1  0  0  0  0
 27 29  4  0  0  0  0
 29 30  1  0  0  0  0
 29 31  4  0  0  0  0
 31 32  4  0  0  0  0
M  END
>  <Name_Molregno>
Quercitrin

>  <5-HT1A>
5

>  <5-HT1D>
5

>  <5-HT3>
5

>  <5-HT5>
5

>  <5-HT6>
5

>  <5-HT7>
5

>  <Alpha-1A>
5

>  <Alpha-1B>
5

>  <Alpha-2A>
5

>  <Alpha-2B>
5

>  <Alpha-2C>
5

>  <DOPAMINE D1>
5

>  <DOPAMINE D5>
5

>  <Muscarinic acetylcholine receptor M1>
5

>  <Muscarinic acetylcholine receptor M2>
5

>  <Muscarinic acetylcholine receptor M3>
5

>  <Muscarinic acetylcholine receptor M4>
5

>  <Muscarinic acetylcholine receptor M5>
5

>  <Norepinephrine transporter>
5

>  <Serotonin transporter>
5

$$$$
QUETIAPINE
  Marvin  02231216192D 0   1.00000     0.00000     0

 27 30  0  0  0  0  0  0  0  0999 V2000
    0.4015    1.2563    0.0000 S   0  0  0  0  0  0  0  0  0
    1.2173    1.3793    0.0000 C   0  0  0  0  0  0  0  0  0
    1.8221    0.8181    0.0000 C   0  0  0  0  0  0  0  0  0
    2.6104    1.0613    0.0000 C   0  0  0  0  0  0  0  0  0
    2.7940    1.8656    0.0000 C   0  0  0  0  0  0  0  0  0
    2.1892    2.4268    0.0000 C   0  0  0  0  0  0  0  0  0
    1.4009    2.1836    0.0000 C   0  0  0  0  0  0  0  0  0
    1.7604   -0.0046    0.0000 C   0  0  0  0  0  0  0  0  0
    1.0788   -0.4693    0.0000 N   0  0  0  0  0  0  0  0  0
    0.2904   -0.2261    0.0000 C   0  0  0  0  0  0  0  0  0
   -0.0110    0.5418    0.0000 C   0  0  0  0  0  0  0  0  0
   -0.8268    0.6648    0.0000 C   0  0  0  0  0  0  0  0  0
   -1.3412    0.0198    0.0000 C   0  0  0  0  0  0  0  0  0
   -1.0398   -0.7482    0.0000 C   0  0  0  0  0  0  0  0  0
   -0.2240   -0.8711    0.0000 C   0  0  0  0  0  0  0  0  0
    2.4749   -0.4171    0.0000 N   0  0  0  0  0  0  0  0  0
    3.1893   -0.0046    0.0000 C   0  0  0  0  0  0  0  0  0
    3.9038   -0.4171    0.0000 C   0  0  0  0  0  0  0  0  0
    3.9038   -1.2421    0.0000 N   0  0  0  0  0  0  0  0  0
    3.1893   -1.6546    0.0000 C   0  0  0  0  0  0  0  0  0
    2.4749   -1.2421    0.0000 C   0  0  0  0  0  0  0  0  0
    4.6183   -1.6546    0.0000 C   0  0  0  0  0  0  0  0  0
    5.3328   -1.2421    0.0000 C   0  0  0  0  0  0  0  0  0
    6.0472   -1.6546    0.0000 O   0  0  0  0  0  0  0  0  0
    6.7617   -1.2421    0.0000 C   0  0  0  0  0  0  0  0  0
    7.4762   -1.6546    0.0000 C   0  0  0  0  0  0  0  0  0
    8.1906   -1.2421    0.0000 O   0  0  0  0  0  0  0  0  0
  1  2  1  0  0  0  0
  1 11  1  0  0  0  0
  2  3  4  0  0  0  0
  2  7  4  0  0  0  0
  3  4  4  0  0  0  0
  3  8  1  0  0  0  0
  4  5  4  0  0  0  0
  5  6  4  0  0  0  0
  6  7  4  0  0  0  0
  8  9  2  0  0  0  0
  8 16  1  0  0  0  0
  9 10  1  0  0  0  0
 10 11  4  0  0  0  0
 10 15  4  0  0  0  0
 11 12  4  0  0  0  0
 12 13  4  0  0  0  0
 13 14  4  0  0  0  0
 14 15  4  0  0  0  0
 16 17  1  0  0  0  0
 16 21  1  0  0  0  0
 17 18  1  0  0  0  0
 18 19  1  0  0  0  0
 19 20  1  0  0  0  0
 19 22  1  0  0  0  0
 20 21  1  0  0  0  0
 22 23  1  0  0  0  0
 23 24  1  0  0  0  0
 24 25  1  0  0  0  0
 25 26  1  0  0  0  0
 26 27  1  0  0  0  0
M  END
>  <Name_Molregno>
QUETIAPINE

>  <5-HT1A>
6.59

>  <5-HT1B>
5.83

>  <5-HT1D>
5.52

>  <5-HT1E>
5.76

>  <5-HT2A>
6.76

>  <5-HT2C>
5.82

>  <5-HT3>
5

>  <5-HT5>
5.51

>  <5-HT6>
6.35

>  <5-HT7>
6.74

>  <Alpha-1A>
7.66

>  <Alpha-1B>
7.41

>  <Alpha-2A>
5.51

>  <Alpha-2B>
6.44

>  <Alpha-2C>
7.18

>  <Beta-1>
5.15

>  <Beta-2>
5.15

>  <DOPAMINE D1>
5.95

>  <DOPAMINE D2>
6.51

>  <DOPAMINE D3>
6.59

>  <DOPAMINE D4>
5.77

>  <DOPAMINE D5>
5.79

>  <Dopamine transporter>
5

>  <HISTAMINE H1>
8.1

>  <HISTAMINE H2>
5

>  <HISTAMINE H4>
5

>  <Muscarinic acetylcholine receptor M1>
6.71

>  <Muscarinic acetylcholine receptor M2>
6.03

>  <Muscarinic acetylcholine receptor M3>
5.69

>  <Muscarinic acetylcholine receptor M4>
6.5

>  <Muscarinic acetylcholine receptor M5>
5.58

>  <Norepinephrine transporter>
5

>  <Serotonin transporter>
5.18

$$$$
QUIPAZINE
  Marvin  02231216192D 0   1.00000     0.00000     0

 16 18  0  0  0  0  0  0  0  0999 V2000
    0.2326    0.1177    0.0000 N   0  0  0  0  0  0  0  0  0
    0.9471    0.5302    0.0000 C   0  0  0  0  0  0  0  0  0
    0.9471    1.3552    0.0000 C   0  0  0  0  0  0  0  0  0
    0.2326    1.7677    0.0000 C   0  0  0  0  0  0  0  0  0
   -0.4818    1.3552    0.0000 C   0  0  0  0  0  0  0  0  0
   -0.4818    0.5302    0.0000 C   0  0  0  0  0  0  0  0  0
   -1.1963    0.1177    0.0000 N   0  0  0  0  0  0  0  0  0
   -1.1963   -0.7073    0.0000 C   0  0  0  0  0  0  0  0  0
   -1.9108   -1.1198    0.0000 C   0  0  0  0  0  0  0  0  0
   -2.6252   -0.7073    0.0000 N   0  0  0  0  0  0  0  0  0
   -2.6252    0.1177    0.0000 C   0  0  0  0  0  0  0  0  0
   -1.9108    0.5302    0.0000 C   0  0  0  0  0  0  0  0  0
    1.6616    1.7677    0.0000 C   0  0  0  0  0  0  0  0  0
    2.3761    1.3552    0.0000 C   0  0  0  0  0  0  0  0  0
    2.3761    0.5302    0.0000 C   0  0  0  0  0  0  0  0  0
    1.6616    0.1177    0.0000 C   0  0  0  0  0  0  0  0  0
  1  2  4  0  0  0  0
  1  6  4  0  0  0  0
  2  3  4  0  0  0  0
  2 16  4  0  0  0  0
  3  4  4  0  0  0  0
  3 13  4  0  0  0  0
  4  5  4  0  0  0  0
  5  6  4  0  0  0  0
  6  7  1  0  0  0  0
  7  8  1  0  0  0  0
  7 12  1  0  0  0  0
  8  9  1  0  0  0  0
  9 10  1  0  0  0  0
 10 11  1  0  0  0  0
 11 12  1  0  0  0  0
 13 14  4  0  0  0  0
 14 15  4  0  0  0  0
 15 16  4  0  0  0  0
M  END
>  <Name_Molregno>
QUIPAZINE

>  <5-HT1A>
5.39

>  <5-HT1B>
6

>  <5-HT1D>
5.8

>  <5-HT2A>
6.53

>  <5-HT2C>
6.87

>  <5-HT3>
8.42

>  <5-HT6>
5.44

>  <DOPAMINE D1>
5

>  <DOPAMINE D2>
5

$$$$
RESERPINE
  Marvin  02231216192D 0   1.00000     0.00000     0

 44 49  0  0  1  0  0  0  0  0999 V2000
    0.2364    0.7485    0.0000 O   0  0  0  0  0  0  0  0  0
   -0.0358   -0.0303    0.0000 C   0  0  0  0  0  0  0  0  0
   -0.3021    1.3736    0.0000 C   0  0  0  0  0  0  0  0  0
   -1.1126    1.2198    0.0000 C   0  0  0  0  0  0  0  0  0
   -1.6510    1.8449    0.0000 C   0  0  0  0  0  0  0  0  0
   -1.3789    2.6238    0.0000 C   0  0  0  0  0  0  0  0  0
   -0.5683    2.7775    0.0000 C   0  0  0  0  0  0  0  0  0
   -0.0299    2.1524    0.0000 C   0  0  0  0  0  0  0  0  0
    0.7806    2.3061    0.0000 O   0  0  0  0  0  0  0  0  0
    1.3190    1.6810    0.0000 C   0  0  0  0  0  0  0  0  0
    1.0469    0.9022    0.0000 O   0  0  0  0  0  0  0  0  0
    2.1296    1.8348    0.0000 C   0  0  0  0  0  0  0  0  0
    2.4017    2.6136    0.0000 C   0  0  0  0  0  0  0  0  0
    3.2123    2.7673    0.0000 C   0  0  0  0  0  0  0  0  0
    3.4844    3.5461    0.0000 O   0  0  0  0  0  0  0  0  0
    4.2950    3.6998    0.0000 C   0  0  0  0  0  0  0  0  0
    3.7507    2.1422    0.0000 C   0  0  0  0  0  0  0  0  0
    4.5613    2.2959    0.0000 O   0  0  0  0  0  0  0  0  0
    5.0997    1.6708    0.0000 C   0  0  0  0  0  0  0  0  0
    3.4786    1.3634    0.0000 C   0  0  0  0  0  0  0  0  0
    4.0170    0.7383    0.0000 O   0  0  0  0  0  0  0  0  0
    3.7448   -0.0405    0.0000 C   0  0  0  0  0  0  0  0  0
    2.6680    1.2097    0.0000 C   0  0  0  0  0  0  0  0  0
   -1.9173    3.2489    0.0000 C   0  0  0  0  0  0  0  0  0
   -2.7278    3.0951    0.0000 N   0  0  0  0  0  0  0  0  0
   -3.0000    2.3163    0.0000 C   0  0  0  0  0  0  0  0  0
   -2.4616    1.6912    0.0000 C   0  0  0  0  0  0  0  0  0
   -3.8105    2.1626    0.0000 C   0  0  0  0  0  0  0  0  0
   -4.2386    1.4574    0.0000 N   0  0  0  0  0  0  0  0  0
   -5.0416    1.6466    0.0000 C   0  0  0  0  0  0  0  0  0
   -5.7196    1.1765    0.0000 C   0  0  0  0  0  0  0  0  0
   -6.4657    1.5285    0.0000 C   0  0  0  0  0  0  0  0  0
   -7.1437    1.0584    0.0000 O   0  0  0  0  0  0  0  0  0
   -7.0755    0.2362    0.0000 C   0  0  0  0  0  0  0  0  0
   -6.5339    2.3507    0.0000 C   0  0  0  0  0  0  0  0  0
   -5.8559    2.8208    0.0000 C   0  0  0  0  0  0  0  0  0
   -5.1098    2.4688    0.0000 C   0  0  0  0  0  0  0  0  0
   -4.3489    2.7877    0.0000 C   0  0  0  0  0  0  0  0  0
   -4.0768    3.5665    0.0000 C   0  0  0  0  0  0  0  0  0
   -3.2662    3.7202    0.0000 C   0  0  0  0  0  0  0  0  0
   -1.3847    0.4410    0.0000 C   0  0  0  0  0  0  0  0  0
   -0.8463   -0.1841    0.0000 O   0  0  0  0  0  0  0  0  0
   -1.1185   -0.9629    0.0000 C   0  0  0  0  0  0  0  0  0
   -2.1953    0.2873    0.0000 O   0  0  0  0  0  0  0  0  0
  1  2  1  0  0  0  0
  1  3  1  0  0  0  0
  3  4  1  0  0  0  0
  3  8  1  0  0  0  0
  4  5  1  0  0  0  0
  4 41  1  0  0  0  0
  5  6  1  0  0  0  0
  5 27  1  0  0  0  0
  6  7  1  0  0  0  0
  6 24  1  0  0  0  0
  7  8  1  0  0  0  0
  8  9  1  0  0  0  0
  9 10  1  0  0  0  0
 10 11  2  0  0  0  0
 10 12  1  0  0  0  0
 12 13  4  0  0  0  0
 12 23  4  0  0  0  0
 13 14  4  0  0  0  0
 14 15  1  0  0  0  0
 14 17  4  0  0  0  0
 15 16  1  0  0  0  0
 17 18  1  0  0  0  0
 17 20  4  0  0  0  0
 18 19  1  0  0  0  0
 20 21  1  0  0  0  0
 20 23  4  0  0  0  0
 21 22  1  0  0  0  0
 24 25  1  0  0  0  0
 25 26  1  0  0  0  0
 25 40  1  0  0  0  0
 26 27  1  0  0  0  0
 26 28  1  0  0  0  0
 28 29  4  0  0  0  0
 28 38  4  0  0  0  0
 29 30  4  0  0  0  0
 30 31  4  0  0  0  0
 30 37  4  0  0  0  0
 31 32  4  0  0  0  0
 32 33  1  0  0  0  0
 32 35  4  0  0  0  0
 33 34  1  0  0  0  0
 35 36  4  0  0  0  0
 36 37  4  0  0  0  0
 37 38  4  0  0  0  0
 38 39  1  0  0  0  0
 39 40  1  0  0  0  0
 41 42  1  0  0  0  0
 41 44  2  0  0  0  0
 42 43  1  0  0  0  0
M  STY  1   1 DAT
M  SAL   1  1  29
M  SDT   1 MRV_IMPLICIT_H                                        
M  SDD   1     0.0000    0.0000    DR    ALL  0       0  
M  SED   1 IMPL_H1
M  END
>  <Name_Molregno>
RESERPINE

>  <5-HT1A>
5.74

>  <DOPAMINE D1>
5.41

>  <DOPAMINE D2>
6.23

>  <DOPAMINE D3>
6.22

>  <Dopamine transporter>
5

$$$$
RISPERIDONE
  Marvin  02231216192D 0   1.00000     0.00000     0

 30 34  0  0  0  0  0  0  0  0999 V2000
    1.8325   -2.9394    0.0000 F   0  0  0  0  0  0  0  0  0
    2.0875   -2.1548    0.0000 C   0  0  0  0  0  0  0  0  0
    1.5354   -1.5417    0.0000 C   0  0  0  0  0  0  0  0  0
    1.7904   -0.7571    0.0000 C   0  0  0  0  0  0  0  0  0
    1.3779   -0.0426    0.0000 O   0  0  0  0  0  0  0  0  0
    1.9299    0.5705    0.0000 N   0  0  0  0  0  0  0  0  0
    2.6836    0.2349    0.0000 C   0  0  0  0  0  0  0  0  0
    2.5974   -0.5856    0.0000 C   0  0  0  0  0  0  0  0  0
    3.1494   -1.1987    0.0000 C   0  0  0  0  0  0  0  0  0
    2.8945   -1.9833    0.0000 C   0  0  0  0  0  0  0  0  0
    3.3981    0.6474    0.0000 C   0  0  0  0  0  0  0  0  0
    3.3981    1.4724    0.0000 C   0  0  0  0  0  0  0  0  0
    4.1125    1.8849    0.0000 C   0  0  0  0  0  0  0  0  0
    4.8270    1.4724    0.0000 N   0  0  0  0  0  0  0  0  0
    4.8270    0.6474    0.0000 C   0  0  0  0  0  0  0  0  0
    4.1125    0.2349    0.0000 C   0  0  0  0  0  0  0  0  0
    5.5415    1.8849    0.0000 C   0  0  0  0  0  0  0  0  0
    6.2559    1.4724    0.0000 C   0  0  0  0  0  0  0  0  0
    6.9704    1.8849    0.0000 C   0  0  0  0  0  0  0  0  0
    7.6849    1.4724    0.0000 C   0  0  0  0  0  0  0  0  0
    7.6849    0.6474    0.0000 O   0  0  0  0  0  0  0  0  0
    8.3994    1.8849    0.0000 N   0  0  0  0  0  0  0  0  0
    8.3994    2.7099    0.0000 C   0  0  0  0  0  0  0  0  0
    7.6849    3.1224    0.0000 N   0  0  0  0  0  0  0  0  0
    6.9704    2.7099    0.0000 C   0  0  0  0  0  0  0  0  0
    6.2559    3.1224    0.0000 C   0  0  0  0  0  0  0  0  0
    9.1138    3.1224    0.0000 C   0  0  0  0  0  0  0  0  0
    9.8283    2.7099    0.0000 C   0  0  0  0  0  0  0  0  0
    9.8283    1.8849    0.0000 C   0  0  0  0  0  0  0  0  0
    9.1138    1.4724    0.0000 C   0  0  0  0  0  0  0  0  0
  1  2  1  0  0  0  0
  2  3  4  0  0  0  0
  2 10  4  0  0  0  0
  3  4  4  0  0  0  0
  4  5  4  0  0  0  0
  4  8  4  0  0  0  0
  5  6  4  0  0  0  0
  6  7  4  0  0  0  0
  7  8  4  0  0  0  0
  7 11  1  0  0  0  0
  8  9  4  0  0  0  0
  9 10  4  0  0  0  0
 11 12  1  0  0  0  0
 11 16  1  0  0  0  0
 12 13  1  0  0  0  0
 13 14  1  0  0  0  0
 14 15  1  0  0  0  0
 14 17  1  0  0  0  0
 15 16  1  0  0  0  0
 17 18  1  0  0  0  0
 18 19  1  0  0  0  0
 19 20  1  0  0  0  0
 19 25  2  0  0  0  0
 20 21  2  0  0  0  0
 20 22  1  0  0  0  0
 22 23  1  0  0  0  0
 22 30  1  0  0  0  0
 23 24  2  0  0  0  0
 23 27  1  0  0  0  0
 24 25  1  0  0  0  0
 25 26  1  0  0  0  0
 27 28  1  0  0  0  0
 28 29  1  0  0  0  0
 29 30  1  0  0  0  0
M  END
>  <Name_Molregno>
RISPERIDONE

>  <5-HT1A>
6.52

>  <5-HT1B>
7.66

>  <5-HT1D>
7.6

>  <5-HT1E>
5.44

>  <5-HT2A>
9.35

>  <5-HT2C>
7.74

>  <5-HT3>
5

>  <5-HT5>
6.69

>  <5-HT6>
5.7

>  <5-HT7>
8.4

>  <Alpha-1A>
8.38

>  <Alpha-1B>
8.05

>  <Alpha-2A>
7.46

>  <Alpha-2B>
7.34

>  <Alpha-2C>
8.56

>  <Beta-1>
5.15

>  <Beta-2>
5.15

>  <DOPAMINE D1>
6.61

>  <DOPAMINE D2>
8.58

>  <DOPAMINE D3>
8.17

>  <DOPAMINE D4>
8.17

>  <DOPAMINE D5>
7.03

>  <Dopamine transporter>
5

>  <HISTAMINE H1>
7.79

>  <HISTAMINE H2>
6.92

>  <HISTAMINE H4>
5

>  <Muscarinic acetylcholine receptor M1>
5.22

>  <Muscarinic acetylcholine receptor M2>
5.14

>  <Muscarinic acetylcholine receptor M3>
5

>  <Muscarinic acetylcholine receptor M4>
5.18

>  <Muscarinic acetylcholine receptor M5>
5

>  <Norepinephrine transporter>
5

>  <Serotonin transporter>
5.67

$$$$
RITANSERIN
  Marvin  02231216192D 0   1.00000     0.00000     0

 34 38  0  0  0  0  0  0  0  0999 V2000
   -9.6255    1.6331    0.0000 S   0  0  0  0  0  0  0  0  0
  -10.1104    0.9657    0.0000 C   0  0  0  0  0  0  0  0  0
   -9.6255    0.2982    0.0000 C   0  0  0  0  0  0  0  0  0
   -8.8409    0.5532    0.0000 N   0  0  0  0  0  0  0  0  0
   -8.8409    1.3782    0.0000 C   0  0  0  0  0  0  0  0  0
   -8.1264    1.7907    0.0000 N   0  0  0  0  0  0  0  0  0
   -7.4119    1.3782    0.0000 C   0  0  0  0  0  0  0  0  0
   -6.6974    1.7907    0.0000 C   0  0  0  0  0  0  0  0  0
   -7.4119    0.5532    0.0000 C   0  0  0  0  0  0  0  0  0
   -6.6974    0.1407    0.0000 C   0  0  0  0  0  0  0  0  0
   -5.9830    0.5532    0.0000 C   0  0  0  0  0  0  0  0  0
   -5.2685    0.1407    0.0000 N   0  0  0  0  0  0  0  0  0
   -4.5540    0.5532    0.0000 C   0  0  0  0  0  0  0  0  0
   -3.8396    0.1407    0.0000 C   0  0  0  0  0  0  0  0  0
   -3.8396   -0.6843    0.0000 C   0  0  0  0  0  0  0  0  0
   -4.5540   -1.0968    0.0000 C   0  0  0  0  0  0  0  0  0
   -5.2685   -0.6843    0.0000 C   0  0  0  0  0  0  0  0  0
   -3.1251   -1.0968    0.0000 C   0  0  0  0  0  0  0  0  0
   -3.1251   -1.9218    0.0000 C   0  0  0  0  0  0  0  0  0
   -2.4106   -2.3343    0.0000 C   0  0  0  0  0  0  0  0  0
   -2.4106   -3.1593    0.0000 C   0  0  0  0  0  0  0  0  0
   -3.1251   -3.5718    0.0000 C   0  0  0  0  0  0  0  0  0
   -3.1251   -4.3968    0.0000 F   0  0  0  0  0  0  0  0  0
   -3.8396   -3.1593    0.0000 C   0  0  0  0  0  0  0  0  0
   -3.8396   -2.3343    0.0000 C   0  0  0  0  0  0  0  0  0
   -2.4106   -0.6843    0.0000 C   0  0  0  0  0  0  0  0  0
   -2.4106    0.1407    0.0000 C   0  0  0  0  0  0  0  0  0
   -1.6961    0.5532    0.0000 C   0  0  0  0  0  0  0  0  0
   -0.9817    0.1407    0.0000 C   0  0  0  0  0  0  0  0  0
   -0.2672    0.5532    0.0000 F   0  0  0  0  0  0  0  0  0
   -0.9817   -0.6843    0.0000 C   0  0  0  0  0  0  0  0  0
   -1.6961   -1.0968    0.0000 C   0  0  0  0  0  0  0  0  0
   -8.1264    0.1407    0.0000 C   0  0  0  0  0  0  0  0  0
   -8.1264   -0.6843    0.0000 O   0  0  0  0  0  0  0  0  0
  1  2  1  0  0  0  0
  1  5  1  0  0  0  0
  2  3  2  0  0  0  0
  3  4  1  0  0  0  0
  4  5  1  0  0  0  0
  4 33  1  0  0  0  0
  5  6  2  0  0  0  0
  6  7  1  0  0  0  0
  7  8  1  0  0  0  0
  7  9  2  0  0  0  0
  9 10  1  0  0  0  0
  9 33  1  0  0  0  0
 10 11  1  0  0  0  0
 11 12  1  0  0  0  0
 12 13  1  0  0  0  0
 12 17  1  0  0  0  0
 13 14  1  0  0  0  0
 14 15  1  0  0  0  0
 15 16  1  0  0  0  0
 15 18  2  0  0  0  0
 16 17  1  0  0  0  0
 18 19  1  0  0  0  0
 18 26  1  0  0  0  0
 19 20  4  0  0  0  0
 19 25  4  0  0  0  0
 20 21  4  0  0  0  0
 21 22  4  0  0  0  0
 22 23  1  0  0  0  0
 22 24  4  0  0  0  0
 24 25  4  0  0  0  0
 26 27  4  0  0  0  0
 26 32  4  0  0  0  0
 27 28  4  0  0  0  0
 28 29  4  0  0  0  0
 29 30  1  0  0  0  0
 29 31  4  0  0  0  0
 31 32  4  0  0  0  0
 33 34  2  0  0  0  0
M  END
>  <Name_Molregno>
RITANSERIN

>  <5-HT1A>
5.53

>  <5-HT1B>
6.56

>  <5-HT1D>
6.29

>  <5-HT2A>
9.14

>  <5-HT2C>
9.04

>  <5-HT3>
5

>  <5-HT6>
7.54

>  <5-HT7>
7.34

>  <DOPAMINE D1>
6.03

>  <DOPAMINE D2>
7.54

>  <DOPAMINE D3>
7.62

>  <DOPAMINE D4>
7.52

$$$$
ROFECOXIB
  Marvin  02231216192D 0   1.00000     0.00000     0

 22 24  0  0  0  0  0  0  0  0999 V2000
   -1.7307    1.7900    0.0000 S   0  0  0  0  0  0  0  0  0
   -1.7307    2.6150    0.0000 O   0  0  0  0  0  0  0  0  0
   -2.5557    1.7900    0.0000 O   0  0  0  0  0  0  0  0  0
   -0.9057    1.7900    0.0000 C   0  0  0  0  0  0  0  0  0
   -1.7307    0.9650    0.0000 C   0  0  0  0  0  0  0  0  0
   -1.0163    0.5525    0.0000 C   0  0  0  0  0  0  0  0  0
   -1.0163   -0.2725    0.0000 C   0  0  0  0  0  0  0  0  0
   -1.7307   -0.6850    0.0000 C   0  0  0  0  0  0  0  0  0
   -2.4452   -0.2725    0.0000 C   0  0  0  0  0  0  0  0  0
   -2.4452    0.5525    0.0000 C   0  0  0  0  0  0  0  0  0
   -1.7307   -1.5100    0.0000 C   0  0  0  0  0  0  0  0  0
   -1.0633   -1.9950    0.0000 C   0  0  0  0  0  0  0  0  0
   -1.3182   -2.7796    0.0000 O   0  0  0  0  0  0  0  0  0
   -2.1432   -2.7796    0.0000 C   0  0  0  0  0  0  0  0  0
   -2.6282   -3.4470    0.0000 O   0  0  0  0  0  0  0  0  0
   -2.3982   -1.9950    0.0000 C   0  0  0  0  0  0  0  0  0
   -3.1828   -1.7400    0.0000 C   0  0  0  0  0  0  0  0  0
   -3.7959   -2.2920    0.0000 C   0  0  0  0  0  0  0  0  0
   -4.5805   -2.0371    0.0000 C   0  0  0  0  0  0  0  0  0
   -4.7520   -1.2301    0.0000 C   0  0  0  0  0  0  0  0  0
   -4.1390   -0.6781    0.0000 C   0  0  0  0  0  0  0  0  0
   -3.3543   -0.9330    0.0000 C   0  0  0  0  0  0  0  0  0
  1  2  2  0  0  0  0
  1  3  2  0  0  0  0
  1  4  1  0  0  0  0
  1  5  1  0  0  0  0
  5  6  4  0  0  0  0
  5 10  4  0  0  0  0
  6  7  4  0  0  0  0
  7  8  4  0  0  0  0
  8  9  4  0  0  0  0
  8 11  1  0  0  0  0
  9 10  4  0  0  0  0
 11 12  1  0  0  0  0
 11 16  2  0  0  0  0
 12 13  1  0  0  0  0
 13 14  1  0  0  0  0
 14 15  2  0  0  0  0
 14 16  1  0  0  0  0
 16 17  1  0  0  0  0
 17 18  4  0  0  0  0
 17 22  4  0  0  0  0
 18 19  4  0  0  0  0
 19 20  4  0  0  0  0
 20 21  4  0  0  0  0
 21 22  4  0  0  0  0
M  END
>  <Name_Molregno>
ROFECOXIB

>  <5-HT1A>
5

>  <5-HT1B>
5

>  <5-HT1D>
5

>  <5-HT1E>
5

>  <5-HT2A>
5

>  <5-HT3>
5

>  <5-HT6>
5

>  <5-HT7>
5

>  <Alpha-1A>
5

>  <Alpha-1B>
5

>  <Alpha-2A>
5

>  <Alpha-2B>
5

>  <Alpha-2C>
5

>  <DOPAMINE D1>
5

>  <DOPAMINE D2>
5

>  <DOPAMINE D5>
5

>  <Dopamine transporter>
5

>  <HISTAMINE H2>
5

>  <Muscarinic acetylcholine receptor M2>
5

>  <Muscarinic acetylcholine receptor M5>
5

>  <Norepinephrine transporter>
5

>  <Serotonin transporter>
5

$$$$
Ropinirole
  Marvin  02231216192D 0   1.00000     0.00000     0

 19 20  0  0  0  0  0  0  0  0999 V2000
    0.9619   -1.7047    0.0000 O   0  0  0  0  0  0  0  0  0
    1.7869   -1.7047    0.0000 C   0  0  0  0  0  0  0  0  0
    2.2718   -2.3721    0.0000 N   0  0  0  0  0  0  0  0  0
    3.0565   -2.1172    0.0000 C   0  0  0  0  0  0  0  0  0
    3.0565   -1.2922    0.0000 C   0  0  0  0  0  0  0  0  0
    2.2718   -1.0372    0.0000 C   0  0  0  0  0  0  0  0  0
    3.7709   -0.8797    0.0000 C   0  0  0  0  0  0  0  0  0
    4.4854   -1.2922    0.0000 C   0  0  0  0  0  0  0  0  0
    4.4854   -2.1172    0.0000 C   0  0  0  0  0  0  0  0  0
    3.7709   -2.5297    0.0000 C   0  0  0  0  0  0  0  0  0
    3.7709   -0.0547    0.0000 C   0  0  0  0  0  0  0  0  0
    3.0565    0.3578    0.0000 C   0  0  0  0  0  0  0  0  0
    3.0565    1.1828    0.0000 N   0  0  0  0  0  0  0  0  0
    2.3420    1.5953    0.0000 C   0  0  0  0  0  0  0  0  0
    2.3420    2.4203    0.0000 C   0  0  0  0  0  0  0  0  0
    1.6275    2.8328    0.0000 C   0  0  0  0  0  0  0  0  0
    3.7709    1.5953    0.0000 C   0  0  0  0  0  0  0  0  0
    3.7709    2.4203    0.0000 C   0  0  0  0  0  0  0  0  0
    4.4854    2.8328    0.0000 C   0  0  0  0  0  0  0  0  0
  1  2  2  0  0  0  0
  2  3  1  0  0  0  0
  2  6  1  0  0  0  0
  3  4  1  0  0  0  0
  4  5  4  0  0  0  0
  4 10  4  0  0  0  0
  5  6  1  0  0  0  0
  5  7  4  0  0  0  0
  7  8  4  0  0  0  0
  7 11  1  0  0  0  0
  8  9  4  0  0  0  0
  9 10  4  0  0  0  0
 11 12  1  0  0  0  0
 12 13  1  0  0  0  0
 13 14  1  0  0  0  0
 13 17  1  0  0  0  0
 14 15  1  0  0  0  0
 15 16  1  0  0  0  0
 17 18  1  0  0  0  0
 18 19  1  0  0  0  0
M  END
>  <Name_Molregno>
Ropinirole

>  <5-HT1A>
6.28

>  <5-HT1B>
5

>  <5-HT1D>
5.86

>  <5-HT2A>
5

>  <5-HT2C>
5

>  <5-HT5>
5

>  <5-HT6>
5

>  <5-HT7>
5.82

>  <Alpha-1A>
5

>  <Alpha-1B>
5

>  <Alpha-2A>
5.73

>  <Alpha-2B>
6.12

>  <Alpha-2C>
5.92

>  <Beta-1>
5

>  <Beta-2>
5

>  <DOPAMINE D1>
5

>  <DOPAMINE D2>
6.45

>  <DOPAMINE D3>
7.5

>  <DOPAMINE D4>
6.07

>  <DOPAMINE D5>
5

$$$$
Roxindole
  Marvin  02231216192D 0   1.00000     0.00000     0

 26 29  0  0  0  0  0  0  0  0999 V2000
   -0.4898   -0.6830    0.0000 O   0  0  0  0  0  0  0  0  0
   -1.2043   -0.2705    0.0000 C   0  0  0  0  0  0  0  0  0
   -1.9188   -0.6830    0.0000 C   0  0  0  0  0  0  0  0  0
   -2.6332   -0.2705    0.0000 C   0  0  0  0  0  0  0  0  0
   -2.6332    0.5545    0.0000 C   0  0  0  0  0  0  0  0  0
   -3.4179    0.8095    0.0000 N   0  0  0  0  0  0  0  0  0
   -3.9028    0.1420    0.0000 C   0  0  0  0  0  0  0  0  0
   -3.4179   -0.5254    0.0000 C   0  0  0  0  0  0  0  0  0
   -3.6728   -1.3100    0.0000 C   0  0  0  0  0  0  0  0  0
   -3.1208   -1.9231    0.0000 C   0  0  0  0  0  0  0  0  0
   -3.3757   -2.7077    0.0000 C   0  0  0  0  0  0  0  0  0
   -2.8237   -3.3208    0.0000 C   0  0  0  0  0  0  0  0  0
   -3.0786   -4.1055    0.0000 N   0  0  0  0  0  0  0  0  0
   -2.5266   -4.7185    0.0000 C   0  0  0  0  0  0  0  0  0
   -2.7815   -5.5032    0.0000 C   0  0  0  0  0  0  0  0  0
   -3.5885   -5.6747    0.0000 C   0  0  0  0  0  0  0  0  0
   -4.1405   -5.0616    0.0000 C   0  0  0  0  0  0  0  0  0
   -3.8856   -4.2770    0.0000 C   0  0  0  0  0  0  0  0  0
   -3.8434   -6.4593    0.0000 C   0  0  0  0  0  0  0  0  0
   -3.2914   -7.0724    0.0000 C   0  0  0  0  0  0  0  0  0
   -3.5463   -7.8570    0.0000 C   0  0  0  0  0  0  0  0  0
   -4.3533   -8.0286    0.0000 C   0  0  0  0  0  0  0  0  0
   -4.9053   -7.4155    0.0000 C   0  0  0  0  0  0  0  0  0
   -4.6504   -6.6308    0.0000 C   0  0  0  0  0  0  0  0  0
   -1.9188    0.9670    0.0000 C   0  0  0  0  0  0  0  0  0
   -1.2043    0.5545    0.0000 C   0  0  0  0  0  0  0  0  0
  1  2  1  0  0  0  0
  2  3  4  0  0  0  0
  2 26  4  0  0  0  0
  3  4  4  0  0  0  0
  4  5  4  0  0  0  0
  4  8  4  0  0  0  0
  5  6  4  0  0  0  0
  5 25  4  0  0  0  0
  6  7  4  0  0  0  0
  7  8  4  0  0  0  0
  8  9  1  0  0  0  0
  9 10  1  0  0  0  0
 10 11  1  0  0  0  0
 11 12  1  0  0  0  0
 12 13  1  0  0  0  0
 13 14  1  0  0  0  0
 13 18  1  0  0  0  0
 14 15  1  0  0  0  0
 15 16  1  0  0  0  0
 16 17  2  0  0  0  0
 16 19  1  0  0  0  0
 17 18  1  0  0  0  0
 19 20  4  0  0  0  0
 19 24  4  0  0  0  0
 20 21  4  0  0  0  0
 21 22  4  0  0  0  0
 22 23  4  0  0  0  0
 23 24  4  0  0  0  0
 25 26  4  0  0  0  0
M  STY  1   1 DAT
M  SAL   1  1   6
M  SDT   1 MRV_IMPLICIT_H                                        
M  SDD   1     0.0000    0.0000    DR    ALL  0       0  
M  SED   1 IMPL_H1
M  END
>  <Name_Molregno>
Roxindole

>  <5-HT1A>
9.94

>  <5-HT1D>
7.2

>  <5-HT2A>
8.18

>  <5-HT2C>
6.51

>  <Alpha-1A>
8.59

>  <Alpha-1B>
8.55

>  <Alpha-2A>
8.21

>  <Alpha-2B>
8.34

>  <Alpha-2C>
8.75

>  <Beta-1>
5.57

>  <Beta-2>
6.03

>  <DOPAMINE D1>
6.33

>  <DOPAMINE D2>
8.45

>  <DOPAMINE D3>
8.93

>  <DOPAMINE D4>
8.23

>  <DOPAMINE D5>
6.72

$$$$
Rutin
  Marvin  02231216192D 0   1.00000     0.00000     0

 43 47  0  0  1  0  0  0  0  0999 V2000
   -0.5116   -0.2044    0.0000 O   0  0  0  0  0  0  0  0  0
   -0.5116    0.6206    0.0000 C   0  0  0  0  0  0  0  0  0
    0.2029    1.0331    0.0000 C   0  0  0  0  0  0  0  0  0
    0.2029    1.8581    0.0000 O   0  0  0  0  0  0  0  0  0
    0.9173    2.2706    0.0000 C   0  0  0  0  0  0  0  0  0
    0.9173    3.0956    0.0000 O   0  0  0  0  0  0  0  0  0
    1.6318    3.5081    0.0000 C   0  0  0  0  0  0  0  0  0
    1.6318    4.3331    0.0000 C   0  0  0  0  0  0  0  0  0
    2.3463    3.0956    0.0000 C   0  0  0  0  0  0  0  0  0
    3.0608    3.5081    0.0000 O   0  0  0  0  0  0  0  0  0
    2.3463    2.2706    0.0000 C   0  0  0  0  0  0  0  0  0
    3.0608    1.8581    0.0000 O   0  0  0  0  0  0  0  0  0
    1.6318    1.8581    0.0000 C   0  0  0  0  0  0  0  0  0
    1.6318    1.0331    0.0000 O   0  0  0  0  0  0  0  0  0
   -1.2261    1.0331    0.0000 C   0  0  0  0  0  0  0  0  0
   -1.2261    1.8581    0.0000 O   0  0  0  0  0  0  0  0  0
   -1.9405    0.6206    0.0000 C   0  0  0  0  0  0  0  0  0
   -2.6550    1.0331    0.0000 O   0  0  0  0  0  0  0  0  0
   -1.9405   -0.2044    0.0000 C   0  0  0  0  0  0  0  0  0
   -2.6550   -0.6169    0.0000 O   0  0  0  0  0  0  0  0  0
   -1.2261   -0.6169    0.0000 C   0  0  0  0  0  0  0  0  0
   -1.2261   -1.4419    0.0000 O   0  0  0  0  0  0  0  0  0
   -0.5116   -1.8544    0.0000 C   0  0  0  0  0  0  0  0  0
   -0.5116   -2.6794    0.0000 C   0  0  0  0  0  0  0  0  0
    0.2029   -3.0919    0.0000 O   0  0  0  0  0  0  0  0  0
    0.9173   -2.6794    0.0000 C   0  0  0  0  0  0  0  0  0
    0.9173   -1.8544    0.0000 C   0  0  0  0  0  0  0  0  0
    0.2029   -1.4419    0.0000 C   0  0  0  0  0  0  0  0  0
    0.2029   -0.6169    0.0000 O   0  0  0  0  0  0  0  0  0
    1.6318   -1.4419    0.0000 C   0  0  0  0  0  0  0  0  0
    1.6318   -0.6169    0.0000 O   0  0  0  0  0  0  0  0  0
    2.3463   -1.8544    0.0000 C   0  0  0  0  0  0  0  0  0
    2.3463   -2.6794    0.0000 C   0  0  0  0  0  0  0  0  0
    3.0608   -3.0919    0.0000 O   0  0  0  0  0  0  0  0  0
    1.6318   -3.0919    0.0000 C   0  0  0  0  0  0  0  0  0
   -1.2261   -3.0919    0.0000 C   0  0  0  0  0  0  0  0  0
   -1.2261   -3.9169    0.0000 C   0  0  0  0  0  0  0  0  0
   -1.9405   -4.3294    0.0000 C   0  0  0  0  0  0  0  0  0
   -1.9405   -5.1544    0.0000 O   0  0  0  0  0  0  0  0  0
   -2.6550   -3.9169    0.0000 C   0  0  0  0  0  0  0  0  0
   -3.3695   -4.3294    0.0000 O   0  0  0  0  0  0  0  0  0
   -2.6550   -3.0919    0.0000 C   0  0  0  0  0  0  0  0  0
   -1.9405   -2.6794    0.0000 C   0  0  0  0  0  0  0  0  0
  1  2  1  0  0  0  0
  1 21  1  0  0  0  0
  2  3  1  0  0  0  0
  2 15  1  0  0  0  0
  3  4  1  0  0  0  0
  4  5  1  0  0  0  0
  5  6  1  0  0  0  0
  5 13  1  0  0  0  0
  6  7  1  0  0  0  0
  7  8  1  0  0  0  0
  7  9  1  0  0  0  0
  9 10  1  0  0  0  0
  9 11  1  0  0  0  0
 11 12  1  0  0  0  0
 11 13  1  0  0  0  0
 13 14  1  0  0  0  0
 15 16  1  0  0  0  0
 15 17  1  0  0  0  0
 17 18  1  0  0  0  0
 17 19  1  0  0  0  0
 19 20  1  0  0  0  0
 19 21  1  0  0  0  0
 21 22  1  0  0  0  0
 22 23  1  0  0  0  0
 23 24  2  0  0  0  0
 23 28  1  0  0  0  0
 24 25  1  0  0  0  0
 24 36  1  0  0  0  0
 25 26  1  0  0  0  0
 26 27  4  0  0  0  0
 26 35  4  0  0  0  0
 27 28  1  0  0  0  0
 27 30  4  0  0  0  0
 28 29  2  0  0  0  0
 30 31  1  0  0  0  0
 30 32  4  0  0  0  0
 32 33  4  0  0  0  0
 33 34  1  0  0  0  0
 33 35  4  0  0  0  0
 36 37  4  0  0  0  0
 36 43  4  0  0  0  0
 37 38  4  0  0  0  0
 38 39  1  0  0  0  0
 38 40  4  0  0  0  0
 40 41  1  0  0  0  0
 40 42  4  0  0  0  0
 42 43  4  0  0  0  0
M  END
>  <Name_Molregno>
Rutin

>  <5-HT1A>
5

>  <5-HT1D>
5

>  <5-HT3>
5

>  <5-HT5>
5

>  <5-HT6>
5

>  <5-HT7>
5

>  <Alpha-1A>
5

>  <Alpha-1B>
5

>  <Alpha-2A>
5.03

>  <Alpha-2B>
5

>  <Alpha-2C>
5.02

>  <DOPAMINE D1>
5

>  <DOPAMINE D5>
5

>  <Muscarinic acetylcholine receptor M1>
5

>  <Muscarinic acetylcholine receptor M2>
5

>  <Muscarinic acetylcholine receptor M3>
5

>  <Muscarinic acetylcholine receptor M4>
5

>  <Muscarinic acetylcholine receptor M5>
7.45

>  <Norepinephrine transporter>
5

>  <Serotonin transporter>
5

$$$$
SalvinorinA
  Marvin  02231216192D 0   1.00000     0.00000     0

 31 34  0  0  1  0  0  0  0  0999 V2000
   -4.2035   -1.1582    0.0000 O   0  0  0  0  0  0  0  0  0
   -3.7910   -1.8727    0.0000 C   0  0  0  0  0  0  0  0  0
   -2.9660   -1.8727    0.0000 C   0  0  0  0  0  0  0  0  0
   -2.5535   -1.1582    0.0000 C   0  0  0  0  0  0  0  0  0
   -1.7285   -1.1582    0.0000 C   0  0  0  0  0  0  0  0  0
   -1.3160   -0.4437    0.0000 C   0  0  0  0  0  0  0  0  0
   -1.7285    0.2708    0.0000 C   0  0  0  0  0  0  0  0  0
   -2.5535    0.2708    0.0000 C   0  0  0  0  0  0  0  0  0
   -2.9660   -0.4437    0.0000 C   0  0  0  0  0  0  0  0  0
   -3.7910   -0.4437    0.0000 C   0  0  0  0  0  0  0  0  0
   -4.2035    0.2708    0.0000 O   0  0  0  0  0  0  0  0  0
   -0.9035    0.2708    0.0000 C   0  0  0  0  0  0  0  0  0
   -0.4910   -0.4437    0.0000 C   0  0  0  0  0  0  0  0  0
   -0.0785   -1.1582    0.0000 C   0  0  0  0  0  0  0  0  0
   -0.4910   -1.8727    0.0000 C   0  0  0  0  0  0  0  0  0
   -0.0785   -2.5871    0.0000 O   0  0  0  0  0  0  0  0  0
    0.7465   -2.5871    0.0000 C   0  0  0  0  0  0  0  0  0
    1.1590   -3.3016    0.0000 O   0  0  0  0  0  0  0  0  0
    1.1590   -1.8727    0.0000 C   0  0  0  0  0  0  0  0  0
   -1.3160   -1.8727    0.0000 C   0  0  0  0  0  0  0  0  0
   -1.7285   -2.5871    0.0000 O   0  0  0  0  0  0  0  0  0
   -0.0785    0.2708    0.0000 C   0  0  0  0  0  0  0  0  0
   -0.4910    0.9852    0.0000 O   0  0  0  0  0  0  0  0  0
   -0.0785    1.6997    0.0000 C   0  0  0  0  0  0  0  0  0
    0.7465    0.2708    0.0000 O   0  0  0  0  0  0  0  0  0
   -2.1410   -1.8727    0.0000 C   0  0  0  0  0  0  0  0  0
   -4.2035   -2.5871    0.0000 C   0  0  0  0  0  0  0  0  0
   -3.8680   -3.3408    0.0000 C   0  0  0  0  0  0  0  0  0
   -4.4811   -3.8928    0.0000 C   0  0  0  0  0  0  0  0  0
   -5.1956   -3.4803    0.0000 O   0  0  0  0  0  0  0  0  0
   -5.0240   -2.6734    0.0000 C   0  0  0  0  0  0  0  0  0
  1  2  1  0  0  0  0
  1 10  1  0  0  0  0
  2  3  1  0  0  0  0
  2 27  1  0  0  0  0
  3  4  1  0  0  0  0
  4  5  1  0  0  0  0
  4  9  1  0  0  0  0
  4 26  1  0  0  0  0
  5  6  1  0  0  0  0
  5 20  1  0  0  0  0
  6  7  1  0  0  0  0
  6 12  1  0  0  0  0
  6 13  1  0  0  0  0
  7  8  1  0  0  0  0
  8  9  1  0  0  0  0
  9 10  1  0  0  0  0
 10 11  2  0  0  0  0
 13 14  1  0  0  0  0
 13 22  1  0  0  0  0
 14 15  1  0  0  0  0
 15 16  1  0  0  0  0
 15 20  1  0  0  0  0
 16 17  1  0  0  0  0
 17 18  2  0  0  0  0
 17 19  1  0  0  0  0
 20 21  2  0  0  0  0
 22 23  1  0  0  0  0
 22 25  2  0  0  0  0
 23 24  1  0  0  0  0
 27 28  4  0  0  0  0
 27 31  4  0  0  0  0
 28 29  4  0  0  0  0
 29 30  4  0  0  0  0
 30 31  4  0  0  0  0
M  END
>  <Name_Molregno>
SalvinorinA

>  <5-HT1A>
5

>  <5-HT1B>
5

>  <5-HT1D>
5

>  <5-HT1E>
5

>  <5-HT3>
5

>  <5-HT5>
5

>  <5-HT6>
5

>  <5-HT7>
5

>  <Alpha-1A>
5

>  <Alpha-1B>
5

>  <DOPAMINE D1>
5

>  <DOPAMINE D2>
5

>  <DOPAMINE D3>
5

>  <DOPAMINE D5>
5

>  <HISTAMINE H1>
5

>  <Muscarinic acetylcholine receptor M1>
5

>  <Muscarinic acetylcholine receptor M2>
5

>  <Muscarinic acetylcholine receptor M3>
5

>  <Muscarinic acetylcholine receptor M4>
5

>  <Muscarinic acetylcholine receptor M5>
5

>  <Serotonin transporter>
5

$$$$
SB204741
  Marvin  02231216192D 0   1.00000     0.00000     0

 20 22  0  0  0  0  0  0  0  0999 V2000
    4.4146    0.8808    0.0000 S   0  0  0  0  0  0  0  0  0
    5.2216    1.0523    0.0000 N   0  0  0  0  0  0  0  0  0
    5.6341    0.3378    0.0000 C   0  0  0  0  0  0  0  0  0
    5.0821   -0.2753    0.0000 C   0  0  0  0  0  0  0  0  0
    4.3284    0.0603    0.0000 C   0  0  0  0  0  0  0  0  0
    3.6139   -0.3522    0.0000 N   0  0  0  0  0  0  0  0  0
    2.8995    0.0603    0.0000 C   0  0  0  0  0  0  0  0  0
    2.8995    0.8853    0.0000 O   0  0  0  0  0  0  0  0  0
    2.1850   -0.3522    0.0000 N   0  0  0  0  0  0  0  0  0
    1.4705    0.0603    0.0000 C   0  0  0  0  0  0  0  0  0
    0.7560   -0.3522    0.0000 C   0  0  0  0  0  0  0  0  0
    0.0416    0.0603    0.0000 C   0  0  0  0  0  0  0  0  0
    0.0416    0.8853    0.0000 C   0  0  0  0  0  0  0  0  0
   -0.7431    1.1402    0.0000 N   0  0  0  0  0  0  0  0  0
   -1.2280    0.4728    0.0000 C   0  0  0  0  0  0  0  0  0
   -0.7431   -0.1946    0.0000 C   0  0  0  0  0  0  0  0  0
   -0.9980    1.9249    0.0000 C   0  0  0  0  0  0  0  0  0
    0.7560    1.2978    0.0000 C   0  0  0  0  0  0  0  0  0
    1.4705    0.8853    0.0000 C   0  0  0  0  0  0  0  0  0
    6.4546    0.2516    0.0000 C   0  0  0  0  0  0  0  0  0
  1  2  4  0  0  0  0
  1  5  4  0  0  0  0
  2  3  4  0  0  0  0
  3  4  4  0  0  0  0
  3 20  1  0  0  0  0
  4  5  4  0  0  0  0
  5  6  1  0  0  0  0
  6  7  1  0  0  0  0
  7  8  2  0  0  0  0
  7  9  1  0  0  0  0
  9 10  1  0  0  0  0
 10 11  4  0  0  0  0
 10 19  4  0  0  0  0
 11 12  4  0  0  0  0
 12 13  4  0  0  0  0
 12 16  4  0  0  0  0
 13 14  4  0  0  0  0
 13 18  4  0  0  0  0
 14 15  4  0  0  0  0
 14 17  1  0  0  0  0
 15 16  4  0  0  0  0
 18 19  4  0  0  0  0
M  END
>  <Name_Molregno>
SB204741

>  <5-HT1B>
5

>  <5-HT1D>
5

>  <5-HT1E>
5

>  <5-HT2A>
5.1

>  <5-HT2C>
5.73

>  <DOPAMINE D1>
5

>  <DOPAMINE D2>
5

>  <DOPAMINE D3>
5

$$$$
SKF77434
  Marvin  02231216192D 0   1.00000     0.00000     0

 22 24  0  0  1  0  0  0  0  0999 V2000
   -0.2985    0.9950    0.0000 O   0  0  0  0  0  0  0  0  0
    0.4160    1.4075    0.0000 C   0  0  0  0  0  0  0  0  0
    1.1304    0.9950    0.0000 C   0  0  0  0  0  0  0  0  0
    1.8449    1.4075    0.0000 C   0  0  0  0  0  0  0  0  0
    1.8449    2.2325    0.0000 C   0  0  0  0  0  0  0  0  0
    1.1304    2.6450    0.0000 C   0  0  0  0  0  0  0  0  0
    0.4160    2.2325    0.0000 C   0  0  0  0  0  0  0  0  0
   -0.2985    2.6450    0.0000 O   0  0  0  0  0  0  0  0  0
    2.4899    2.7469    0.0000 C   0  0  0  0  0  0  0  0  0
    3.2942    2.5633    0.0000 C   0  0  0  0  0  0  0  0  0
    3.6522    1.8200    0.0000 N   0  0  0  0  0  0  0  0  0
    3.2942    1.0767    0.0000 C   0  0  0  0  0  0  0  0  0
    2.4899    0.8931    0.0000 C   0  0  0  0  0  0  0  0  0
    2.3063    0.0888    0.0000 C   0  0  0  0  0  0  0  0  0
    2.9111   -0.4723    0.0000 C   0  0  0  0  0  0  0  0  0
    2.7275   -1.2766    0.0000 C   0  0  0  0  0  0  0  0  0
    1.9392   -1.5198    0.0000 C   0  0  0  0  0  0  0  0  0
    1.3344   -0.9587    0.0000 C   0  0  0  0  0  0  0  0  0
    1.5180   -0.1543    0.0000 C   0  0  0  0  0  0  0  0  0
    4.4772    1.8200    0.0000 C   0  0  0  0  0  0  0  0  0
    4.8897    1.1055    0.0000 C   0  0  0  0  0  0  0  0  0
    5.7147    1.1055    0.0000 C   0  0  0  0  0  0  0  0  0
  1  2  1  0  0  0  0
  2  3  4  0  0  0  0
  2  7  4  0  0  0  0
  3  4  4  0  0  0  0
  4  5  4  0  0  0  0
  4 13  1  0  0  0  0
  5  6  4  0  0  0  0
  5  9  1  0  0  0  0
  6  7  4  0  0  0  0
  7  8  1  0  0  0  0
  9 10  1  0  0  0  0
 10 11  1  0  0  0  0
 11 12  1  0  0  0  0
 11 20  1  0  0  0  0
 12 13  1  0  0  0  0
 13 14  1  0  0  0  0
 14 15  4  0  0  0  0
 14 19  4  0  0  0  0
 15 16  4  0  0  0  0
 16 17  4  0  0  0  0
 17 18  4  0  0  0  0
 18 19  4  0  0  0  0
 20 21  1  0  0  0  0
 21 22  2  0  0  0  0
M  END
>  <Name_Molregno>
SKF77434

>  <5-HT1A>
5.68

>  <DOPAMINE D1>
7.14

>  <DOPAMINE D2>
6.24

>  <DOPAMINE D3>
8

$$$$
SKF81297
  Marvin  02231216192D 0   1.00000     0.00000     0

 20 22  0  0  1  0  0  0  0  0999 V2000
    1.6428   -1.7438    0.0000 Cl  0  0  0  0  0  0  0  0  0
    1.6428   -0.9188    0.0000 C   0  0  0  0  0  0  0  0  0
    2.3573   -0.5063    0.0000 C   0  0  0  0  0  0  0  0  0
    2.3573    0.3187    0.0000 C   0  0  0  0  0  0  0  0  0
    1.6428    0.7312    0.0000 C   0  0  0  0  0  0  0  0  0
    0.9283    0.3187    0.0000 C   0  0  0  0  0  0  0  0  0
    0.2139    0.7312    0.0000 O   0  0  0  0  0  0  0  0  0
    0.9283   -0.5063    0.0000 C   0  0  0  0  0  0  0  0  0
    0.2139   -0.9188    0.0000 O   0  0  0  0  0  0  0  0  0
    3.0023    0.8331    0.0000 C   0  0  0  0  0  0  0  0  0
    3.8066    0.6495    0.0000 C   0  0  0  0  0  0  0  0  0
    4.1646   -0.0938    0.0000 N   0  0  0  0  0  0  0  0  0
    3.8066   -0.8371    0.0000 C   0  0  0  0  0  0  0  0  0
    3.0023   -1.0207    0.0000 C   0  0  0  0  0  0  0  0  0
    2.8187    1.6374    0.0000 C   0  0  0  0  0  0  0  0  0
    2.0304    1.8805    0.0000 C   0  0  0  0  0  0  0  0  0
    1.8468    2.6849    0.0000 C   0  0  0  0  0  0  0  0  0
    2.4516    3.2460    0.0000 C   0  0  0  0  0  0  0  0  0
    3.2399    3.0028    0.0000 C   0  0  0  0  0  0  0  0  0
    3.4235    2.1985    0.0000 C   0  0  0  0  0  0  0  0  0
  1  2  1  0  0  0  0
  2  3  4  0  0  0  0
  2  8  4  0  0  0  0
  3  4  4  0  0  0  0
  3 14  1  0  0  0  0
  4  5  4  0  0  0  0
  4 10  1  0  0  0  0
  5  6  4  0  0  0  0
  6  7  1  0  0  0  0
  6  8  4  0  0  0  0
  8  9  1  0  0  0  0
 10 11  1  0  0  0  0
 10 15  1  0  0  0  0
 11 12  1  0  0  0  0
 12 13  1  0  0  0  0
 13 14  1  0  0  0  0
 15 16  4  0  0  0  0
 15 20  4  0  0  0  0
 16 17  4  0  0  0  0
 17 18  4  0  0  0  0
 18 19  4  0  0  0  0
 19 20  4  0  0  0  0
M  END
>  <Name_Molregno>
SKF81297

>  <5-HT1A>
5.26

>  <DOPAMINE D1>
6.95

>  <DOPAMINE D2>
5

>  <DOPAMINE D3>
5.55

$$$$
SKF82958
  Marvin  02231216192D 0   1.00000     0.00000     0

 23 25  0  0  1  0  0  0  0  0999 V2000
   -0.8720   -4.5282    0.0000 Cl  0  0  0  0  0  0  0  0  0
   -0.8720   -3.7032    0.0000 C   0  0  0  0  0  0  0  0  0
   -0.1576   -3.2907    0.0000 C   0  0  0  0  0  0  0  0  0
   -0.1576   -2.4657    0.0000 C   0  0  0  0  0  0  0  0  0
   -0.8720   -2.0532    0.0000 C   0  0  0  0  0  0  0  0  0
   -1.5865   -2.4657    0.0000 C   0  0  0  0  0  0  0  0  0
   -2.3010   -2.0532    0.0000 O   0  0  0  0  0  0  0  0  0
   -1.5865   -3.2907    0.0000 C   0  0  0  0  0  0  0  0  0
   -2.3010   -3.7032    0.0000 O   0  0  0  0  0  0  0  0  0
    0.4875   -1.9514    0.0000 C   0  0  0  0  0  0  0  0  0
    1.2918   -2.1349    0.0000 C   0  0  0  0  0  0  0  0  0
    1.6497   -2.8782    0.0000 N   0  0  0  0  0  0  0  0  0
    1.2918   -3.6215    0.0000 C   0  0  0  0  0  0  0  0  0
    0.4875   -3.8051    0.0000 C   0  0  0  0  0  0  0  0  0
    2.4747   -2.8782    0.0000 C   0  0  0  0  0  0  0  0  0
    2.8872   -3.5927    0.0000 C   0  0  0  0  0  0  0  0  0
    3.7122   -3.5927    0.0000 C   0  0  0  0  0  0  0  0  0
    0.3039   -1.1470    0.0000 C   0  0  0  0  0  0  0  0  0
   -0.4845   -0.9039    0.0000 C   0  0  0  0  0  0  0  0  0
   -0.6681   -0.0996    0.0000 C   0  0  0  0  0  0  0  0  0
   -0.0633    0.4616    0.0000 C   0  0  0  0  0  0  0  0  0
    0.7251    0.2184    0.0000 C   0  0  0  0  0  0  0  0  0
    0.9086   -0.5859    0.0000 C   0  0  0  0  0  0  0  0  0
  1  2  1  0  0  0  0
  2  3  4  0  0  0  0
  2  8  4  0  0  0  0
  3  4  4  0  0  0  0
  3 14  1  0  0  0  0
  4  5  4  0  0  0  0
  4 10  1  0  0  0  0
  5  6  4  0  0  0  0
  6  7  1  0  0  0  0
  6  8  4  0  0  0  0
  8  9  1  0  0  0  0
 10 11  1  0  0  0  0
 10 18  1  0  0  0  0
 11 12  1  0  0  0  0
 12 13  1  0  0  0  0
 12 15  1  0  0  0  0
 13 14  1  0  0  0  0
 15 16  1  0  0  0  0
 16 17  2  0  0  0  0
 18 19  4  0  0  0  0
 18 23  4  0  0  0  0
 19 20  4  0  0  0  0
 20 21  4  0  0  0  0
 21 22  4  0  0  0  0
 22 23  4  0  0  0  0
M  END
>  <Name_Molregno>
SKF82958

>  <5-HT1A>
5.75

>  <DOPAMINE D1>
7.66

>  <DOPAMINE D2>
6.87

>  <DOPAMINE D3>
7.14

$$$$
SKF83566
  Marvin  02231216192D 0   1.00000     0.00000     0

 20 22  0  0  1  0  0  0  0  0999 V2000
    0.1938   -0.4763    0.0000 Br  0  0  0  0  0  0  0  0  0
    0.9083   -0.0638    0.0000 C   0  0  0  0  0  0  0  0  0
    1.6227   -0.4763    0.0000 C   0  0  0  0  0  0  0  0  0
    2.3372   -0.0638    0.0000 C   0  0  0  0  0  0  0  0  0
    2.3372    0.7612    0.0000 C   0  0  0  0  0  0  0  0  0
    1.6227    1.1737    0.0000 C   0  0  0  0  0  0  0  0  0
    0.9083    0.7612    0.0000 C   0  0  0  0  0  0  0  0  0
    0.1938    1.1737    0.0000 O   0  0  0  0  0  0  0  0  0
    2.9822    1.2756    0.0000 C   0  0  0  0  0  0  0  0  0
    3.7865    1.0920    0.0000 C   0  0  0  0  0  0  0  0  0
    4.1445    0.3487    0.0000 N   0  0  0  0  0  0  0  0  0
    3.7865   -0.3946    0.0000 C   0  0  0  0  0  0  0  0  0
    2.9822   -0.5782    0.0000 C   0  0  0  0  0  0  0  0  0
    4.9695    0.3487    0.0000 C   0  0  0  0  0  0  0  0  0
    2.7986    2.0799    0.0000 C   0  0  0  0  0  0  0  0  0
    2.0103    2.3230    0.0000 C   0  0  0  0  0  0  0  0  0
    1.8267    3.1274    0.0000 C   0  0  0  0  0  0  0  0  0
    2.4315    3.6885    0.0000 C   0  0  0  0  0  0  0  0  0
    3.2198    3.4453    0.0000 C   0  0  0  0  0  0  0  0  0
    3.4034    2.6410    0.0000 C   0  0  0  0  0  0  0  0  0
  1  2  1  0  0  0  0
  2  3  4  0  0  0  0
  2  7  4  0  0  0  0
  3  4  4  0  0  0  0
  4  5  4  0  0  0  0
  4 13  1  0  0  0  0
  5  6  4  0  0  0  0
  5  9  1  0  0  0  0
  6  7  4  0  0  0  0
  7  8  1  0  0  0  0
  9 10  1  0  0  0  0
  9 15  1  0  0  0  0
 10 11  1  0  0  0  0
 11 12  1  0  0  0  0
 11 14  1  0  0  0  0
 12 13  1  0  0  0  0
 15 16  4  0  0  0  0
 15 20  4  0  0  0  0
 16 17  4  0  0  0  0
 17 18  4  0  0  0  0
 18 19  4  0  0  0  0
 19 20  4  0  0  0  0
M  END
>  <Name_Molregno>
SKF83566

>  <DOPAMINE D1>
9.52

>  <DOPAMINE D5>
9.4

$$$$
SPIPERONE
  Marvin  02231216192D 0   1.00000     0.00000     0

 29 32  0  0  0  0  0  0  0  0999 V2000
   10.5422    0.0060    0.0000 F   0  0  0  0  0  0  0  0  0
    9.7172    0.0060    0.0000 C   0  0  0  0  0  0  0  0  0
    9.3047   -0.7084    0.0000 C   0  0  0  0  0  0  0  0  0
    8.4797   -0.7084    0.0000 C   0  0  0  0  0  0  0  0  0
    8.0672    0.0060    0.0000 C   0  0  0  0  0  0  0  0  0
    8.4797    0.7205    0.0000 C   0  0  0  0  0  0  0  0  0
    9.3047    0.7205    0.0000 C   0  0  0  0  0  0  0  0  0
    7.2422    0.0060    0.0000 C   0  0  0  0  0  0  0  0  0
    6.8297    0.7205    0.0000 O   0  0  0  0  0  0  0  0  0
    6.8297   -0.7084    0.0000 C   0  0  0  0  0  0  0  0  0
    6.0047   -0.7084    0.0000 C   0  0  0  0  0  0  0  0  0
    5.5922   -1.4229    0.0000 C   0  0  0  0  0  0  0  0  0
    4.7672   -1.4229    0.0000 N   0  0  0  0  0  0  0  0  0
    4.3547   -2.1374    0.0000 C   0  0  0  0  0  0  0  0  0
    3.5297   -2.1374    0.0000 C   0  0  0  0  0  0  0  0  0
    3.1172   -1.4229    0.0000 C   0  0  0  0  0  0  0  0  0
    2.6323   -2.0903    0.0000 N   0  0  0  0  0  0  0  0  0
    1.8476   -1.8354    0.0000 C   0  0  0  0  0  0  0  0  0
    1.8476   -1.0104    0.0000 N   0  0  0  0  0  0  0  0  0
    2.6323   -0.7555    0.0000 C   0  0  0  0  0  0  0  0  0
    2.8872    0.0292    0.0000 O   0  0  0  0  0  0  0  0  0
    2.8872   -2.8750    0.0000 C   0  0  0  0  0  0  0  0  0
    3.6942   -3.0465    0.0000 C   0  0  0  0  0  0  0  0  0
    3.9491   -3.8311    0.0000 C   0  0  0  0  0  0  0  0  0
    3.3971   -4.4442    0.0000 C   0  0  0  0  0  0  0  0  0
    2.5901   -4.2727    0.0000 C   0  0  0  0  0  0  0  0  0
    2.3352   -3.4880    0.0000 C   0  0  0  0  0  0  0  0  0
    3.5297   -0.7084    0.0000 C   0  0  0  0  0  0  0  0  0
    4.3547   -0.7084    0.0000 C   0  0  0  0  0  0  0  0  0
  1  2  1  0  0  0  0
  2  3  4  0  0  0  0
  2  7  4  0  0  0  0
  3  4  4  0  0  0  0
  4  5  4  0  0  0  0
  5  6  4  0  0  0  0
  5  8  1  0  0  0  0
  6  7  4  0  0  0  0
  8  9  2  0  0  0  0
  8 10  1  0  0  0  0
 10 11  1  0  0  0  0
 11 12  1  0  0  0  0
 12 13  1  0  0  0  0
 13 14  1  0  0  0  0
 13 29  1  0  0  0  0
 14 15  1  0  0  0  0
 15 16  1  0  0  0  0
 16 17  1  0  0  0  0
 16 20  1  0  0  0  0
 16 28  1  0  0  0  0
 17 18  1  0  0  0  0
 17 22  1  0  0  0  0
 18 19  1  0  0  0  0
 19 20  1  0  0  0  0
 20 21  2  0  0  0  0
 22 23  4  0  0  0  0
 22 27  4  0  0  0  0
 23 24  4  0  0  0  0
 24 25  4  0  0  0  0
 25 26  4  0  0  0  0
 26 27  4  0  0  0  0
 28 29  1  0  0  0  0
M  END
>  <Name_Molregno>
SPIPERONE

>  <5-HT1A>
7

>  <5-HT1B>
5.5

>  <5-HT1D>
5.4

>  <5-HT1E>
5.3

>  <5-HT2A>
8.65

>  <5-HT2C>
6.12

>  <5-HT5>
4.2

>  <5-HT6>
5.8

>  <5-HT7>
7.17

>  <Alpha-1A>
7.9

>  <Alpha-1B>
8.51

>  <DOPAMINE D1>
6.42

>  <DOPAMINE D2>
10.02

>  <DOPAMINE D3>
9.55

>  <DOPAMINE D4>
9.31

>  <DOPAMINE D5>
5.35

>  <HISTAMINE H1>
6.4

$$$$
SR144528
  Marvin  02231216192D 0   1.00000     0.00000     0

 34 38  0  0  1  0  0  0  0  0999 V2000
   -3.4859   -7.8445    0.0000 Cl  0  0  0  0  0  0  0  0  0
   -3.3410   -7.0323    0.0000 C   0  0  0  0  0  0  0  0  0
   -3.9720   -6.5008    0.0000 C   0  0  0  0  0  0  0  0  0
   -3.8271   -5.6886    0.0000 C   0  0  0  0  0  0  0  0  0
   -3.0513   -5.4080    0.0000 C   0  0  0  0  0  0  0  0  0
   -2.4203   -5.9395    0.0000 C   0  0  0  0  0  0  0  0  0
   -2.5652   -6.7517    0.0000 C   0  0  0  0  0  0  0  0  0
   -1.9343   -7.2833    0.0000 C   0  0  0  0  0  0  0  0  0
   -2.9064   -4.5958    0.0000 C   0  0  0  0  0  0  0  0  0
   -3.4783   -4.0012    0.0000 N   0  0  0  0  0  0  0  0  0
   -3.0895   -3.2735    0.0000 N   0  0  0  0  0  0  0  0  0
   -2.2773   -3.4184    0.0000 C   0  0  0  0  0  0  0  0  0
   -2.1641   -4.2356    0.0000 C   0  0  0  0  0  0  0  0  0
   -1.6827   -2.8465    0.0000 C   0  0  0  0  0  0  0  0  0
   -1.8807   -2.0456    0.0000 O   0  0  0  0  0  0  0  0  0
   -0.8901   -3.0755    0.0000 N   0  0  0  0  0  0  0  0  0
   -0.2955   -2.5036    0.0000 C   0  0  0  0  0  0  0  0  0
    0.0698   -1.8431    0.0000 C   0  0  0  0  0  0  0  0  0
    0.7101   -1.3929    0.0000 C   0  0  0  0  0  0  0  0  0
    0.5501   -0.5775    0.0000 C   0  0  0  0  0  0  0  0  0
    0.4800   -2.1133    0.0000 C   0  0  0  0  0  0  0  0  0
    1.2105   -2.4836    0.0000 C   0  0  0  0  0  0  0  0  0
    1.5056   -1.8582    0.0000 C   0  0  0  0  0  0  0  0  0
    0.4788   -2.9383    0.0000 C   0  0  0  0  0  0  0  0  0
   -0.7153   -1.5897    0.0000 C   0  0  0  0  0  0  0  0  0
   -0.2665   -1.0898    0.0000 C   0  0  0  0  0  0  0  0  0
   -4.2955   -4.1144    0.0000 C   0  0  0  0  0  0  0  0  0
   -4.8021   -3.4633    0.0000 C   0  0  0  0  0  0  0  0  0
   -5.6193   -3.5764    0.0000 C   0  0  0  0  0  0  0  0  0
   -6.1259   -2.9253    0.0000 C   0  0  0  0  0  0  0  0  0
   -5.8153   -2.1610    0.0000 C   0  0  0  0  0  0  0  0  0
   -4.9981   -2.0478    0.0000 C   0  0  0  0  0  0  0  0  0
   -4.4915   -2.6989    0.0000 C   0  0  0  0  0  0  0  0  0
   -6.3219   -1.5099    0.0000 C   0  0  0  0  0  0  0  0  0
  1  2  1  0  0  0  0
  2  3  4  0  0  0  0
  2  7  4  0  0  0  0
  3  4  4  0  0  0  0
  4  5  4  0  0  0  0
  5  6  4  0  0  0  0
  5  9  1  0  0  0  0
  6  7  4  0  0  0  0
  7  8  1  0  0  0  0
  9 10  4  0  0  0  0
  9 13  4  0  0  0  0
 10 11  4  0  0  0  0
 10 27  1  0  0  0  0
 11 12  4  0  0  0  0
 12 13  4  0  0  0  0
 12 14  1  0  0  0  0
 14 15  2  0  0  0  0
 14 16  1  0  0  0  0
 16 17  1  0  0  0  0
 17 18  1  0  0  0  0
 17 21  1  0  0  0  0
 18 19  1  0  0  0  0
 18 25  1  0  0  0  0
 18 26  1  0  0  0  0
 19 20  1  0  0  0  0
 19 23  1  0  0  0  0
 20 21  1  0  0  0  0
 21 22  1  0  0  0  0
 21 24  1  0  0  0  0
 22 23  1  0  0  0  0
 27 28  1  0  0  0  0
 28 29  4  0  0  0  0
 28 33  4  0  0  0  0
 29 30  4  0  0  0  0
 30 31  4  0  0  0  0
 31 32  4  0  0  0  0
 31 34  1  0  0  0  0
 32 33  4  0  0  0  0
M  END
>  <Name_Molregno>
SR144528

>  <5-HT1A>
5

>  <5-HT1B>
5

>  <5-HT1D>
5

>  <5-HT2A>
5

>  <5-HT2C>
5

>  <5-HT3>
5

>  <Beta-1>
5

>  <Beta-2>
5

>  <DOPAMINE D1>
5

>  <DOPAMINE D2>
5

>  <DOPAMINE D3>
5

>  <DOPAMINE D4>
5

>  <HISTAMINE H1>
5

>  <HISTAMINE H2>
5

>  <HISTAMINE H3>
5

>  <Muscarinic acetylcholine receptor M1>
5

>  <Muscarinic acetylcholine receptor M2>
5

>  <Muscarinic acetylcholine receptor M4>
5

$$$$
SR46349B
  Marvin  02231216192D 0   1.00000     0.00000     0

 24 25  0  0  0  0  0  0  0  0999 V2000
   -0.7835    2.8630    0.0000 F   0  0  0  0  0  0  0  0  0
   -0.0691    3.2755    0.0000 C   0  0  0  0  0  0  0  0  0
   -0.0691    4.1005    0.0000 C   0  0  0  0  0  0  0  0  0
    0.6454    4.5130    0.0000 C   0  0  0  0  0  0  0  0  0
    1.3599    4.1005    0.0000 C   0  0  0  0  0  0  0  0  0
    1.3599    3.2755    0.0000 C   0  0  0  0  0  0  0  0  0
    0.6454    2.8630    0.0000 C   0  0  0  0  0  0  0  0  0
    0.6454    2.0380    0.0000 C   0  0  0  0  0  0  0  0  0
    1.3599    1.6255    0.0000 N   0  0  0  0  0  0  0  0  0
    2.0743    2.0380    0.0000 O   0  0  0  0  0  0  0  0  0
    2.7888    1.6255    0.0000 C   0  0  0  0  0  0  0  0  0
    3.5033    2.0380    0.0000 C   0  0  0  0  0  0  0  0  0
    4.2177    1.6255    0.0000 N   0  0  0  0  0  0  0  0  0
    4.9322    2.0380    0.0000 C   0  0  0  0  0  0  0  0  0
    4.2177    0.8005    0.0000 C   0  0  0  0  0  0  0  0  0
   -0.0691    1.6255    0.0000 C   0  0  0  0  0  0  0  0  0
   -0.0691    0.8005    0.0000 C   0  0  0  0  0  0  0  0  0
   -0.7835    0.3880    0.0000 C   0  0  0  0  0  0  0  0  0
   -0.7835   -0.4370    0.0000 C   0  0  0  0  0  0  0  0  0
   -1.4980   -0.8495    0.0000 C   0  0  0  0  0  0  0  0  0
   -2.2125   -0.4370    0.0000 C   0  0  0  0  0  0  0  0  0
   -2.9270   -0.8495    0.0000 O   0  0  0  0  0  0  0  0  0
   -2.2125    0.3880    0.0000 C   0  0  0  0  0  0  0  0  0
   -1.4980    0.8005    0.0000 C   0  0  0  0  0  0  0  0  0
  1  2  1  0  0  0  0
  2  3  4  0  0  0  0
  2  7  4  0  0  0  0
  3  4  4  0  0  0  0
  4  5  4  0  0  0  0
  5  6  4  0  0  0  0
  6  7  4  0  0  0  0
  7  8  1  0  0  0  0
  8  9  1  0  0  0  0
  8 16  2  0  0  0  0
  9 10  1  0  0  0  0
 10 11  1  0  0  0  0
 11 12  1  0  0  0  0
 12 13  1  0  0  0  0
 13 14  1  0  0  0  0
 13 15  1  0  0  0  0
 16 17  1  0  0  0  0
 17 18  2  0  0  0  0
 18 19  1  0  0  0  0
 18 24  1  0  0  0  0
 19 20  2  0  0  0  0
 20 21  1  0  0  0  0
 21 22  2  0  0  0  0
 21 23  1  0  0  0  0
 23 24  2  0  0  0  0
M  END
>  <Name_Molregno>
SR46349B

>  <5-HT1A>
5.6

>  <5-HT2A>
9

>  <5-HT2C>
8.09

>  <5-HT5>
5.76

>  <5-HT6>
5.41

>  <Alpha-2A>
6.14

>  <Alpha-2C>
5.67

>  <DOPAMINE D1>
5

>  <Dopamine transporter>
5.25

>  <Muscarinic acetylcholine receptor M1>
6.14

>  <Muscarinic acetylcholine receptor M2>
5

>  <Muscarinic acetylcholine receptor M3>
5.62

>  <Muscarinic acetylcholine receptor M4>
5.44

>  <Muscarinic acetylcholine receptor M5>
5.52

>  <Norepinephrine transporter>
6.13

$$$$
SULPIRIDE
  Marvin  02231216192D 0   1.00000     0.00000     0

 23 24  0  0  1  0  0  0  0  0999 V2000
   -2.6543    0.9455    0.0000 S   0  0  0  0  0  0  0  0  0
   -2.6543    1.7705    0.0000 O   0  0  0  0  0  0  0  0  0
   -3.4793    0.9455    0.0000 O   0  0  0  0  0  0  0  0  0
   -1.8293    0.9455    0.0000 N   0  0  0  0  0  0  0  0  0
   -2.6543    0.1205    0.0000 C   0  0  0  0  0  0  0  0  0
   -1.9398   -0.2920    0.0000 C   0  0  0  0  0  0  0  0  0
   -1.9398   -1.1170    0.0000 C   0  0  0  0  0  0  0  0  0
   -1.2253   -1.5295    0.0000 C   0  0  0  0  0  0  0  0  0
   -0.5109   -1.1170    0.0000 O   0  0  0  0  0  0  0  0  0
   -1.2253   -2.3545    0.0000 N   0  0  0  0  0  0  0  0  0
   -0.5109   -2.7670    0.0000 C   0  0  0  0  0  0  0  0  0
   -0.5109   -3.5920    0.0000 C   0  0  0  0  0  0  0  0  0
    0.1566   -4.0770    0.0000 N   0  0  0  0  0  0  0  0  0
   -0.0984   -4.8616    0.0000 C   0  0  0  0  0  0  0  0  0
   -0.9234   -4.8616    0.0000 C   0  0  0  0  0  0  0  0  0
   -1.1783   -4.0770    0.0000 C   0  0  0  0  0  0  0  0  0
    0.9412   -3.8220    0.0000 C   0  0  0  0  0  0  0  0  0
    1.1127   -3.0150    0.0000 C   0  0  0  0  0  0  0  0  0
   -2.6543   -1.5295    0.0000 C   0  0  0  0  0  0  0  0  0
   -2.6543   -2.3545    0.0000 O   0  0  0  0  0  0  0  0  0
   -3.3687   -2.7670    0.0000 C   0  0  0  0  0  0  0  0  0
   -3.3687   -1.1170    0.0000 C   0  0  0  0  0  0  0  0  0
   -3.3687   -0.2920    0.0000 C   0  0  0  0  0  0  0  0  0
  1  2  2  0  0  0  0
  1  3  2  0  0  0  0
  1  4  1  0  0  0  0
  1  5  1  0  0  0  0
  5  6  4  0  0  0  0
  5 23  4  0  0  0  0
  6  7  4  0  0  0  0
  7  8  1  0  0  0  0
  7 19  4  0  0  0  0
  8  9  2  0  0  0  0
  8 10  1  0  0  0  0
 10 11  1  0  0  0  0
 11 12  1  0  0  0  0
 12 13  1  0  0  0  0
 12 16  1  0  0  0  0
 13 14  1  0  0  0  0
 13 17  1  0  0  0  0
 14 15  1  0  0  0  0
 15 16  1  0  0  0  0
 17 18  1  0  0  0  0
 19 20  1  0  0  0  0
 19 22  4  0  0  0  0
 20 21  1  0  0  0  0
 22 23  4  0  0  0  0
M  END
>  <Name_Molregno>
SULPIRIDE

>  <5-HT1A>
5

>  <5-HT3>
5

>  <DOPAMINE D1>
5

>  <DOPAMINE D2>
7.23

>  <DOPAMINE D3>
7.64

>  <DOPAMINE D4>
6.54

>  <DOPAMINE D5>
5

$$$$
TERGURIDE
  Marvin  02231216192D 0   1.00000     0.00000     0

 25 28  0  0  1  0  0  0  0  0999 V2000
   -0.3965   -3.1617    0.0000 O   0  0  0  0  0  0  0  0  0
    0.3175   -3.5751    0.0000 C   0  0  0  0  0  0  0  0  0
    1.0325   -3.1634    0.0000 N   0  0  0  0  0  0  0  0  0
    1.0334   -2.3384    0.0000 C   0  0  0  0  0  0  0  0  0
    1.7484   -1.9268    0.0000 C   0  0  0  0  0  0  0  0  0
    1.7494   -1.1018    0.0000 C   0  0  0  0  0  0  0  0  0
    1.0354   -0.6884    0.0000 C   0  0  0  0  0  0  0  0  0
    0.3205   -1.1001    0.0000 N   0  0  0  0  0  0  0  0  0
    0.3195   -1.9251    0.0000 C   0  0  0  0  0  0  0  0  0
   -0.3935   -0.6867    0.0000 C   0  0  0  0  0  0  0  0  0
    1.0369    0.1357    0.0000 C   0  0  0  0  0  0  0  0  0
    1.7494    0.5482    0.0000 C   0  0  0  0  0  0  0  0  0
    2.4619    0.1357    0.0000 C   0  0  0  0  0  0  0  0  0
    2.4619   -0.6893    0.0000 C   0  0  0  0  0  0  0  0  0
    3.1798   -1.1018    0.0000 C   0  0  0  0  0  0  0  0  0
    3.8923   -0.6893    0.0000 C   0  0  0  0  0  0  0  0  0
    3.8923    0.1357    0.0000 C   0  0  0  0  0  0  0  0  0
    3.1798    0.5482    0.0000 C   0  0  0  0  0  0  0  0  0
    2.8744    1.4054    0.0000 N   0  0  0  0  0  0  0  0  0
    2.0494    1.4054    0.0000 C   0  0  0  0  0  0  0  0  0
    0.3165   -4.4001    0.0000 N   0  0  0  0  0  0  0  0  0
   -0.3985   -4.8117    0.0000 C   0  0  0  0  0  0  0  0  0
   -0.3994   -5.6367    0.0000 C   0  0  0  0  0  0  0  0  0
    1.0305   -4.8134    0.0000 C   0  0  0  0  0  0  0  0  0
    1.0295   -5.6384    0.0000 C   0  0  0  0  0  0  0  0  0
  1  2  2  0  0  0  0
  2  3  1  0  0  0  0
  2 21  1  0  0  0  0
  3  4  1  0  0  0  0
  4  5  1  0  0  0  0
  4  9  1  0  0  0  0
  5  6  1  0  0  0  0
  6  7  1  0  0  0  0
  6 14  1  0  0  0  0
  7  8  1  0  0  0  0
  7 11  1  0  0  0  0
  8  9  1  0  0  0  0
  8 10  1  0  0  0  0
 11 12  1  0  0  0  0
 12 13  4  0  0  0  0
 12 20  4  0  0  0  0
 13 14  4  0  0  0  0
 13 18  4  0  0  0  0
 14 15  4  0  0  0  0
 15 16  4  0  0  0  0
 16 17  4  0  0  0  0
 17 18  4  0  0  0  0
 18 19  4  0  0  0  0
 19 20  4  0  0  0  0
 21 22  1  0  0  0  0
 21 24  1  0  0  0  0
 22 23  1  0  0  0  0
 24 25  1  0  0  0  0
M  STY  1   1 DAT
M  SAL   1  1  19
M  SDT   1 MRV_IMPLICIT_H                                        
M  SDD   1     0.0000    0.0000    DR    ALL  0       0  
M  SED   1 IMPL_H1
M  END
>  <Name_Molregno>
TERGURIDE

>  <5-HT1A>
8.46

>  <5-HT1B>
6.59

>  <5-HT1D>
7.79

>  <5-HT2A>
8.32

>  <5-HT2C>
7.32

>  <Alpha-1A>
8.45

>  <Alpha-1B>
7.46

>  <Alpha-2A>
9.53

>  <Alpha-2B>
9.35

>  <Alpha-2C>
9.12

>  <Beta-1>
6.18

>  <Beta-2>
7.7

>  <DOPAMINE D1>
7.55

>  <DOPAMINE D2>
9.06

>  <DOPAMINE D3>
9

>  <DOPAMINE D4>
8.18

>  <DOPAMINE D5>
7.63

$$$$
THIORIDAZINE
  Marvin  02231216192D 0   1.00000     0.00000     0

 25 28  0  0  1  0  0  0  0  0999 V2000
    1.0601   -0.3753    0.0000 S   0  0  0  0  0  0  0  0  0
    1.7746    0.0372    0.0000 C   0  0  0  0  0  0  0  0  0
    1.7746    0.8622    0.0000 C   0  0  0  0  0  0  0  0  0
    1.0601    1.2747    0.0000 N   0  0  0  0  0  0  0  0  0
    0.3456    0.8622    0.0000 C   0  0  0  0  0  0  0  0  0
    0.3456    0.0372    0.0000 C   0  0  0  0  0  0  0  0  0
   -0.3689   -0.3753    0.0000 C   0  0  0  0  0  0  0  0  0
   -1.0833    0.0372    0.0000 C   0  0  0  0  0  0  0  0  0
   -1.0833    0.8622    0.0000 C   0  0  0  0  0  0  0  0  0
   -0.3689    1.2747    0.0000 C   0  0  0  0  0  0  0  0  0
    1.0601    2.0997    0.0000 C   0  0  0  0  0  0  0  0  0
    0.3456    2.5122    0.0000 C   0  0  0  0  0  0  0  0  0
    0.3456    3.3372    0.0000 C   0  0  0  0  0  0  0  0  0
   -0.3689    3.7497    0.0000 N   0  0  0  0  0  0  0  0  0
   -0.3689    4.5747    0.0000 C   0  0  0  0  0  0  0  0  0
    0.3456    4.9872    0.0000 C   0  0  0  0  0  0  0  0  0
    1.0601    4.5747    0.0000 C   0  0  0  0  0  0  0  0  0
    1.0601    3.7497    0.0000 C   0  0  0  0  0  0  0  0  0
   -1.0833    3.3372    0.0000 C   0  0  0  0  0  0  0  0  0
    2.4890    1.2747    0.0000 C   0  0  0  0  0  0  0  0  0
    3.2035    0.8622    0.0000 C   0  0  0  0  0  0  0  0  0
    3.9180    1.2747    0.0000 S   0  0  0  0  0  0  0  0  0
    3.9180    2.0997    0.0000 C   0  0  0  0  0  0  0  0  0
    3.2035    0.0372    0.0000 C   0  0  0  0  0  0  0  0  0
    2.4890   -0.3753    0.0000 C   0  0  0  0  0  0  0  0  0
  1  2  1  0  0  0  0
  1  6  1  0  0  0  0
  2  3  4  0  0  0  0
  2 25  4  0  0  0  0
  3  4  1  0  0  0  0
  3 20  4  0  0  0  0
  4  5  1  0  0  0  0
  4 11  1  0  0  0  0
  5  6  4  0  0  0  0
  5 10  4  0  0  0  0
  6  7  4  0  0  0  0
  7  8  4  0  0  0  0
  8  9  4  0  0  0  0
  9 10  4  0  0  0  0
 11 12  1  0  0  0  0
 12 13  1  0  0  0  0
 13 14  1  0  0  0  0
 13 18  1  0  0  0  0
 14 15  1  0  0  0  0
 14 19  1  0  0  0  0
 15 16  1  0  0  0  0
 16 17  1  0  0  0  0
 17 18  1  0  0  0  0
 20 21  4  0  0  0  0
 21 22  1  0  0  0  0
 21 24  4  0  0  0  0
 22 23  1  0  0  0  0
 24 25  4  0  0  0  0
M  END
>  <Name_Molregno>
THIORIDAZINE

>  <5-HT1A>
6.85

>  <5-HT1B>
6.96

>  <5-HT1D>
6.24

>  <5-HT1E>
6.71

>  <5-HT2A>
7.95

>  <5-HT2C>
7.28

>  <5-HT3>
5

>  <5-HT5>
6.44

>  <5-HT6>
7.24

>  <5-HT7>
7.05

>  <Alpha-1A>
8.6

>  <Alpha-1B>
8.62

>  <Alpha-2A>
6.87

>  <Alpha-2B>
6.47

>  <Alpha-2C>
7.13

>  <Beta-1>
5

>  <Beta-2>
5

>  <DOPAMINE D1>
7.03

>  <DOPAMINE D2>
8.31

>  <DOPAMINE D3>
8.59

>  <DOPAMINE D4>
8.21

>  <DOPAMINE D5>
6.6

>  <Dopamine transporter>
5.77

>  <HISTAMINE H1>
7.79

>  <HISTAMINE H2>
6.87

>  <HISTAMINE H4>
5.62

>  <Muscarinic acetylcholine receptor M1>
8.21

>  <Muscarinic acetylcholine receptor M2>
7.26

>  <Muscarinic acetylcholine receptor M3>
7.6

>  <Muscarinic acetylcholine receptor M4>
7.38

>  <Muscarinic acetylcholine receptor M5>
7.9

>  <Norepinephrine transporter>
6.07

>  <Serotonin transporter>
5.9

$$$$
TRANYLCYPROMINE
  Marvin  02231216192D 0   1.00000     0.00000     0

 10 11  0  0  1  0  0  0  0  0999 V2000
    3.0600    1.1452    0.0000 N   0  0  0  0  0  0  0  0  0
    3.0600    0.3202    0.0000 C   0  0  0  0  0  0  0  0  0
    3.4725   -0.3943    0.0000 C   0  0  0  0  0  0  0  0  0
    2.6475   -0.3943    0.0000 C   0  0  0  0  0  0  0  0  0
    1.9330   -0.8068    0.0000 C   0  0  0  0  0  0  0  0  0
    1.9330   -1.6318    0.0000 C   0  0  0  0  0  0  0  0  0
    1.2185   -2.0443    0.0000 C   0  0  0  0  0  0  0  0  0
    0.5040   -1.6318    0.0000 C   0  0  0  0  0  0  0  0  0
    0.5040   -0.8068    0.0000 C   0  0  0  0  0  0  0  0  0
    1.2185   -0.3943    0.0000 C   0  0  0  0  0  0  0  0  0
  1  2  1  0  0  0  0
  2  3  1  0  0  0  0
  2  4  1  0  0  0  0
  3  4  1  0  0  0  0
  4  5  1  0  0  0  0
  5  6  4  0  0  0  0
  5 10  4  0  0  0  0
  6  7  4  0  0  0  0
  7  8  4  0  0  0  0
  8  9  4  0  0  0  0
  9 10  4  0  0  0  0
M  END
>  <Name_Molregno>
TRANYLCYPROMINE

>  <5-HT1A>
5.22

>  <DOPAMINE D1>
5

>  <DOPAMINE D2>
5

>  <Dopamine transporter>
5.29

>  <Norepinephrine transporter>
5.23

>  <Serotonin transporter>
5

$$$$
TRAZODONE
  Marvin  02231216192D 0   1.00000     0.00000     0

 26 29  0  0  0  0  0  0  0  0999 V2000
    0.6158   -2.7707    0.0000 Cl  0  0  0  0  0  0  0  0  0
    1.4408   -2.7707    0.0000 C   0  0  0  0  0  0  0  0  0
    1.8533   -2.0563    0.0000 C   0  0  0  0  0  0  0  0  0
    2.6783   -2.0563    0.0000 C   0  0  0  0  0  0  0  0  0
    3.0908   -1.3418    0.0000 N   0  0  0  0  0  0  0  0  0
    2.6783   -0.6273    0.0000 C   0  0  0  0  0  0  0  0  0
    3.0908    0.0872    0.0000 C   0  0  0  0  0  0  0  0  0
    3.9158    0.0872    0.0000 N   0  0  0  0  0  0  0  0  0
    4.3283   -0.6273    0.0000 C   0  0  0  0  0  0  0  0  0
    3.9158   -1.3418    0.0000 C   0  0  0  0  0  0  0  0  0
    4.3283    0.8016    0.0000 C   0  0  0  0  0  0  0  0  0
    5.1533    0.8016    0.0000 C   0  0  0  0  0  0  0  0  0
    5.5658    1.5161    0.0000 C   0  0  0  0  0  0  0  0  0
    6.3908    1.5161    0.0000 N   0  0  0  0  0  0  0  0  0
    6.8757    0.8487    0.0000 N   0  0  0  0  0  0  0  0  0
    7.6604    1.1036    0.0000 C   0  0  0  0  0  0  0  0  0
    7.6604    1.9286    0.0000 N   0  0  0  0  0  0  0  0  0
    8.3748    2.3411    0.0000 C   0  0  0  0  0  0  0  0  0
    9.0893    1.9286    0.0000 C   0  0  0  0  0  0  0  0  0
    9.0893    1.1036    0.0000 C   0  0  0  0  0  0  0  0  0
    8.3748    0.6911    0.0000 C   0  0  0  0  0  0  0  0  0
    6.8757    2.1835    0.0000 C   0  0  0  0  0  0  0  0  0
    6.6208    2.9682    0.0000 O   0  0  0  0  0  0  0  0  0
    3.0908   -2.7707    0.0000 C   0  0  0  0  0  0  0  0  0
    2.6783   -3.4852    0.0000 C   0  0  0  0  0  0  0  0  0
    1.8533   -3.4852    0.0000 C   0  0  0  0  0  0  0  0  0
  1  2  1  0  0  0  0
  2  3  4  0  0  0  0
  2 26  4  0  0  0  0
  3  4  4  0  0  0  0
  4  5  1  0  0  0  0
  4 24  4  0  0  0  0
  5  6  1  0  0  0  0
  5 10  1  0  0  0  0
  6  7  1  0  0  0  0
  7  8  1  0  0  0  0
  8  9  1  0  0  0  0
  8 11  1  0  0  0  0
  9 10  1  0  0  0  0
 11 12  1  0  0  0  0
 12 13  1  0  0  0  0
 13 14  1  0  0  0  0
 14 15  1  0  0  0  0
 14 22  1  0  0  0  0
 15 16  2  0  0  0  0
 16 17  1  0  0  0  0
 16 21  1  0  0  0  0
 17 18  1  0  0  0  0
 17 22  1  0  0  0  0
 18 19  2  0  0  0  0
 19 20  1  0  0  0  0
 20 21  2  0  0  0  0
 22 23  2  0  0  0  0
 24 25  4  0  0  0  0
 25 26  4  0  0  0  0
M  END
>  <Name_Molregno>
TRAZODONE

>  <5-HT1A>
6.97

>  <5-HT1B>
5

>  <5-HT1D>
6.97

>  <5-HT1E>
5

>  <5-HT2A>
7.46

>  <5-HT2C>
6.65

>  <5-HT3>
5

>  <5-HT5>
5

>  <5-HT6>
5

>  <5-HT7>
5.75

>  <Alpha-1A>
6.82

>  <Alpha-2A>
6.14

>  <Alpha-2C>
6.81

>  <Beta-1>
5

>  <Beta-2>
5

>  <DOPAMINE D1>
5.43

>  <DOPAMINE D2>
5.42

>  <DOPAMINE D4>
6.15

>  <DOPAMINE D5>
5

>  <Dopamine transporter>
5.07

>  <HISTAMINE H1>
6.31

>  <HISTAMINE H2>
5.48

>  <HISTAMINE H4>
5

>  <Muscarinic acetylcholine receptor M1>
5

>  <Muscarinic acetylcholine receptor M2>
5

>  <Muscarinic acetylcholine receptor M3>
5

>  <Muscarinic acetylcholine receptor M4>
5

>  <Muscarinic acetylcholine receptor M5>
5

>  <Norepinephrine transporter>
5.02

>  <Serotonin transporter>
6.14

$$$$
VALDECOXIB
  Marvin  02231216192D 0   1.00000     0.00000     0

 22 24  0  0  0  0  0  0  0  0999 V2000
   -2.8104    3.0816    0.0000 S   0  0  0  0  0  0  0  0  0
   -2.8104    3.9066    0.0000 O   0  0  0  0  0  0  0  0  0
   -3.6354    3.0816    0.0000 O   0  0  0  0  0  0  0  0  0
   -1.9854    3.0816    0.0000 N   0  0  0  0  0  0  0  0  0
   -2.8104    2.2566    0.0000 C   0  0  0  0  0  0  0  0  0
   -2.0959    1.8441    0.0000 C   0  0  0  0  0  0  0  0  0
   -2.0959    1.0191    0.0000 C   0  0  0  0  0  0  0  0  0
   -2.8104    0.6066    0.0000 C   0  0  0  0  0  0  0  0  0
   -3.5249    1.0191    0.0000 C   0  0  0  0  0  0  0  0  0
   -3.5249    1.8441    0.0000 C   0  0  0  0  0  0  0  0  0
   -2.8104   -0.2184    0.0000 C   0  0  0  0  0  0  0  0  0
   -2.1430   -0.7033    0.0000 C   0  0  0  0  0  0  0  0  0
   -2.3979   -1.4879    0.0000 N   0  0  0  0  0  0  0  0  0
   -3.2229   -1.4879    0.0000 O   0  0  0  0  0  0  0  0  0
   -3.4778   -0.7033    0.0000 C   0  0  0  0  0  0  0  0  0
   -4.2625   -0.4483    0.0000 C   0  0  0  0  0  0  0  0  0
   -1.3583   -0.4483    0.0000 C   0  0  0  0  0  0  0  0  0
   -1.1868    0.3586    0.0000 C   0  0  0  0  0  0  0  0  0
   -0.4022    0.6136    0.0000 C   0  0  0  0  0  0  0  0  0
    0.2109    0.0615    0.0000 C   0  0  0  0  0  0  0  0  0
    0.0394   -0.7454    0.0000 C   0  0  0  0  0  0  0  0  0
   -0.7452   -1.0004    0.0000 C   0  0  0  0  0  0  0  0  0
  1  2  2  0  0  0  0
  1  3  2  0  0  0  0
  1  4  1  0  0  0  0
  1  5  1  0  0  0  0
  5  6  4  0  0  0  0
  5 10  4  0  0  0  0
  6  7  4  0  0  0  0
  7  8  4  0  0  0  0
  8  9  4  0  0  0  0
  8 11  1  0  0  0  0
  9 10  4  0  0  0  0
 11 12  4  0  0  0  0
 11 15  4  0  0  0  0
 12 13  4  0  0  0  0
 12 17  1  0  0  0  0
 13 14  4  0  0  0  0
 14 15  4  0  0  0  0
 15 16  1  0  0  0  0
 17 18  4  0  0  0  0
 17 22  4  0  0  0  0
 18 19  4  0  0  0  0
 19 20  4  0  0  0  0
 20 21  4  0  0  0  0
 21 22  4  0  0  0  0
M  END
>  <Name_Molregno>
VALDECOXIB

>  <5-HT1A>
5

>  <5-HT1B>
5

>  <5-HT1D>
5

>  <5-HT1E>
5

>  <5-HT2A>
5

>  <5-HT3>
5

>  <5-HT6>
5

>  <5-HT7>
5

>  <Alpha-1A>
5

>  <Alpha-1B>
5

>  <Alpha-2A>
5

>  <Alpha-2B>
5

>  <Alpha-2C>
5

>  <DOPAMINE D1>
5

>  <DOPAMINE D2>
5

>  <DOPAMINE D5>
5

>  <Dopamine transporter>
5

>  <HISTAMINE H1>
5

>  <HISTAMINE H2>
5

>  <Muscarinic acetylcholine receptor M2>
5

>  <Muscarinic acetylcholine receptor M5>
5

>  <Serotonin transporter>
5

$$$$
valeryl-salicylate
  Marvin  02231216192D 0   1.00000     0.00000     0

 16 16  0  0  0  0  0  0  0  0999 V2000
   -0.4431    0.9218    0.0000 O   0  0  0  0  0  0  0  0  0
    0.2714    1.3343    0.0000 C   0  0  0  0  0  0  0  0  0
    0.2714    2.1593    0.0000 O   0  0  0  0  0  0  0  0  0
    0.9859    0.9218    0.0000 C   0  0  0  0  0  0  0  0  0
    1.7003    1.3343    0.0000 C   0  0  0  0  0  0  0  0  0
    2.4148    0.9218    0.0000 C   0  0  0  0  0  0  0  0  0
    2.4148    0.0968    0.0000 C   0  0  0  0  0  0  0  0  0
   -0.4431    0.0968    0.0000 C   0  0  0  0  0  0  0  0  0
    0.2714   -0.3157    0.0000 C   0  0  0  0  0  0  0  0  0
    0.2714   -1.1407    0.0000 C   0  0  0  0  0  0  0  0  0
   -0.4431   -1.5532    0.0000 C   0  0  0  0  0  0  0  0  0
   -1.1576   -1.1407    0.0000 C   0  0  0  0  0  0  0  0  0
   -1.1576   -0.3157    0.0000 C   0  0  0  0  0  0  0  0  0
   -1.8720    0.0968    0.0000 C   0  0  0  0  0  0  0  0  0
   -2.5865   -0.3157    0.0000 O   0  0  0  0  0  0  0  0  0
   -1.8720    0.9218    0.0000 O   0  0  0  0  0  0  0  0  0
  1  2  1  0  0  0  0
  1  8  1  0  0  0  0
  2  3  2  0  0  0  0
  2  4  1  0  0  0  0
  4  5  1  0  0  0  0
  5  6  1  0  0  0  0
  6  7  1  0  0  0  0
  8  9  4  0  0  0  0
  8 13  4  0  0  0  0
  9 10  4  0  0  0  0
 10 11  4  0  0  0  0
 11 12  4  0  0  0  0
 12 13  4  0  0  0  0
 13 14  1  0  0  0  0
 14 15  1  0  0  0  0
 14 16  2  0  0  0  0
M  END
>  <Name_Molregno>
valeryl-salicylate

>  <5-HT1A>
5

>  <5-HT1B>
5

>  <5-HT1D>
5

>  <5-HT1E>
5

>  <5-HT2A>
5

>  <5-HT3>
5

>  <5-HT5>
5

>  <5-HT6>
5

>  <5-HT7>
5

>  <Alpha-1A>
5

>  <Alpha-1B>
5

>  <Alpha-2A>
5

>  <Alpha-2B>
5

>  <Alpha-2C>
5

>  <DOPAMINE D1>
5

>  <DOPAMINE D2>
5

>  <DOPAMINE D4>
5

>  <DOPAMINE D5>
5

>  <HISTAMINE H1>
5

>  <HISTAMINE H2>
5

>  <HISTAMINE H4>
5

>  <Muscarinic acetylcholine receptor M2>
5

>  <Muscarinic acetylcholine receptor M5>
5

$$$$
ZIMELIDINE
  Marvin  02231216192D 0   1.00000     0.00000     0

 19 20  0  0  0  0  0  0  0  0999 V2000
    3.0388    3.1498    0.0000 Br  0  0  0  0  0  0  0  0  0
    3.0388    2.3248    0.0000 C   0  0  0  0  0  0  0  0  0
    3.7533    1.9123    0.0000 C   0  0  0  0  0  0  0  0  0
    3.7533    1.0873    0.0000 C   0  0  0  0  0  0  0  0  0
    3.0388    0.6748    0.0000 C   0  0  0  0  0  0  0  0  0
    2.3243    1.0873    0.0000 C   0  0  0  0  0  0  0  0  0
    2.3243    1.9123    0.0000 C   0  0  0  0  0  0  0  0  0
    3.0388   -0.1502    0.0000 C   0  0  0  0  0  0  0  0  0
    2.3243   -0.5627    0.0000 C   0  0  0  0  0  0  0  0  0
    2.3243   -1.3877    0.0000 C   0  0  0  0  0  0  0  0  0
    1.6099   -1.8002    0.0000 N   0  0  0  0  0  0  0  0  0
    1.6099   -2.6252    0.0000 C   0  0  0  0  0  0  0  0  0
    0.8954   -1.3877    0.0000 C   0  0  0  0  0  0  0  0  0
    3.7533   -0.5627    0.0000 C   0  0  0  0  0  0  0  0  0
    4.4677   -0.1502    0.0000 C   0  0  0  0  0  0  0  0  0
    5.1822   -0.5627    0.0000 C   0  0  0  0  0  0  0  0  0
    5.1822   -1.3877    0.0000 C   0  0  0  0  0  0  0  0  0
    4.4677   -1.8002    0.0000 N   0  0  0  0  0  0  0  0  0
    3.7533   -1.3877    0.0000 C   0  0  0  0  0  0  0  0  0
  1  2  1  0  0  0  0
  2  3  4  0  0  0  0
  2  7  4  0  0  0  0
  3  4  4  0  0  0  0
  4  5  4  0  0  0  0
  5  6  4  0  0  0  0
  5  8  1  0  0  0  0
  6  7  4  0  0  0  0
  8  9  2  0  0  0  0
  8 14  1  0  0  0  0
  9 10  1  0  0  0  0
 10 11  1  0  0  0  0
 11 12  1  0  0  0  0
 11 13  1  0  0  0  0
 14 15  4  0  0  0  0
 14 19  4  0  0  0  0
 15 16  4  0  0  0  0
 16 17  4  0  0  0  0
 17 18  4  0  0  0  0
 18 19  4  0  0  0  0
M  END
>  <Name_Molregno>
ZIMELIDINE

>  <5-HT1A>
5

>  <DOPAMINE D1>
5

>  <DOPAMINE D2>
5.73

>  <Dopamine transporter>
5

>  <Norepinephrine transporter>
5.03

>  <Serotonin transporter>
6.82

$$$$
ZIPRASIDONE
  Marvin  02231216192D 0   1.00000     0.00000     0

 28 32  0  0  0  0  0  0  0  0999 V2000
   -5.2868    0.2535    0.0000 Cl  0  0  0  0  0  0  0  0  0
   -4.7347    0.8666    0.0000 C   0  0  0  0  0  0  0  0  0
   -4.9897    1.6513    0.0000 C   0  0  0  0  0  0  0  0  0
   -4.4376    2.2643    0.0000 C   0  0  0  0  0  0  0  0  0
   -4.5239    3.0848    0.0000 N   0  0  0  0  0  0  0  0  0
   -3.7702    3.4204    0.0000 C   0  0  0  0  0  0  0  0  0
   -3.5987    4.2274    0.0000 O   0  0  0  0  0  0  0  0  0
   -3.2182    2.8073    0.0000 C   0  0  0  0  0  0  0  0  0
   -3.6307    2.0928    0.0000 C   0  0  0  0  0  0  0  0  0
   -3.3757    1.3082    0.0000 C   0  0  0  0  0  0  0  0  0
   -3.9278    0.6951    0.0000 C   0  0  0  0  0  0  0  0  0
   -3.6728   -0.0895    0.0000 C   0  0  0  0  0  0  0  0  0
   -2.8658   -0.2610    0.0000 C   0  0  0  0  0  0  0  0  0
   -2.6109   -1.0457    0.0000 N   0  0  0  0  0  0  0  0  0
   -1.8039   -1.2172    0.0000 C   0  0  0  0  0  0  0  0  0
   -1.5490   -2.0018    0.0000 C   0  0  0  0  0  0  0  0  0
   -2.1010   -2.6149    0.0000 N   0  0  0  0  0  0  0  0  0
   -2.9080   -2.4434    0.0000 C   0  0  0  0  0  0  0  0  0
   -3.1629   -1.6588    0.0000 C   0  0  0  0  0  0  0  0  0
   -1.8461   -3.3995    0.0000 C   0  0  0  0  0  0  0  0  0
   -2.3310   -4.0670    0.0000 N   0  0  0  0  0  0  0  0  0
   -1.8461   -4.7344    0.0000 S   0  0  0  0  0  0  0  0  0
   -1.0615   -4.4795    0.0000 C   0  0  0  0  0  0  0  0  0
   -1.0615   -3.6545    0.0000 C   0  0  0  0  0  0  0  0  0
   -0.3470   -3.2420    0.0000 C   0  0  0  0  0  0  0  0  0
    0.3675   -3.6545    0.0000 C   0  0  0  0  0  0  0  0  0
    0.3675   -4.4795    0.0000 C   0  0  0  0  0  0  0  0  0
   -0.3470   -4.8920    0.0000 C   0  0  0  0  0  0  0  0  0
  1  2  1  0  0  0  0
  2  3  4  0  0  0  0
  2 11  4  0  0  0  0
  3  4  4  0  0  0  0
  4  5  1  0  0  0  0
  4  9  4  0  0  0  0
  5  6  1  0  0  0  0
  6  7  2  0  0  0  0
  6  8  1  0  0  0  0
  8  9  1  0  0  0  0
  9 10  4  0  0  0  0
 10 11  4  0  0  0  0
 11 12  1  0  0  0  0
 12 13  1  0  0  0  0
 13 14  1  0  0  0  0
 14 15  1  0  0  0  0
 14 19  1  0  0  0  0
 15 16  1  0  0  0  0
 16 17  1  0  0  0  0
 17 18  1  0  0  0  0
 17 20  1  0  0  0  0
 18 19  1  0  0  0  0
 20 21  4  0  0  0  0
 20 24  4  0  0  0  0
 21 22  4  0  0  0  0
 22 23  4  0  0  0  0
 23 24  4  0  0  0  0
 23 28  4  0  0  0  0
 24 25  4  0  0  0  0
 25 26  4  0  0  0  0
 26 27  4  0  0  0  0
 27 28  4  0  0  0  0
M  END
>  <Name_Molregno>
ZIPRASIDONE

>  <5-HT1A>
8.19

>  <5-HT1B>
8.7

>  <5-HT1D>
8.32

>  <5-HT1E>
6.17

>  <5-HT2A>
9.54

>  <5-HT2C>
8.82

>  <5-HT3>
5.7

>  <5-HT5>
6.54

>  <5-HT6>
7.17

>  <5-HT7>
8.23

>  <Alpha-1A>
7.74

>  <Alpha-1B>
8.05

>  <Alpha-2A>
6.8

>  <Alpha-2B>
7.32

>  <Alpha-2C>
7.15

>  <Beta-1>
5.3

>  <Beta-2>
5.15

>  <DOPAMINE D1>
7.1

>  <DOPAMINE D2>
8.39

>  <DOPAMINE D3>
8.21

>  <DOPAMINE D4>
7.43

>  <DOPAMINE D5>
6.82

>  <Dopamine transporter>
5

>  <HISTAMINE H1>
7.51

>  <HISTAMINE H2>
5.46

>  <HISTAMINE H4>
5

>  <Muscarinic acetylcholine receptor M1>
5.53

>  <Muscarinic acetylcholine receptor M2>
5.26

>  <Muscarinic acetylcholine receptor M3>
5.3

>  <Muscarinic acetylcholine receptor M4>
5.4

>  <Muscarinic acetylcholine receptor M5>
5.4

>  <Norepinephrine transporter>
7.36

>  <Serotonin transporter>
6.92

$$$$
ZOTEPINE
  Marvin  02231216192D 0   1.00000     0.00000     0

 22 24  0  0  0  0  0  0  0  0999 V2000
    1.8575   -4.4413    0.0000 Cl  0  0  0  0  0  0  0  0  0
    1.0691   -4.1981    0.0000 C   0  0  0  0  0  0  0  0  0
    0.8856   -3.3938    0.0000 C   0  0  0  0  0  0  0  0  0
    0.0972   -3.1507    0.0000 C   0  0  0  0  0  0  0  0  0
   -0.5076   -3.7118    0.0000 C   0  0  0  0  0  0  0  0  0
   -1.3233   -3.5888    0.0000 S   0  0  0  0  0  0  0  0  0
   -1.7358   -2.8744    0.0000 C   0  0  0  0  0  0  0  0  0
   -1.4344   -2.1064    0.0000 C   0  0  0  0  0  0  0  0  0
   -0.6461   -1.8632    0.0000 C   0  0  0  0  0  0  0  0  0
    0.0356   -2.3280    0.0000 C   0  0  0  0  0  0  0  0  0
    0.7500   -1.9155    0.0000 O   0  0  0  0  0  0  0  0  0
    1.4645   -2.3280    0.0000 C   0  0  0  0  0  0  0  0  0
    2.1790   -1.9155    0.0000 C   0  0  0  0  0  0  0  0  0
    2.8934   -2.3280    0.0000 N   0  0  0  0  0  0  0  0  0
    3.6079   -1.9155    0.0000 C   0  0  0  0  0  0  0  0  0
    2.8934   -3.1530    0.0000 C   0  0  0  0  0  0  0  0  0
   -1.9488   -1.4614    0.0000 C   0  0  0  0  0  0  0  0  0
   -2.7646   -1.5843    0.0000 C   0  0  0  0  0  0  0  0  0
   -3.0660   -2.3523    0.0000 C   0  0  0  0  0  0  0  0  0
   -2.5516   -2.9973    0.0000 C   0  0  0  0  0  0  0  0  0
   -0.3240   -4.5161    0.0000 C   0  0  0  0  0  0  0  0  0
    0.4644   -4.7593    0.0000 C   0  0  0  0  0  0  0  0  0
  1  2  1  0  0  0  0
  2  3  4  0  0  0  0
  2 22  4  0  0  0  0
  3  4  4  0  0  0  0
  4  5  4  0  0  0  0
  4 10  1  0  0  0  0
  5  6  1  0  0  0  0
  5 21  4  0  0  0  0
  6  7  1  0  0  0  0
  7  8  4  0  0  0  0
  7 20  4  0  0  0  0
  8  9  1  0  0  0  0
  8 17  4  0  0  0  0
  9 10  2  0  0  0  0
 10 11  1  0  0  0  0
 11 12  1  0  0  0  0
 12 13  1  0  0  0  0
 13 14  1  0  0  0  0
 14 15  1  0  0  0  0
 14 16  1  0  0  0  0
 17 18  4  0  0  0  0
 18 19  4  0  0  0  0
 19 20  4  0  0  0  0
 21 22  4  0  0  0  0
M  END
>  <Name_Molregno>
ZOTEPINE

>  <5-HT1A>
6.41

>  <5-HT1B>
7.23

>  <5-HT1D>
7.02

>  <5-HT1E>
6.23

>  <5-HT2A>
8.58

>  <5-HT2C>
8.49

>  <5-HT3>
6.33

>  <5-HT5>
7.54

>  <5-HT6>
8.22

>  <5-HT7>
7.92

>  <Alpha-1A>
8.15

>  <Alpha-1B>
8.3

>  <Alpha-2A>
6.68

>  <Alpha-2B>
8.27

>  <Alpha-2C>
7.02

>  <Beta-1>
5.19

>  <Beta-2>
5.32

>  <DOPAMINE D1>
7.15

>  <DOPAMINE D2>
7.98

>  <DOPAMINE D3>
8.19

>  <DOPAMINE D4>
7.57

>  <DOPAMINE D5>
6.61

>  <Dopamine transporter>
5.44

>  <HISTAMINE H1>
8.64

>  <HISTAMINE H2>
6.3

>  <HISTAMINE H4>
5.7

>  <Muscarinic acetylcholine receptor M1>
6.37

>  <Muscarinic acetylcholine receptor M2>
5.92

>  <Muscarinic acetylcholine receptor M3>
6.07

>  <Muscarinic acetylcholine receptor M4>
6.06

>  <Muscarinic acetylcholine receptor M5>
5.8

>  <Norepinephrine transporter>
6.28

>  <Serotonin transporter>
6.41

$$$$
