4259
  Marvin  02231216192D 0   1.00000     0.00000     0

 27 31  0  0  1  0  0  0  0  0999 V2000
   -0.2544   -2.3296    0.0000 O   0  0  0  0  0  0  0  0  0
    0.3866   -1.8102    0.0000 C   0  0  0  0  0  0  0  0  0
    0.8114   -1.1029    0.0000 C   0  0  0  0  0  0  0  0  0
    1.6362   -1.1171    0.0000 C   0  0  0  0  0  0  0  0  0
    2.0364   -1.8386    0.0000 N   0  0  0  0  0  0  0  0  0
    1.6117   -2.5458    0.0000 C   0  0  0  0  0  0  0  0  0
    0.7868   -2.5317    0.0000 C   0  0  0  0  0  0  0  0  0
    2.8613   -1.8527    0.0000 C   0  0  0  0  0  0  0  0  0
    3.1740   -1.1970    0.0000 C   0  0  0  0  0  0  0  0  0
    2.8858   -0.4240    0.0000 C   0  0  0  0  0  0  0  0  0
    2.0609   -0.4098    0.0000 C   0  0  0  0  0  0  0  0  0
    1.6608    0.3116    0.0000 C   0  0  0  0  0  0  0  0  0
    2.0855    1.0189    0.0000 C   0  0  0  0  0  0  0  0  0
    2.9104    1.0047    0.0000 C   0  0  0  0  0  0  0  0  0
    3.3105    0.2833    0.0000 C   0  0  0  0  0  0  0  0  0
    4.1283    0.3922    0.0000 C   0  0  0  0  0  0  0  0  0
    4.7234   -0.1792    0.0000 C   0  0  0  0  0  0  0  0  0
    4.6476   -1.0008    0.0000 C   0  0  0  0  0  0  0  0  0
    3.9581   -1.4537    0.0000 C   0  0  0  0  0  0  0  0  0
    4.0056   -2.2773    0.0000 C   0  0  0  0  0  0  0  0  0
    4.7426   -2.6480    0.0000 C   0  0  0  0  0  0  0  0  0
    5.4321   -2.1951    0.0000 C   0  0  0  0  0  0  0  0  0
    5.3846   -1.3714    0.0000 C   0  0  0  0  0  0  0  0  0
   -0.2361   -1.2691    0.0000 C   0  0  0  0  0  0  0  0  0
   -0.8589   -0.7281    0.0000 C   0  0  0  0  0  0  0  0  0
    0.3049   -0.6464    0.0000 C   0  0  0  0  0  0  0  0  0
   -0.7772   -1.8919    0.0000 C   0  0  0  0  0  0  0  0  0
  1  2  1  0  0  0  0
  2  3  1  0  0  0  0
  2  7  1  0  0  0  0
  2 24  1  0  0  0  0
  3  4  1  0  0  0  0
  4  5  1  0  0  0  0
  4 11  1  0  0  0  0
  5  6  1  0  0  0  0
  5  8  1  0  0  0  0
  6  7  1  0  0  0  0
  8  9  1  0  0  0  0
  9 10  1  0  0  0  0
  9 19  1  0  0  0  0
 10 11  4  0  0  0  0
 10 15  4  0  0  0  0
 11 12  4  0  0  0  0
 12 13  4  0  0  0  0
 13 14  4  0  0  0  0
 14 15  4  0  0  0  0
 15 16  1  0  0  0  0
 16 17  1  0  0  0  0
 17 18  1  0  0  0  0
 18 19  4  0  0  0  0
 18 23  4  0  0  0  0
 19 20  4  0  0  0  0
 20 21  4  0  0  0  0
 21 22  4  0  0  0  0
 22 23  4  0  0  0  0
 24 25  1  0  0  0  0
 24 26  1  0  0  0  0
 24 27  1  0  0  0  0
M  END
>  <Name_Molregno>
4259

>  <5-HT1A>
6.08

>  <5-HT2A>
8.67

>  <DOPAMINE D1>
8.63

>  <DOPAMINE D2>
8.72

>  <DOPAMINE D3>
8.22

>  <DOPAMINE D4>
7.2

>  <DOPAMINE D5>
7.57

>  <HISTAMINE H1>
6.55

$$$$
4778
  Marvin  02231216192D 0   1.00000     0.00000     0

 20 22  0  0  1  0  0  0  0  0999 V2000
    0.1938   -0.4763    0.0000 Cl  0  0  0  0  0  0  0  0  0
    0.9083   -0.0638    0.0000 C   0  0  0  0  0  0  0  0  0
    1.6227   -0.4763    0.0000 C   0  0  0  0  0  0  0  0  0
    2.3372   -0.0638    0.0000 C   0  0  0  0  0  0  0  0  0
    2.3372    0.7612    0.0000 C   0  0  0  0  0  0  0  0  0
    1.6227    1.1737    0.0000 C   0  0  0  0  0  0  0  0  0
    0.9083    0.7612    0.0000 C   0  0  0  0  0  0  0  0  0
    0.1938    1.1737    0.0000 O   0  0  0  0  0  0  0  0  0
    2.9822    1.2756    0.0000 C   0  0  0  0  0  0  0  0  0
    3.7865    1.0920    0.0000 C   0  0  0  0  0  0  0  0  0
    4.1445    0.3487    0.0000 N   0  0  0  0  0  0  0  0  0
    3.7865   -0.3946    0.0000 C   0  0  0  0  0  0  0  0  0
    2.9822   -0.5782    0.0000 C   0  0  0  0  0  0  0  0  0
    4.9695    0.3487    0.0000 C   0  0  0  0  0  0  0  0  0
    2.7986    2.0799    0.0000 C   0  0  0  0  0  0  0  0  0
    2.0103    2.3230    0.0000 C   0  0  0  0  0  0  0  0  0
    1.8267    3.1274    0.0000 C   0  0  0  0  0  0  0  0  0
    2.4315    3.6885    0.0000 C   0  0  0  0  0  0  0  0  0
    3.2198    3.4453    0.0000 C   0  0  0  0  0  0  0  0  0
    3.4034    2.6410    0.0000 C   0  0  0  0  0  0  0  0  0
  1  2  1  0  0  0  0
  2  3  4  0  0  0  0
  2  7  4  0  0  0  0
  3  4  4  0  0  0  0
  4  5  4  0  0  0  0
  4 13  1  0  0  0  0
  5  6  4  0  0  0  0
  5  9  1  0  0  0  0
  6  7  4  0  0  0  0
  7  8  1  0  0  0  0
  9 10  1  0  0  0  0
  9 15  1  0  0  0  0
 10 11  1  0  0  0  0
 11 12  1  0  0  0  0
 11 14  1  0  0  0  0
 12 13  1  0  0  0  0
 15 16  4  0  0  0  0
 15 20  4  0  0  0  0
 16 17  4  0  0  0  0
 17 18  4  0  0  0  0
 18 19  4  0  0  0  0
 19 20  4  0  0  0  0
M  END
>  <Name_Molregno>
4778

>  <5-HT1A>
6.18

>  <5-HT2A>
7.88

>  <5-HT2C>
7.39

>  <5-HT3>
5

>  <DOPAMINE D1>
8.84

>  <DOPAMINE D2>
6.09

>  <DOPAMINE D3>
5.65

>  <DOPAMINE D4>
5.51

>  <DOPAMINE D5>
8.49

>  <HISTAMINE H1>
7

$$$$
6291
  Marvin  02231216192D 0   1.00000     0.00000     0

 26 29  0  0  1  0  0  0  0  0999 V2000
   -4.2684    3.4148    0.0000 O   0  0  0  0  0  0  0  0  0
   -4.8815    2.8628    0.0000 C   0  0  0  0  0  0  0  0  0
   -4.8815    2.0378    0.0000 C   0  0  0  0  0  0  0  0  0
   -5.5960    1.6253    0.0000 C   0  0  0  0  0  0  0  0  0
   -6.3104    2.0378    0.0000 C   0  0  0  0  0  0  0  0  0
   -6.3104    2.8628    0.0000 C   0  0  0  0  0  0  0  0  0
   -5.5960    3.2753    0.0000 C   0  0  0  0  0  0  0  0  0
   -5.4244    4.0823    0.0000 C   0  0  0  0  0  0  0  0  0
   -4.6039    4.1685    0.0000 C   0  0  0  0  0  0  0  0  0
   -5.5960    0.8003    0.0000 C   0  0  0  0  0  0  0  0  0
   -4.8815    0.3878    0.0000 C   0  0  0  0  0  0  0  0  0
   -4.8815   -0.4372    0.0000 N   0  0  0  0  0  0  0  0  0
   -4.1670   -0.8497    0.0000 C   0  0  0  0  0  0  0  0  0
   -4.1670   -1.6747    0.0000 C   0  0  0  0  0  0  0  0  0
   -4.8815   -2.0872    0.0000 C   0  0  0  0  0  0  0  0  0
   -4.8815   -2.9122    0.0000 C   0  0  0  0  0  0  0  0  0
   -4.1670   -3.3247    0.0000 C   0  0  0  0  0  0  0  0  0
   -3.4525   -2.9122    0.0000 C   0  0  0  0  0  0  0  0  0
   -3.4525   -2.0872    0.0000 C   0  0  0  0  0  0  0  0  0
   -2.7381   -1.6747    0.0000 C   0  0  0  0  0  0  0  0  0
   -2.0236   -2.0872    0.0000 C   0  0  0  0  0  0  0  0  0
   -2.0236   -2.9122    0.0000 C   0  0  0  0  0  0  0  0  0
   -2.7381   -3.3247    0.0000 C   0  0  0  0  0  0  0  0  0
   -2.7381   -4.1497    0.0000 O   0  0  0  0  0  0  0  0  0
   -2.0236   -4.5622    0.0000 C   0  0  0  0  0  0  0  0  0
   -5.5960   -0.8497    0.0000 C   0  0  0  0  0  0  0  0  0
  1  2  4  0  0  0  0
  1  9  4  0  0  0  0
  2  3  4  0  0  0  0
  2  7  4  0  0  0  0
  3  4  4  0  0  0  0
  4  5  4  0  0  0  0
  4 10  1  0  0  0  0
  5  6  4  0  0  0  0
  6  7  4  0  0  0  0
  7  8  4  0  0  0  0
  8  9  4  0  0  0  0
 10 11  1  0  0  0  0
 11 12  1  0  0  0  0
 12 13  1  0  0  0  0
 12 26  1  0  0  0  0
 13 14  1  0  0  0  0
 14 15  1  0  0  0  0
 14 19  1  0  0  0  0
 15 16  1  0  0  0  0
 16 17  1  0  0  0  0
 17 18  1  0  0  0  0
 18 19  4  0  0  0  0
 18 23  4  0  0  0  0
 19 20  4  0  0  0  0
 20 21  4  0  0  0  0
 21 22  4  0  0  0  0
 22 23  4  0  0  0  0
 23 24  1  0  0  0  0
 24 25  1  0  0  0  0
M  END
>  <Name_Molregno>
6291

>  <5-HT1A>
7.35

>  <5-HT2A>
6

>  <5-HT2C>
6

>  <Alpha-2A>
8.6

>  <Alpha-2B>
7.96

>  <Alpha-2C>
8.68

>  <DOPAMINE D4>
6.63

>  <HISTAMINE H1>
6

>  <Serotonin transporter>
8.4

$$$$
7644
  Marvin  02231216192D 0   1.00000     0.00000     0

 16 17  0  0  0  0  0  0  0  0999 V2000
    0.2350    2.3834    0.0000 N   0  0  0  0  0  0  0  0  0
    0.2350    1.5584    0.0000 C   0  0  0  0  0  0  0  0  0
    0.9494    1.1459    0.0000 C   0  0  0  0  0  0  0  0  0
    0.9494    0.3209    0.0000 C   0  0  0  0  0  0  0  0  0
    1.6639   -0.0916    0.0000 C   0  0  0  0  0  0  0  0  0
    1.6639   -0.9166    0.0000 C   0  0  0  0  0  0  0  0  0
    0.9494   -1.3291    0.0000 C   0  0  0  0  0  0  0  0  0
    0.2350   -0.9166    0.0000 C   0  0  0  0  0  0  0  0  0
    0.2350   -0.0916    0.0000 C   0  0  0  0  0  0  0  0  0
    1.6639    1.5584    0.0000 C   0  0  0  0  0  0  0  0  0
    1.6639    2.3834    0.0000 C   0  0  0  0  0  0  0  0  0
    2.3784    2.7959    0.0000 C   0  0  0  0  0  0  0  0  0
    3.0929    2.3834    0.0000 C   0  0  0  0  0  0  0  0  0
    3.0929    1.5584    0.0000 C   0  0  0  0  0  0  0  0  0
    2.3784    1.1459    0.0000 C   0  0  0  0  0  0  0  0  0
   -0.4795    2.7959    0.0000 C   0  0  0  0  0  0  0  0  0
  1  2  1  0  0  0  0
  1 16  1  0  0  0  0
  2  3  1  0  0  0  0
  3  4  1  0  0  0  0
  3 10  1  0  0  0  0
  4  5  4  0  0  0  0
  4  9  4  0  0  0  0
  5  6  4  0  0  0  0
  6  7  4  0  0  0  0
  7  8  4  0  0  0  0
  8  9  4  0  0  0  0
 10 11  4  0  0  0  0
 10 15  4  0  0  0  0
 11 12  4  0  0  0  0
 12 13  4  0  0  0  0
 13 14  4  0  0  0  0
 14 15  4  0  0  0  0
M  END
>  <Name_Molregno>
7644

>  <5-HT2A>
5

>  <HISTAMINE H1>
5

$$$$
7646
  Marvin  02231216192D 0   1.00000     0.00000     0

 15 16  0  0  0  0  0  0  0  0999 V2000
    0.2254    2.6215    0.0000 N   0  0  0  0  0  0  0  0  0
    0.2254    1.7965    0.0000 C   0  0  0  0  0  0  0  0  0
    0.9399    1.3840    0.0000 C   0  0  0  0  0  0  0  0  0
    0.9399    0.5590    0.0000 C   0  0  0  0  0  0  0  0  0
    1.6543    0.1465    0.0000 C   0  0  0  0  0  0  0  0  0
    1.6543   -0.6785    0.0000 C   0  0  0  0  0  0  0  0  0
    0.9399   -1.0910    0.0000 C   0  0  0  0  0  0  0  0  0
    0.2254   -0.6785    0.0000 C   0  0  0  0  0  0  0  0  0
    0.2254    0.1465    0.0000 C   0  0  0  0  0  0  0  0  0
    1.6543    1.7965    0.0000 C   0  0  0  0  0  0  0  0  0
    1.6543    2.6215    0.0000 C   0  0  0  0  0  0  0  0  0
    2.3688    3.0340    0.0000 C   0  0  0  0  0  0  0  0  0
    3.0833    2.6215    0.0000 C   0  0  0  0  0  0  0  0  0
    3.0833    1.7965    0.0000 C   0  0  0  0  0  0  0  0  0
    2.3688    1.3840    0.0000 C   0  0  0  0  0  0  0  0  0
  1  2  1  0  0  0  0
  2  3  1  0  0  0  0
  3  4  1  0  0  0  0
  3 10  1  0  0  0  0
  4  5  4  0  0  0  0
  4  9  4  0  0  0  0
  5  6  4  0  0  0  0
  6  7  4  0  0  0  0
  7  8  4  0  0  0  0
  8  9  4  0  0  0  0
 10 11  4  0  0  0  0
 10 15  4  0  0  0  0
 11 12  4  0  0  0  0
 12 13  4  0  0  0  0
 13 14  4  0  0  0  0
 14 15  4  0  0  0  0
M  END
>  <Name_Molregno>
7646

>  <5-HT2A>
5.34

>  <HISTAMINE H1>
5

$$$$
7650
  Marvin  02231216192D 0   1.00000     0.00000     0

 17 18  0  0  0  0  0  0  0  0999 V2000
    0.1499    2.2664    0.0000 N   0  0  0  0  0  0  0  0  0
    0.1499    1.4414    0.0000 C   0  0  0  0  0  0  0  0  0
    0.8644    1.0289    0.0000 C   0  0  0  0  0  0  0  0  0
    0.8644    0.2039    0.0000 C   0  0  0  0  0  0  0  0  0
    1.5789   -0.2086    0.0000 C   0  0  0  0  0  0  0  0  0
    1.5789   -1.0336    0.0000 C   0  0  0  0  0  0  0  0  0
    0.8644   -1.4461    0.0000 C   0  0  0  0  0  0  0  0  0
    0.1499   -1.0336    0.0000 C   0  0  0  0  0  0  0  0  0
    0.1499   -0.2086    0.0000 C   0  0  0  0  0  0  0  0  0
    1.5789    1.4414    0.0000 C   0  0  0  0  0  0  0  0  0
    1.5789    2.2664    0.0000 C   0  0  0  0  0  0  0  0  0
    2.2934    2.6789    0.0000 C   0  0  0  0  0  0  0  0  0
    3.0078    2.2664    0.0000 C   0  0  0  0  0  0  0  0  0
    3.0078    1.4414    0.0000 C   0  0  0  0  0  0  0  0  0
    2.2934    1.0289    0.0000 C   0  0  0  0  0  0  0  0  0
   -0.5645    2.6789    0.0000 C   0  0  0  0  0  0  0  0  0
    0.8644    2.6789    0.0000 C   0  0  0  0  0  0  0  0  0
  1  2  1  0  0  0  0
  1 16  1  0  0  0  0
  1 17  1  0  0  0  0
  2  3  1  0  0  0  0
  3  4  1  0  0  0  0
  3 10  1  0  0  0  0
  4  5  4  0  0  0  0
  4  9  4  0  0  0  0
  5  6  4  0  0  0  0
  6  7  4  0  0  0  0
  7  8  4  0  0  0  0
  8  9  4  0  0  0  0
 10 11  4  0  0  0  0
 10 15  4  0  0  0  0
 11 12  4  0  0  0  0
 12 13  4  0  0  0  0
 13 14  4  0  0  0  0
 14 15  4  0  0  0  0
M  END
>  <Name_Molregno>
7650

>  <5-HT2A>
5.13

>  <HISTAMINE H1>
5.29

$$$$
14718
  Marvin  02231216192D 0   1.00000     0.00000     0

 20 22  0  0  0  0  0  0  0  0999 V2000
   -0.1307   -0.2468    0.0000 O   0  0  0  0  0  0  0  0  0
    0.5837    0.1657    0.0000 C   0  0  0  0  0  0  0  0  0
    1.2982   -0.2468    0.0000 C   0  0  0  0  0  0  0  0  0
    2.0127    0.1657    0.0000 C   0  0  0  0  0  0  0  0  0
    2.7272   -0.2468    0.0000 C   0  0  0  0  0  0  0  0  0
    3.4808    0.0888    0.0000 N   0  0  0  0  0  0  0  0  0
    4.0329   -0.5243    0.0000 C   0  0  0  0  0  0  0  0  0
    3.6204   -1.2388    0.0000 N   0  0  0  0  0  0  0  0  0
    2.8134   -1.0672    0.0000 C   0  0  0  0  0  0  0  0  0
   -0.8452    0.1657    0.0000 C   0  0  0  0  0  0  0  0  0
   -1.5597   -0.2468    0.0000 C   0  0  0  0  0  0  0  0  0
   -2.2741    0.1657    0.0000 C   0  0  0  0  0  0  0  0  0
   -2.2741    0.9907    0.0000 C   0  0  0  0  0  0  0  0  0
   -1.5597    1.4032    0.0000 C   0  0  0  0  0  0  0  0  0
   -0.8452    0.9907    0.0000 C   0  0  0  0  0  0  0  0  0
   -2.9886    1.4032    0.0000 C   0  0  0  0  0  0  0  0  0
   -3.7031    0.9907    0.0000 O   0  0  0  0  0  0  0  0  0
   -2.9886    2.2282    0.0000 C   0  0  0  0  0  0  0  0  0
   -3.4011    2.9427    0.0000 C   0  0  0  0  0  0  0  0  0
   -2.5761    2.9427    0.0000 C   0  0  0  0  0  0  0  0  0
  1  2  1  0  0  0  0
  1 10  1  0  0  0  0
  2  3  1  0  0  0  0
  3  4  1  0  0  0  0
  4  5  1  0  0  0  0
  5  6  4  0  0  0  0
  5  9  4  0  0  0  0
  6  7  4  0  0  0  0
  7  8  4  0  0  0  0
  8  9  4  0  0  0  0
 10 11  4  0  0  0  0
 10 15  4  0  0  0  0
 11 12  4  0  0  0  0
 12 13  4  0  0  0  0
 13 14  4  0  0  0  0
 13 16  1  0  0  0  0
 14 15  4  0  0  0  0
 16 17  2  0  0  0  0
 16 18  1  0  0  0  0
 18 19  1  0  0  0  0
 18 20  1  0  0  0  0
 19 20  1  0  0  0  0
M  STY  1   1 DAT
M  SAL   1  1   8
M  SDT   1 MRV_IMPLICIT_H                                        
M  SDD   1     0.0000    0.0000    DR    ALL  0       0  
M  SED   1 IMPL_H1
M  END
>  <Name_Molregno>
14718

>  <Alpha-2A>
7.37

>  <Alpha-2C>
7.2

>  <HISTAMINE H1>
5

>  <HISTAMINE H2>
5

>  <HISTAMINE H3>
7.19

>  <HISTAMINE H4>
5.97

$$$$
16396
  Marvin  02231216192D 0   1.00000     0.00000     0

 37 41  0  0  0  0  0  0  0  0999 V2000
    9.4469    5.2044    0.0000 O   0  0  0  0  0  0  0  0  0
    9.1920    4.4198    0.0000 N   0  0  0  0  0  0  0  0  0
    8.3670    4.4198    0.0000 C   0  0  0  0  0  0  0  0  0
    8.1121    5.2044    0.0000 N   0  0  0  0  0  0  0  0  0
    8.7795    5.6894    0.0000 C   0  0  0  0  0  0  0  0  0
    8.7795    6.5144    0.0000 C   0  0  0  0  0  0  0  0  0
    7.8821    3.7524    0.0000 C   0  0  0  0  0  0  0  0  0
    8.2176    2.9987    0.0000 C   0  0  0  0  0  0  0  0  0
    7.7327    2.3313    0.0000 C   0  0  0  0  0  0  0  0  0
    8.0683    1.5776    0.0000 C   0  0  0  0  0  0  0  0  0
    6.9122    2.4175    0.0000 C   0  0  0  0  0  0  0  0  0
    6.5767    3.1712    0.0000 C   0  0  0  0  0  0  0  0  0
    7.0616    3.8386    0.0000 C   0  0  0  0  0  0  0  0  0
    6.4273    1.7501    0.0000 C   0  0  0  0  0  0  0  0  0
    6.7629    0.9964    0.0000 C   0  0  0  0  0  0  0  0  0
    6.2779    0.3289    0.0000 C   0  0  0  0  0  0  0  0  0
    5.4575    0.4152    0.0000 C   0  0  0  0  0  0  0  0  0
    5.1219    1.1689    0.0000 C   0  0  0  0  0  0  0  0  0
    5.6068    1.8363    0.0000 C   0  0  0  0  0  0  0  0  0
    4.9725   -0.2523    0.0000 C   0  0  0  0  0  0  0  0  0
    4.1521   -0.1660    0.0000 O   0  0  0  0  0  0  0  0  0
    5.3081   -1.0059    0.0000 N   0  0  0  0  0  0  0  0  0
    4.8232   -1.6734    0.0000 C   0  0  0  0  0  0  0  0  0
    5.1587   -2.4270    0.0000 C   0  0  0  0  0  0  0  0  0
    4.6738   -3.0945    0.0000 C   0  0  0  0  0  0  0  0  0
    5.0094   -3.8482    0.0000 N   0  0  0  0  0  0  0  0  0
    5.8298   -3.9344    0.0000 C   0  0  0  0  0  0  0  0  0
    6.1654   -4.6881    0.0000 C   0  0  0  0  0  0  0  0  0
    5.6805   -5.3555    0.0000 N   0  0  0  0  0  0  0  0  0
    4.8600   -5.2693    0.0000 C   0  0  0  0  0  0  0  0  0
    4.5244   -4.5156    0.0000 C   0  0  0  0  0  0  0  0  0
    6.0160   -6.1092    0.0000 C   0  0  0  0  0  0  0  0  0
    3.8533   -3.0082    0.0000 C   0  0  0  0  0  0  0  0  0
    3.3684   -3.6757    0.0000 O   0  0  0  0  0  0  0  0  0
    2.5479   -3.5894    0.0000 C   0  0  0  0  0  0  0  0  0
    3.5178   -2.2546    0.0000 C   0  0  0  0  0  0  0  0  0
    4.0027   -1.5871    0.0000 C   0  0  0  0  0  0  0  0  0
  1  2  4  0  0  0  0
  1  5  4  0  0  0  0
  2  3  4  0  0  0  0
  3  4  4  0  0  0  0
  3  7  1  0  0  0  0
  4  5  4  0  0  0  0
  5  6  1  0  0  0  0
  7  8  4  0  0  0  0
  7 13  4  0  0  0  0
  8  9  4  0  0  0  0
  9 10  1  0  0  0  0
  9 11  4  0  0  0  0
 11 12  4  0  0  0  0
 11 14  1  0  0  0  0
 12 13  4  0  0  0  0
 14 15  4  0  0  0  0
 14 19  4  0  0  0  0
 15 16  4  0  0  0  0
 16 17  4  0  0  0  0
 17 18  4  0  0  0  0
 17 20  1  0  0  0  0
 18 19  4  0  0  0  0
 20 21  2  0  0  0  0
 20 22  1  0  0  0  0
 22 23  1  0  0  0  0
 23 24  4  0  0  0  0
 23 37  4  0  0  0  0
 24 25  4  0  0  0  0
 25 26  1  0  0  0  0
 25 33  4  0  0  0  0
 26 27  1  0  0  0  0
 26 31  1  0  0  0  0
 27 28  1  0  0  0  0
 28 29  1  0  0  0  0
 29 30  1  0  0  0  0
 29 32  1  0  0  0  0
 30 31  1  0  0  0  0
 33 34  1  0  0  0  0
 33 36  4  0  0  0  0
 34 35  1  0  0  0  0
 36 37  4  0  0  0  0
M  END
>  <Name_Molregno>
16396

>  <5-HT1A>
7.14

>  <5-HT1B>
9.05

>  <5-HT1D>
8.78

>  <5-HT1E>
5.4

>  <5-HT2A>
7.59

>  <5-HT2C>
6.99

>  <5-HT5>
5.2

>  <5-HT6>
5.27

>  <5-HT7>
5.4

>  <DOPAMINE D1>
5

>  <DOPAMINE D2>
5

>  <DOPAMINE D3>
5

>  <DOPAMINE D4>
5

>  <DOPAMINE D5>
5

>  <HISTAMINE H1>
5

>  <Muscarinic acetylcholine receptor M1>
5

>  <Muscarinic acetylcholine receptor M2>
5

>  <Muscarinic acetylcholine receptor M3>
5

>  <Muscarinic acetylcholine receptor M4>
5

>  <Muscarinic acetylcholine receptor M5>
5

$$$$
22470
  Marvin  02231216192D 0   1.00000     0.00000     0

 22 24  0  0  1  0  0  0  0  0999 V2000
    1.4966    1.5869    0.0000 O   0  0  0  0  0  0  0  0  0
    2.2110    1.1744    0.0000 C   0  0  0  0  0  0  0  0  0
    2.2110    0.3494    0.0000 C   0  0  0  0  0  0  0  0  0
    2.9255   -0.0631    0.0000 C   0  0  0  0  0  0  0  0  0
    2.9255   -0.8881    0.0000 C   0  0  0  0  0  0  0  0  0
    2.2110   -1.3006    0.0000 N   0  0  0  0  0  0  0  0  0
    1.4966   -0.8881    0.0000 C   0  0  0  0  0  0  0  0  0
    1.4966   -0.0631    0.0000 C   0  0  0  0  0  0  0  0  0
    2.2110   -2.1256    0.0000 C   0  0  0  0  0  0  0  0  0
    1.4966   -2.5381    0.0000 C   0  0  0  0  0  0  0  0  0
    1.4966   -3.3631    0.0000 C   0  0  0  0  0  0  0  0  0
    2.2110   -3.7756    0.0000 C   0  0  0  0  0  0  0  0  0
    2.2110   -4.6006    0.0000 C   0  0  0  0  0  0  0  0  0
    1.4966   -5.0131    0.0000 C   0  0  0  0  0  0  0  0  0
    0.7821   -4.6006    0.0000 C   0  0  0  0  0  0  0  0  0
    0.7821   -3.7756    0.0000 C   0  0  0  0  0  0  0  0  0
    2.9255    1.5869    0.0000 C   0  0  0  0  0  0  0  0  0
    2.9255    2.4119    0.0000 C   0  0  0  0  0  0  0  0  0
    3.6400    2.8244    0.0000 C   0  0  0  0  0  0  0  0  0
    4.3544    2.4119    0.0000 C   0  0  0  0  0  0  0  0  0
    4.3544    1.5869    0.0000 C   0  0  0  0  0  0  0  0  0
    3.6400    1.1744    0.0000 C   0  0  0  0  0  0  0  0  0
  1  2  1  0  0  0  0
  2  3  1  0  0  0  0
  2 17  1  0  0  0  0
  3  4  1  0  0  0  0
  3  8  1  0  0  0  0
  4  5  1  0  0  0  0
  5  6  1  0  0  0  0
  6  7  1  0  0  0  0
  6  9  1  0  0  0  0
  7  8  1  0  0  0  0
  9 10  1  0  0  0  0
 10 11  1  0  0  0  0
 11 12  4  0  0  0  0
 11 16  4  0  0  0  0
 12 13  4  0  0  0  0
 13 14  4  0  0  0  0
 14 15  4  0  0  0  0
 15 16  4  0  0  0  0
 17 18  4  0  0  0  0
 17 22  4  0  0  0  0
 18 19  4  0  0  0  0
 19 20  4  0  0  0  0
 20 21  4  0  0  0  0
 21 22  4  0  0  0  0
M  END
>  <Name_Molregno>
22470

>  <5-HT1A>
5.47

>  <5-HT2A>
8.13

>  <5-HT2C>
6.28

>  <5-HT6>
5.56

>  <Alpha-1A>
5.73

>  <Alpha-1B>
5.8

>  <Alpha-2A>
5.8

>  <Alpha-2C>
5.93

>  <DOPAMINE D1>
6.49

>  <DOPAMINE D4>
5.41

>  <DOPAMINE D5>
5.54

>  <Dopamine transporter>
5

>  <HISTAMINE H1>
5.79

>  <Norepinephrine transporter>
5

>  <Serotonin transporter>
5.59

$$$$
34050
  Marvin  02231216192D 0   1.00000     0.00000     0

 23 25  0  0  0  0  0  0  0  0999 V2000
   -0.3472   -1.4083    0.0000 O   0  0  0  0  0  0  0  0  0
    0.3673   -0.9958    0.0000 C   0  0  0  0  0  0  0  0  0
    1.0818   -1.4083    0.0000 C   0  0  0  0  0  0  0  0  0
    1.7962   -0.9958    0.0000 C   0  0  0  0  0  0  0  0  0
    2.5107   -1.4083    0.0000 N   0  0  0  0  0  0  0  0  0
    3.2644   -1.0727    0.0000 C   0  0  0  0  0  0  0  0  0
    3.8164   -1.6858    0.0000 C   0  0  0  0  0  0  0  0  0
    3.4039   -2.4003    0.0000 C   0  0  0  0  0  0  0  0  0
    2.5969   -2.2288    0.0000 C   0  0  0  0  0  0  0  0  0
   -1.0616   -0.9958    0.0000 C   0  0  0  0  0  0  0  0  0
   -1.7761   -1.4083    0.0000 C   0  0  0  0  0  0  0  0  0
   -2.4906   -0.9958    0.0000 C   0  0  0  0  0  0  0  0  0
   -2.4906   -0.1708    0.0000 C   0  0  0  0  0  0  0  0  0
   -1.7761    0.2417    0.0000 C   0  0  0  0  0  0  0  0  0
   -1.0616   -0.1708    0.0000 C   0  0  0  0  0  0  0  0  0
   -3.2051    0.2417    0.0000 C   0  0  0  0  0  0  0  0  0
   -3.9195   -0.1708    0.0000 C   0  0  0  0  0  0  0  0  0
   -4.6340    0.2417    0.0000 C   0  0  0  0  0  0  0  0  0
   -4.6340    1.0667    0.0000 C   0  0  0  0  0  0  0  0  0
   -3.9195    1.4792    0.0000 C   0  0  0  0  0  0  0  0  0
   -3.2051    1.0667    0.0000 C   0  0  0  0  0  0  0  0  0
   -5.3485    1.4792    0.0000 C   0  0  0  0  0  0  0  0  0
   -6.0629    1.8917    0.0000 N   0  0  0  0  0  0  0  0  0
  1  2  1  0  0  0  0
  1 10  1  0  0  0  0
  2  3  1  0  0  0  0
  3  4  1  0  0  0  0
  4  5  1  0  0  0  0
  5  6  1  0  0  0  0
  5  9  1  0  0  0  0
  6  7  1  0  0  0  0
  7  8  1  0  0  0  0
  8  9  1  0  0  0  0
 10 11  4  0  0  0  0
 10 15  4  0  0  0  0
 11 12  4  0  0  0  0
 12 13  4  0  0  0  0
 13 14  4  0  0  0  0
 13 16  1  0  0  0  0
 14 15  4  0  0  0  0
 16 17  4  0  0  0  0
 16 21  4  0  0  0  0
 17 18  4  0  0  0  0
 18 19  4  0  0  0  0
 19 20  4  0  0  0  0
 19 22  1  0  0  0  0
 20 21  4  0  0  0  0
 22 23  3  0  0  0  0
M  END
>  <Name_Molregno>
34050

>  <HISTAMINE H1>
5.3

>  <HISTAMINE H2>
4.17

>  <HISTAMINE H3>
8.14

$$$$
42179
  Marvin  02231216192D 0   1.00000     0.00000     0

 31 34  0  0  0  0  0  0  0  0999 V2000
    0.8929    1.6421    0.0000 O   0  0  0  0  0  0  0  0  0
    1.6074    2.0546    0.0000 C   0  0  0  0  0  0  0  0  0
    0.8929    0.8171    0.0000 C   0  0  0  0  0  0  0  0  0
    1.6074    0.4046    0.0000 C   0  0  0  0  0  0  0  0  0
    1.6074   -0.4204    0.0000 C   0  0  0  0  0  0  0  0  0
    0.8929   -0.8329    0.0000 C   0  0  0  0  0  0  0  0  0
    0.1785   -0.4204    0.0000 C   0  0  0  0  0  0  0  0  0
    0.1785    0.4046    0.0000 C   0  0  0  0  0  0  0  0  0
   -0.5360    0.8171    0.0000 N   0  0  0  0  0  0  0  0  0
   -1.2505    0.4046    0.0000 C   0  0  0  0  0  0  0  0  0
   -1.9649    0.8171    0.0000 C   0  0  0  0  0  0  0  0  0
   -1.9649    1.6421    0.0000 N   0  0  0  0  0  0  0  0  0
   -1.2505    2.0546    0.0000 C   0  0  0  0  0  0  0  0  0
   -0.5360    1.6421    0.0000 C   0  0  0  0  0  0  0  0  0
   -2.6794    2.0546    0.0000 C   0  0  0  0  0  0  0  0  0
   -3.3939    1.6421    0.0000 C   0  0  0  0  0  0  0  0  0
   -4.1083    2.0546    0.0000 N   0  0  0  0  0  0  0  0  0
   -4.8228    1.6421    0.0000 C   0  0  0  0  0  0  0  0  0
   -4.8228    0.8171    0.0000 O   0  0  0  0  0  0  0  0  0
   -5.5373    2.0546    0.0000 C   0  0  0  0  0  0  0  0  0
   -6.2518    1.6421    0.0000 C   0  0  0  0  0  0  0  0  0
   -6.9662    2.0546    0.0000 C   0  0  0  0  0  0  0  0  0
   -6.9662    2.8796    0.0000 C   0  0  0  0  0  0  0  0  0
   -6.2518    3.2921    0.0000 C   0  0  0  0  0  0  0  0  0
   -5.5373    2.8796    0.0000 C   0  0  0  0  0  0  0  0  0
   -4.1083    2.8796    0.0000 C   0  0  0  0  0  0  0  0  0
   -4.8228    3.2921    0.0000 N   0  0  0  0  0  0  0  0  0
   -4.8228    4.1171    0.0000 C   0  0  0  0  0  0  0  0  0
   -4.1083    4.5296    0.0000 C   0  0  0  0  0  0  0  0  0
   -3.3939    4.1171    0.0000 C   0  0  0  0  0  0  0  0  0
   -3.3939    3.2921    0.0000 C   0  0  0  0  0  0  0  0  0
  1  2  1  0  0  0  0
  1  3  1  0  0  0  0
  3  4  4  0  0  0  0
  3  8  4  0  0  0  0
  4  5  4  0  0  0  0
  5  6  4  0  0  0  0
  6  7  4  0  0  0  0
  7  8  4  0  0  0  0
  8  9  1  0  0  0  0
  9 10  1  0  0  0  0
  9 14  1  0  0  0  0
 10 11  1  0  0  0  0
 11 12  1  0  0  0  0
 12 13  1  0  0  0  0
 12 15  1  0  0  0  0
 13 14  1  0  0  0  0
 15 16  1  0  0  0  0
 16 17  1  0  0  0  0
 17 18  1  0  0  0  0
 17 26  1  0  0  0  0
 18 19  2  0  0  0  0
 18 20  1  0  0  0  0
 20 21  1  0  0  0  0
 20 25  1  0  0  0  0
 21 22  1  0  0  0  0
 22 23  1  0  0  0  0
 23 24  1  0  0  0  0
 24 25  1  0  0  0  0
 26 27  4  0  0  0  0
 26 31  4  0  0  0  0
 27 28  4  0  0  0  0
 28 29  4  0  0  0  0
 29 30  4  0  0  0  0
 30 31  4  0  0  0  0
M  END
>  <Name_Molregno>
42179

>  <5-HT1A>
9.12

>  <5-HT1B>
5

>  <5-HT1D>
5

>  <5-HT1E>
5

>  <5-HT2A>
5.2

>  <5-HT5>
5

>  <5-HT6>
5

>  <5-HT7>
5

>  <Alpha-1A>
7.71

>  <Alpha-1B>
6.33

>  <Alpha-2A>
5

>  <Alpha-2B>
5

>  <Alpha-2C>
5.59

>  <DOPAMINE D1>
5

>  <DOPAMINE D2>
6.57

>  <DOPAMINE D3>
7.17

>  <DOPAMINE D4>
7.79

>  <DOPAMINE D5>
5

>  <HISTAMINE H1>
5

>  <HISTAMINE H2>
5

>  <HISTAMINE H4>
5

>  <Muscarinic acetylcholine receptor M2>
5

>  <Muscarinic acetylcholine receptor M5>
5

$$$$
52338
  Marvin  02231216192D 0   1.00000     0.00000     0

 18 19  0  0  1  0  0  0  0  0999 V2000
   -4.9210   -2.8534    0.0000 O   0  0  0  0  0  0  0  0  0
   -4.2065   -2.4409    0.0000 C   0  0  0  0  0  0  0  0  0
   -4.2065   -1.6159    0.0000 C   0  0  0  0  0  0  0  0  0
   -3.4921   -1.2034    0.0000 C   0  0  0  0  0  0  0  0  0
   -3.4921   -0.3784    0.0000 C   0  0  0  0  0  0  0  0  0
   -2.7776    0.0341    0.0000 C   0  0  0  0  0  0  0  0  0
   -2.7776    0.8591    0.0000 N   0  0  0  0  0  0  0  0  0
   -3.4921    1.2716    0.0000 C   0  0  0  0  0  0  0  0  0
   -3.4921    2.0966    0.0000 C   0  0  0  0  0  0  0  0  0
   -4.2065    2.5091    0.0000 C   0  0  0  0  0  0  0  0  0
   -2.0631    1.2716    0.0000 C   0  0  0  0  0  0  0  0  0
   -2.0631    2.0966    0.0000 C   0  0  0  0  0  0  0  0  0
   -1.3487    2.5091    0.0000 C   0  0  0  0  0  0  0  0  0
   -2.0631   -0.3784    0.0000 C   0  0  0  0  0  0  0  0  0
   -2.0631   -1.2034    0.0000 C   0  0  0  0  0  0  0  0  0
   -2.7776   -1.6159    0.0000 C   0  0  0  0  0  0  0  0  0
   -2.7776   -2.4409    0.0000 C   0  0  0  0  0  0  0  0  0
   -3.4921   -2.8534    0.0000 C   0  0  0  0  0  0  0  0  0
  1  2  1  0  0  0  0
  2  3  4  0  0  0  0
  2 18  4  0  0  0  0
  3  4  4  0  0  0  0
  4  5  1  0  0  0  0
  4 16  4  0  0  0  0
  5  6  1  0  0  0  0
  6  7  1  0  0  0  0
  6 14  1  0  0  0  0
  7  8  1  0  0  0  0
  7 11  1  0  0  0  0
  8  9  1  0  0  0  0
  9 10  1  0  0  0  0
 11 12  1  0  0  0  0
 12 13  1  0  0  0  0
 14 15  1  0  0  0  0
 15 16  1  0  0  0  0
 16 17  4  0  0  0  0
 17 18  4  0  0  0  0
M  END
>  <Name_Molregno>
52338

>  <5-HT1A>
7.07

>  <DOPAMINE D2>
6.97

>  <DOPAMINE D3>
8.62

>  <DOPAMINE D4>
6.45

>  <HISTAMINE H1>
5.82

$$$$
62798
  Marvin  02231216192D 0   1.00000     0.00000     0

 39 42  0  0  1  0  0  0  0  0999 V2000
   -5.3459   -2.3081    0.0000 F   0  0  0  0  0  0  0  0  0
   -6.1584   -2.4514    0.0000 C   0  0  0  0  0  0  0  0  0
   -6.4405   -3.2267    0.0000 C   0  0  0  0  0  0  0  0  0
   -7.2530   -3.3699    0.0000 C   0  0  0  0  0  0  0  0  0
   -7.5352   -4.1452    0.0000 F   0  0  0  0  0  0  0  0  0
   -7.7833   -2.7379    0.0000 C   0  0  0  0  0  0  0  0  0
   -7.5011   -1.9627    0.0000 C   0  0  0  0  0  0  0  0  0
   -6.6887   -1.8194    0.0000 C   0  0  0  0  0  0  0  0  0
   -6.4065   -1.0442    0.0000 C   0  0  0  0  0  0  0  0  0
   -6.4065   -0.2192    0.0000 C   0  0  0  0  0  0  0  0  0
   -5.6920    0.1933    0.0000 C   0  0  0  0  0  0  0  0  0
   -4.9776   -0.2192    0.0000 N   0  0  0  0  0  0  0  0  0
   -4.9776   -1.0442    0.0000 C   0  0  0  0  0  0  0  0  0
   -5.6920   -1.4567    0.0000 C   0  0  0  0  0  0  0  0  0
   -4.2631    0.1933    0.0000 C   0  0  0  0  0  0  0  0  0
   -3.5486   -0.2192    0.0000 C   0  0  0  0  0  0  0  0  0
   -2.8342    0.1933    0.0000 C   0  0  0  0  0  0  0  0  0
   -2.1197   -0.2192    0.0000 N   0  0  0  0  0  0  0  0  0
   -1.4052    0.1933    0.0000 C   0  0  0  0  0  0  0  0  0
   -1.4052    1.0183    0.0000 O   0  0  0  0  0  0  0  0  0
   -0.6907   -0.2192    0.0000 C   0  0  0  0  0  0  0  0  0
    0.0237    0.1933    0.0000 C   0  0  0  0  0  0  0  0  0
    0.7382   -0.2192    0.0000 C   0  0  0  0  0  0  0  0  0
    0.7382   -1.0442    0.0000 C   0  0  0  0  0  0  0  0  0
    1.4527   -1.4567    0.0000 O   0  0  0  0  0  0  0  0  0
    0.0237   -1.4567    0.0000 N   0  0  0  0  0  0  0  0  0
    0.0237   -2.2817    0.0000 C   0  0  0  0  0  0  0  0  0
   -0.6907   -1.0442    0.0000 C   0  0  0  0  0  0  0  0  0
   -1.4052   -1.4567    0.0000 C   0  0  0  0  0  0  0  0  0
    0.0237    1.0183    0.0000 C   0  0  0  0  0  0  0  0  0
   -0.6907    1.4308    0.0000 C   0  0  0  0  0  0  0  0  0
   -0.6907    2.2558    0.0000 C   0  0  0  0  0  0  0  0  0
   -1.4052    2.6683    0.0000 F   0  0  0  0  0  0  0  0  0
    0.0237    2.6683    0.0000 C   0  0  0  0  0  0  0  0  0
    0.0237    3.4933    0.0000 F   0  0  0  0  0  0  0  0  0
    0.7382    2.2558    0.0000 C   0  0  0  0  0  0  0  0  0
    0.7382    1.4308    0.0000 C   0  0  0  0  0  0  0  0  0
   -7.2190   -0.9009    0.0000 C   0  0  0  0  0  0  0  0  0
   -8.0314   -0.7577    0.0000 N   0  0  0  0  0  0  0  0  0
  1  2  1  0  0  0  0
  2  3  4  0  0  0  0
  2  8  4  0  0  0  0
  3  4  4  0  0  0  0
  4  5  1  0  0  0  0
  4  6  4  0  0  0  0
  6  7  4  0  0  0  0
  7  8  4  0  0  0  0
  8  9  1  0  0  0  0
  9 10  1  0  0  0  0
  9 14  1  0  0  0  0
  9 38  1  0  0  0  0
 10 11  1  0  0  0  0
 11 12  1  0  0  0  0
 12 13  1  0  0  0  0
 12 15  1  0  0  0  0
 13 14  1  0  0  0  0
 15 16  1  0  0  0  0
 16 17  1  0  0  0  0
 17 18  1  0  0  0  0
 18 19  1  0  0  0  0
 19 20  2  0  0  0  0
 19 21  1  0  0  0  0
 21 22  1  0  0  0  0
 21 28  2  0  0  0  0
 22 23  1  0  0  0  0
 22 30  1  0  0  0  0
 23 24  1  0  0  0  0
 24 25  2  0  0  0  0
 24 26  1  0  0  0  0
 26 27  1  0  0  0  0
 26 28  1  0  0  0  0
 28 29  1  0  0  0  0
 30 31  4  0  0  0  0
 30 37  4  0  0  0  0
 31 32  4  0  0  0  0
 32 33  1  0  0  0  0
 32 34  4  0  0  0  0
 34 35  1  0  0  0  0
 34 36  4  0  0  0  0
 36 37  4  0  0  0  0
 38 39  3  0  0  0  0
M  END
>  <Name_Molregno>
62798

>  <HISTAMINE H1>
6.52

$$$$
62944
  Marvin  02231216192D 0   1.00000     0.00000     0

 39 42  0  0  1  0  0  0  0  0999 V2000
   -0.0611    1.5931    0.0000 F   0  0  0  0  0  0  0  0  0
    0.6533    1.1806    0.0000 C   0  0  0  0  0  0  0  0  0
    1.3678    1.5931    0.0000 C   0  0  0  0  0  0  0  0  0
    2.0823    1.1806    0.0000 C   0  0  0  0  0  0  0  0  0
    2.0823    0.3556    0.0000 C   0  0  0  0  0  0  0  0  0
    1.3678   -0.0569    0.0000 C   0  0  0  0  0  0  0  0  0
    0.6533    0.3556    0.0000 C   0  0  0  0  0  0  0  0  0
   -0.0611   -0.0569    0.0000 F   0  0  0  0  0  0  0  0  0
    2.7967    1.5931    0.0000 C   0  0  0  0  0  0  0  0  0
    2.7967    2.4181    0.0000 C   0  0  0  0  0  0  0  0  0
    3.5112    2.8306    0.0000 C   0  0  0  0  0  0  0  0  0
    3.5112    3.6556    0.0000 O   0  0  0  0  0  0  0  0  0
    4.2257    2.4181    0.0000 N   0  0  0  0  0  0  0  0  0
    4.2257    1.5931    0.0000 C   0  0  0  0  0  0  0  0  0
    4.9402    1.1806    0.0000 C   0  0  0  0  0  0  0  0  0
    3.5112    1.1806    0.0000 C   0  0  0  0  0  0  0  0  0
    3.5112    0.3556    0.0000 C   0  0  0  0  0  0  0  0  0
    2.7967   -0.0569    0.0000 O   0  0  0  0  0  0  0  0  0
    4.2257   -0.0569    0.0000 N   0  0  0  0  0  0  0  0  0
    4.9402    0.3556    0.0000 C   0  0  0  0  0  0  0  0  0
    5.6546   -0.0569    0.0000 C   0  0  0  0  0  0  0  0  0
    6.3691    0.3556    0.0000 C   0  0  0  0  0  0  0  0  0
    7.0836   -0.0569    0.0000 N   0  0  0  0  0  0  0  0  0
    7.7980    0.3556    0.0000 C   0  0  0  0  0  0  0  0  0
    8.5125   -0.0569    0.0000 C   0  0  0  0  0  0  0  0  0
    8.5125   -0.8819    0.0000 C   0  0  0  0  0  0  0  0  0
    7.7980   -1.2944    0.0000 C   0  0  0  0  0  0  0  0  0
    7.0836   -0.8819    0.0000 C   0  0  0  0  0  0  0  0  0
    9.3370   -0.9107    0.0000 C   0  0  0  0  0  0  0  0  0
   10.1615   -0.9395    0.0000 N   0  0  0  0  0  0  0  0  0
    8.9497   -1.5815    0.0000 C   0  0  0  0  0  0  0  0  0
    9.7742   -1.5527    0.0000 C   0  0  0  0  0  0  0  0  0
   10.2114   -2.2524    0.0000 C   0  0  0  0  0  0  0  0  0
    9.8241   -2.9808    0.0000 C   0  0  0  0  0  0  0  0  0
   10.2612   -3.6805    0.0000 F   0  0  0  0  0  0  0  0  0
    8.9996   -3.0096    0.0000 C   0  0  0  0  0  0  0  0  0
    8.5624   -2.3100    0.0000 C   0  0  0  0  0  0  0  0  0
    7.7379   -2.3388    0.0000 C   0  0  0  0  0  0  0  0  0
    6.9134   -2.3676    0.0000 N   0  0  0  0  0  0  0  0  0
  1  2  1  0  0  0  0
  2  3  4  0  0  0  0
  2  7  4  0  0  0  0
  3  4  4  0  0  0  0
  4  5  4  0  0  0  0
  4  9  1  0  0  0  0
  5  6  4  0  0  0  0
  6  7  4  0  0  0  0
  7  8  1  0  0  0  0
  9 10  1  0  0  0  0
  9 16  1  0  0  0  0
 10 11  1  0  0  0  0
 11 12  2  0  0  0  0
 11 13  1  0  0  0  0
 13 14  1  0  0  0  0
 14 15  1  0  0  0  0
 14 16  2  0  0  0  0
 16 17  1  0  0  0  0
 17 18  2  0  0  0  0
 17 19  1  0  0  0  0
 19 20  1  0  0  0  0
 20 21  1  0  0  0  0
 21 22  1  0  0  0  0
 22 23  1  0  0  0  0
 23 24  1  0  0  0  0
 23 28  1  0  0  0  0
 24 25  1  0  0  0  0
 25 26  1  0  0  0  0
 26 27  1  0  0  0  0
 26 29  1  0  0  0  0
 26 31  1  0  0  0  0
 27 28  1  0  0  0  0
 29 30  3  0  0  0  0
 31 32  4  0  0  0  0
 31 37  4  0  0  0  0
 32 33  4  0  0  0  0
 33 34  4  0  0  0  0
 34 35  1  0  0  0  0
 34 36  4  0  0  0  0
 36 37  4  0  0  0  0
 37 38  1  0  0  0  0
 38 39  3  0  0  0  0
M  END
>  <Name_Molregno>
62944

>  <HISTAMINE H1>
7.04

$$$$
63001
  Marvin  02231216192D 0   1.00000     0.00000     0

 38 41  0  0  1  0  0  0  0  0999 V2000
   -5.2180   -2.4417    0.0000 F   0  0  0  0  0  0  0  0  0
   -6.0305   -2.5850    0.0000 C   0  0  0  0  0  0  0  0  0
   -6.3127   -3.3602    0.0000 C   0  0  0  0  0  0  0  0  0
   -7.1251   -3.5035    0.0000 C   0  0  0  0  0  0  0  0  0
   -7.4073   -4.2787    0.0000 F   0  0  0  0  0  0  0  0  0
   -7.6554   -2.8715    0.0000 C   0  0  0  0  0  0  0  0  0
   -7.3733   -2.0962    0.0000 C   0  0  0  0  0  0  0  0  0
   -6.5608   -1.9530    0.0000 C   0  0  0  0  0  0  0  0  0
   -6.2786   -1.1777    0.0000 C   0  0  0  0  0  0  0  0  0
   -6.2786   -0.3527    0.0000 C   0  0  0  0  0  0  0  0  0
   -5.5642    0.0598    0.0000 C   0  0  0  0  0  0  0  0  0
   -4.8497   -0.3527    0.0000 N   0  0  0  0  0  0  0  0  0
   -4.8497   -1.1777    0.0000 C   0  0  0  0  0  0  0  0  0
   -5.5642   -1.5902    0.0000 C   0  0  0  0  0  0  0  0  0
   -4.1352    0.0598    0.0000 C   0  0  0  0  0  0  0  0  0
   -3.4207   -0.3527    0.0000 C   0  0  0  0  0  0  0  0  0
   -2.7063    0.0598    0.0000 C   0  0  0  0  0  0  0  0  0
   -1.9918   -0.3527    0.0000 N   0  0  0  0  0  0  0  0  0
   -1.2773    0.0598    0.0000 C   0  0  0  0  0  0  0  0  0
   -1.2773    0.8848    0.0000 O   0  0  0  0  0  0  0  0  0
   -0.5629   -0.3527    0.0000 C   0  0  0  0  0  0  0  0  0
    0.1516    0.0598    0.0000 C   0  0  0  0  0  0  0  0  0
    0.8661   -0.3527    0.0000 C   0  0  0  0  0  0  0  0  0
    0.8661   -1.1777    0.0000 C   0  0  0  0  0  0  0  0  0
    1.5806   -1.5902    0.0000 O   0  0  0  0  0  0  0  0  0
    0.1516   -1.5902    0.0000 N   0  0  0  0  0  0  0  0  0
   -0.5629   -1.1777    0.0000 C   0  0  0  0  0  0  0  0  0
   -1.2773   -1.5902    0.0000 C   0  0  0  0  0  0  0  0  0
    0.1516    0.8848    0.0000 C   0  0  0  0  0  0  0  0  0
   -0.5629    1.2973    0.0000 C   0  0  0  0  0  0  0  0  0
   -0.5629    2.1223    0.0000 C   0  0  0  0  0  0  0  0  0
   -1.2773    2.5348    0.0000 F   0  0  0  0  0  0  0  0  0
    0.1516    2.5348    0.0000 C   0  0  0  0  0  0  0  0  0
    0.1516    3.3598    0.0000 F   0  0  0  0  0  0  0  0  0
    0.8661    2.1223    0.0000 C   0  0  0  0  0  0  0  0  0
    0.8661    1.2973    0.0000 C   0  0  0  0  0  0  0  0  0
   -7.0911   -1.0345    0.0000 C   0  0  0  0  0  0  0  0  0
   -7.9036   -0.8912    0.0000 N   0  0  0  0  0  0  0  0  0
  1  2  1  0  0  0  0
  2  3  4  0  0  0  0
  2  8  4  0  0  0  0
  3  4  4  0  0  0  0
  4  5  1  0  0  0  0
  4  6  4  0  0  0  0
  6  7  4  0  0  0  0
  7  8  4  0  0  0  0
  8  9  1  0  0  0  0
  9 10  1  0  0  0  0
  9 14  1  0  0  0  0
  9 37  1  0  0  0  0
 10 11  1  0  0  0  0
 11 12  1  0  0  0  0
 12 13  1  0  0  0  0
 12 15  1  0  0  0  0
 13 14  1  0  0  0  0
 15 16  1  0  0  0  0
 16 17  1  0  0  0  0
 17 18  1  0  0  0  0
 18 19  1  0  0  0  0
 19 20  2  0  0  0  0
 19 21  1  0  0  0  0
 21 22  1  0  0  0  0
 21 27  2  0  0  0  0
 22 23  1  0  0  0  0
 22 29  1  0  0  0  0
 23 24  1  0  0  0  0
 24 25  2  0  0  0  0
 24 26  1  0  0  0  0
 26 27  1  0  0  0  0
 27 28  1  0  0  0  0
 29 30  4  0  0  0  0
 29 36  4  0  0  0  0
 30 31  4  0  0  0  0
 31 32  1  0  0  0  0
 31 33  4  0  0  0  0
 33 34  1  0  0  0  0
 33 35  4  0  0  0  0
 35 36  4  0  0  0  0
 37 38  3  0  0  0  0
M  END
>  <Name_Molregno>
63001

>  <HISTAMINE H1>
6.97

$$$$
63004
  Marvin  02231216192D 0   1.00000     0.00000     0

 40 43  0  0  1  0  0  0  0  0999 V2000
   -0.0944    1.6156    0.0000 F   0  0  0  0  0  0  0  0  0
    0.6200    1.2031    0.0000 C   0  0  0  0  0  0  0  0  0
    1.3345    1.6156    0.0000 C   0  0  0  0  0  0  0  0  0
    2.0490    1.2031    0.0000 C   0  0  0  0  0  0  0  0  0
    2.0490    0.3781    0.0000 C   0  0  0  0  0  0  0  0  0
    1.3345   -0.0344    0.0000 C   0  0  0  0  0  0  0  0  0
    0.6200    0.3781    0.0000 C   0  0  0  0  0  0  0  0  0
   -0.0944   -0.0344    0.0000 F   0  0  0  0  0  0  0  0  0
    2.7634    1.6156    0.0000 C   0  0  0  0  0  0  0  0  0
    2.7634    2.4406    0.0000 C   0  0  0  0  0  0  0  0  0
    3.4779    2.8531    0.0000 C   0  0  0  0  0  0  0  0  0
    3.4779    3.6781    0.0000 O   0  0  0  0  0  0  0  0  0
    4.1924    2.4406    0.0000 N   0  0  0  0  0  0  0  0  0
    4.9069    2.8531    0.0000 C   0  0  0  0  0  0  0  0  0
    4.1924    1.6156    0.0000 C   0  0  0  0  0  0  0  0  0
    4.9069    1.2031    0.0000 C   0  0  0  0  0  0  0  0  0
    3.4779    1.2031    0.0000 C   0  0  0  0  0  0  0  0  0
    3.4779    0.3781    0.0000 C   0  0  0  0  0  0  0  0  0
    2.7634   -0.0344    0.0000 O   0  0  0  0  0  0  0  0  0
    4.1924   -0.0344    0.0000 N   0  0  0  0  0  0  0  0  0
    4.9069    0.3781    0.0000 C   0  0  0  0  0  0  0  0  0
    5.6213   -0.0344    0.0000 C   0  0  0  0  0  0  0  0  0
    6.3358    0.3781    0.0000 C   0  0  0  0  0  0  0  0  0
    7.0503   -0.0344    0.0000 N   0  0  0  0  0  0  0  0  0
    7.7647    0.3781    0.0000 C   0  0  0  0  0  0  0  0  0
    8.4792   -0.0344    0.0000 C   0  0  0  0  0  0  0  0  0
    8.4792   -0.8594    0.0000 C   0  0  0  0  0  0  0  0  0
    7.7647   -1.2719    0.0000 C   0  0  0  0  0  0  0  0  0
    7.0503   -0.8594    0.0000 C   0  0  0  0  0  0  0  0  0
    9.3037   -0.8881    0.0000 C   0  0  0  0  0  0  0  0  0
   10.1282   -0.9169    0.0000 N   0  0  0  0  0  0  0  0  0
    8.9164   -1.5590    0.0000 C   0  0  0  0  0  0  0  0  0
    9.7409   -1.5302    0.0000 C   0  0  0  0  0  0  0  0  0
   10.1781   -2.2298    0.0000 C   0  0  0  0  0  0  0  0  0
    9.7908   -2.9583    0.0000 C   0  0  0  0  0  0  0  0  0
   10.2279   -3.6579    0.0000 F   0  0  0  0  0  0  0  0  0
    8.9663   -2.9871    0.0000 C   0  0  0  0  0  0  0  0  0
    8.5291   -2.2874    0.0000 C   0  0  0  0  0  0  0  0  0
    7.7046   -2.3162    0.0000 C   0  0  0  0  0  0  0  0  0
    6.8801   -2.3450    0.0000 N   0  0  0  0  0  0  0  0  0
  1  2  1  0  0  0  0
  2  3  4  0  0  0  0
  2  7  4  0  0  0  0
  3  4  4  0  0  0  0
  4  5  4  0  0  0  0
  4  9  1  0  0  0  0
  5  6  4  0  0  0  0
  6  7  4  0  0  0  0
  7  8  1  0  0  0  0
  9 10  1  0  0  0  0
  9 17  1  0  0  0  0
 10 11  1  0  0  0  0
 11 12  2  0  0  0  0
 11 13  1  0  0  0  0
 13 14  1  0  0  0  0
 13 15  1  0  0  0  0
 15 16  1  0  0  0  0
 15 17  2  0  0  0  0
 17 18  1  0  0  0  0
 18 19  2  0  0  0  0
 18 20  1  0  0  0  0
 20 21  1  0  0  0  0
 21 22  1  0  0  0  0
 22 23  1  0  0  0  0
 23 24  1  0  0  0  0
 24 25  1  0  0  0  0
 24 29  1  0  0  0  0
 25 26  1  0  0  0  0
 26 27  1  0  0  0  0
 27 28  1  0  0  0  0
 27 30  1  0  0  0  0
 27 32  1  0  0  0  0
 28 29  1  0  0  0  0
 30 31  3  0  0  0  0
 32 33  4  0  0  0  0
 32 38  4  0  0  0  0
 33 34  4  0  0  0  0
 34 35  4  0  0  0  0
 35 36  1  0  0  0  0
 35 37  4  0  0  0  0
 37 38  4  0  0  0  0
 38 39  1  0  0  0  0
 39 40  3  0  0  0  0
M  END
>  <Name_Molregno>
63004

>  <HISTAMINE H1>
6.21

$$$$
63064
  Marvin  02231216192D 0   1.00000     0.00000     0

 37 40  0  0  1  0  0  0  0  0999 V2000
   -0.1024    1.5578    0.0000 F   0  0  0  0  0  0  0  0  0
    0.6121    1.1453    0.0000 C   0  0  0  0  0  0  0  0  0
    1.3266    1.5578    0.0000 C   0  0  0  0  0  0  0  0  0
    2.0410    1.1453    0.0000 C   0  0  0  0  0  0  0  0  0
    2.0410    0.3203    0.0000 C   0  0  0  0  0  0  0  0  0
    1.3266   -0.0922    0.0000 C   0  0  0  0  0  0  0  0  0
    0.6121    0.3203    0.0000 C   0  0  0  0  0  0  0  0  0
   -0.1024   -0.0922    0.0000 F   0  0  0  0  0  0  0  0  0
    2.7555    1.5578    0.0000 C   0  0  0  0  0  0  0  0  0
    2.7555    2.3828    0.0000 C   0  0  0  0  0  0  0  0  0
    3.4700    2.7953    0.0000 C   0  0  0  0  0  0  0  0  0
    3.4700    3.6203    0.0000 O   0  0  0  0  0  0  0  0  0
    4.1845    2.3828    0.0000 N   0  0  0  0  0  0  0  0  0
    4.1845    1.5578    0.0000 C   0  0  0  0  0  0  0  0  0
    4.8989    1.1453    0.0000 C   0  0  0  0  0  0  0  0  0
    3.4700    1.1453    0.0000 C   0  0  0  0  0  0  0  0  0
    3.4700    0.3203    0.0000 C   0  0  0  0  0  0  0  0  0
    2.7555   -0.0922    0.0000 O   0  0  0  0  0  0  0  0  0
    4.1845   -0.0922    0.0000 N   0  0  0  0  0  0  0  0  0
    4.8989    0.3203    0.0000 C   0  0  0  0  0  0  0  0  0
    5.6134   -0.0922    0.0000 C   0  0  0  0  0  0  0  0  0
    6.3279    0.3203    0.0000 C   0  0  0  0  0  0  0  0  0
    7.0423   -0.0922    0.0000 N   0  0  0  0  0  0  0  0  0
    7.7568    0.3203    0.0000 C   0  0  0  0  0  0  0  0  0
    8.4713   -0.0922    0.0000 C   0  0  0  0  0  0  0  0  0
    8.4713   -0.9172    0.0000 C   0  0  0  0  0  0  0  0  0
    7.7568   -1.3297    0.0000 C   0  0  0  0  0  0  0  0  0
    7.0423   -0.9172    0.0000 C   0  0  0  0  0  0  0  0  0
    9.2958   -0.9460    0.0000 C   0  0  0  0  0  0  0  0  0
   10.1203   -0.9748    0.0000 N   0  0  0  0  0  0  0  0  0
    8.9085   -1.6169    0.0000 C   0  0  0  0  0  0  0  0  0
    9.7330   -1.5881    0.0000 C   0  0  0  0  0  0  0  0  0
   10.1701   -2.2877    0.0000 C   0  0  0  0  0  0  0  0  0
    9.7828   -3.0161    0.0000 C   0  0  0  0  0  0  0  0  0
   10.2200   -3.7158    0.0000 F   0  0  0  0  0  0  0  0  0
    8.9583   -3.0449    0.0000 C   0  0  0  0  0  0  0  0  0
    8.5211   -2.3453    0.0000 C   0  0  0  0  0  0  0  0  0
  1  2  1  0  0  0  0
  2  3  4  0  0  0  0
  2  7  4  0  0  0  0
  3  4  4  0  0  0  0
  4  5  4  0  0  0  0
  4  9  1  0  0  0  0
  5  6  4  0  0  0  0
  6  7  4  0  0  0  0
  7  8  1  0  0  0  0
  9 10  1  0  0  0  0
  9 16  1  0  0  0  0
 10 11  1  0  0  0  0
 11 12  2  0  0  0  0
 11 13  1  0  0  0  0
 13 14  1  0  0  0  0
 14 15  1  0  0  0  0
 14 16  2  0  0  0  0
 16 17  1  0  0  0  0
 17 18  2  0  0  0  0
 17 19  1  0  0  0  0
 19 20  1  0  0  0  0
 20 21  1  0  0  0  0
 21 22  1  0  0  0  0
 22 23  1  0  0  0  0
 23 24  1  0  0  0  0
 23 28  1  0  0  0  0
 24 25  1  0  0  0  0
 25 26  1  0  0  0  0
 26 27  1  0  0  0  0
 26 29  1  0  0  0  0
 26 31  1  0  0  0  0
 27 28  1  0  0  0  0
 29 30  3  0  0  0  0
 31 32  4  0  0  0  0
 31 37  4  0  0  0  0
 32 33  4  0  0  0  0
 33 34  4  0  0  0  0
 34 35  1  0  0  0  0
 34 36  4  0  0  0  0
 36 37  4  0  0  0  0
M  END
>  <Name_Molregno>
63064

>  <HISTAMINE H1>
7.2

$$$$
63103
  Marvin  02231216192D 0   1.00000     0.00000     0

 37 40  0  0  1  0  0  0  0  0999 V2000
    3.8068   -2.3894    0.0000 F   0  0  0  0  0  0  0  0  0
    3.8068   -1.5644    0.0000 C   0  0  0  0  0  0  0  0  0
    3.0923   -1.1519    0.0000 C   0  0  0  0  0  0  0  0  0
    3.0923   -0.3269    0.0000 C   0  0  0  0  0  0  0  0  0
    3.8068    0.0856    0.0000 C   0  0  0  0  0  0  0  0  0
    4.5213   -0.3269    0.0000 C   0  0  0  0  0  0  0  0  0
    4.5213   -1.1519    0.0000 C   0  0  0  0  0  0  0  0  0
    5.2357   -1.5644    0.0000 F   0  0  0  0  0  0  0  0  0
    2.3779    0.0856    0.0000 C   0  0  0  0  0  0  0  0  0
    1.6634   -0.3269    0.0000 C   0  0  0  0  0  0  0  0  0
    0.9489    0.0856    0.0000 C   0  0  0  0  0  0  0  0  0
    0.2345   -0.3269    0.0000 O   0  0  0  0  0  0  0  0  0
    0.9489    0.9106    0.0000 N   0  0  0  0  0  0  0  0  0
    1.6634    1.3231    0.0000 C   0  0  0  0  0  0  0  0  0
    1.6634    2.1481    0.0000 C   0  0  0  0  0  0  0  0  0
    2.3779    0.9106    0.0000 C   0  0  0  0  0  0  0  0  0
    3.0923    1.3231    0.0000 C   0  0  0  0  0  0  0  0  0
    3.0923    2.1481    0.0000 O   0  0  0  0  0  0  0  0  0
    3.8068    0.9106    0.0000 N   0  0  0  0  0  0  0  0  0
    4.5213    1.3231    0.0000 C   0  0  0  0  0  0  0  0  0
    5.2357    0.9106    0.0000 C   0  0  0  0  0  0  0  0  0
    5.9502    1.3231    0.0000 C   0  0  0  0  0  0  0  0  0
    6.6647    0.9106    0.0000 N   0  0  0  0  0  0  0  0  0
    7.3792    1.3231    0.0000 C   0  0  0  0  0  0  0  0  0
    8.0936    0.9106    0.0000 C   0  0  0  0  0  0  0  0  0
    8.0936    0.0856    0.0000 C   0  0  0  0  0  0  0  0  0
    7.3792   -0.3269    0.0000 C   0  0  0  0  0  0  0  0  0
    6.6647    0.0856    0.0000 C   0  0  0  0  0  0  0  0  0
    8.8081   -0.3269    0.0000 C   0  0  0  0  0  0  0  0  0
    9.5226    0.0856    0.0000 C   0  0  0  0  0  0  0  0  0
   10.2370   -0.3269    0.0000 C   0  0  0  0  0  0  0  0  0
   10.2370   -1.1519    0.0000 C   0  0  0  0  0  0  0  0  0
   10.9515   -1.5644    0.0000 F   0  0  0  0  0  0  0  0  0
    9.5226   -1.5644    0.0000 C   0  0  0  0  0  0  0  0  0
    8.8081   -1.1519    0.0000 C   0  0  0  0  0  0  0  0  0
    8.0936   -1.5644    0.0000 C   0  0  0  0  0  0  0  0  0
    7.3792   -1.9769    0.0000 N   0  0  0  0  0  0  0  0  0
  1  2  1  0  0  0  0
  2  3  4  0  0  0  0
  2  7  4  0  0  0  0
  3  4  4  0  0  0  0
  4  5  4  0  0  0  0
  4  9  1  0  0  0  0
  5  6  4  0  0  0  0
  6  7  4  0  0  0  0
  7  8  1  0  0  0  0
  9 10  1  0  0  0  0
  9 16  1  0  0  0  0
 10 11  1  0  0  0  0
 11 12  2  0  0  0  0
 11 13  1  0  0  0  0
 13 14  1  0  0  0  0
 14 15  1  0  0  0  0
 14 16  2  0  0  0  0
 16 17  1  0  0  0  0
 17 18  2  0  0  0  0
 17 19  1  0  0  0  0
 19 20  1  0  0  0  0
 20 21  1  0  0  0  0
 21 22  1  0  0  0  0
 22 23  1  0  0  0  0
 23 24  1  0  0  0  0
 23 28  1  0  0  0  0
 24 25  1  0  0  0  0
 25 26  1  0  0  0  0
 26 27  1  0  0  0  0
 26 29  1  0  0  0  0
 27 28  1  0  0  0  0
 29 30  4  0  0  0  0
 29 35  4  0  0  0  0
 30 31  4  0  0  0  0
 31 32  4  0  0  0  0
 32 33  1  0  0  0  0
 32 34  4  0  0  0  0
 34 35  4  0  0  0  0
 35 36  1  0  0  0  0
 36 37  3  0  0  0  0
M  END
>  <Name_Molregno>
63103

>  <HISTAMINE H1>
7.24

$$$$
63107
  Marvin  02231216192D 0   1.00000     0.00000     0

 35 38  0  0  1  0  0  0  0  0999 V2000
    3.7296   -2.7095    0.0000 F   0  0  0  0  0  0  0  0  0
    3.7296   -1.8845    0.0000 C   0  0  0  0  0  0  0  0  0
    3.0151   -1.4720    0.0000 C   0  0  0  0  0  0  0  0  0
    3.0151   -0.6470    0.0000 C   0  0  0  0  0  0  0  0  0
    3.7296   -0.2345    0.0000 C   0  0  0  0  0  0  0  0  0
    4.4440   -0.6470    0.0000 C   0  0  0  0  0  0  0  0  0
    4.4440   -1.4720    0.0000 C   0  0  0  0  0  0  0  0  0
    5.1585   -1.8845    0.0000 F   0  0  0  0  0  0  0  0  0
    2.3006   -0.2345    0.0000 C   0  0  0  0  0  0  0  0  0
    1.5862   -0.6470    0.0000 C   0  0  0  0  0  0  0  0  0
    0.8717   -0.2345    0.0000 C   0  0  0  0  0  0  0  0  0
    0.1572   -0.6470    0.0000 O   0  0  0  0  0  0  0  0  0
    0.8717    0.5905    0.0000 N   0  0  0  0  0  0  0  0  0
    1.5862    1.0030    0.0000 C   0  0  0  0  0  0  0  0  0
    1.5862    1.8280    0.0000 C   0  0  0  0  0  0  0  0  0
    2.3006    0.5905    0.0000 C   0  0  0  0  0  0  0  0  0
    3.0151    1.0030    0.0000 C   0  0  0  0  0  0  0  0  0
    3.0151    1.8280    0.0000 O   0  0  0  0  0  0  0  0  0
    3.7296    0.5905    0.0000 N   0  0  0  0  0  0  0  0  0
    4.4440    1.0030    0.0000 C   0  0  0  0  0  0  0  0  0
    5.1585    0.5905    0.0000 C   0  0  0  0  0  0  0  0  0
    5.8730    1.0030    0.0000 C   0  0  0  0  0  0  0  0  0
    6.5875    0.5905    0.0000 N   0  0  0  0  0  0  0  0  0
    7.3019    1.0030    0.0000 C   0  0  0  0  0  0  0  0  0
    8.0164    0.5905    0.0000 C   0  0  0  0  0  0  0  0  0
    8.0164   -0.2345    0.0000 C   0  0  0  0  0  0  0  0  0
    7.3019   -0.6470    0.0000 C   0  0  0  0  0  0  0  0  0
    6.5875   -0.2345    0.0000 C   0  0  0  0  0  0  0  0  0
    8.7309   -0.6470    0.0000 C   0  0  0  0  0  0  0  0  0
    9.4453   -0.2345    0.0000 C   0  0  0  0  0  0  0  0  0
   10.1598   -0.6470    0.0000 C   0  0  0  0  0  0  0  0  0
   10.1598   -1.4720    0.0000 C   0  0  0  0  0  0  0  0  0
   10.8743   -1.8845    0.0000 F   0  0  0  0  0  0  0  0  0
    9.4453   -1.8845    0.0000 C   0  0  0  0  0  0  0  0  0
    8.7309   -1.4720    0.0000 C   0  0  0  0  0  0  0  0  0
  1  2  1  0  0  0  0
  2  3  4  0  0  0  0
  2  7  4  0  0  0  0
  3  4  4  0  0  0  0
  4  5  4  0  0  0  0
  4  9  1  0  0  0  0
  5  6  4  0  0  0  0
  6  7  4  0  0  0  0
  7  8  1  0  0  0  0
  9 10  1  0  0  0  0
  9 16  1  0  0  0  0
 10 11  1  0  0  0  0
 11 12  2  0  0  0  0
 11 13  1  0  0  0  0
 13 14  1  0  0  0  0
 14 15  1  0  0  0  0
 14 16  2  0  0  0  0
 16 17  1  0  0  0  0
 17 18  2  0  0  0  0
 17 19  1  0  0  0  0
 19 20  1  0  0  0  0
 20 21  1  0  0  0  0
 21 22  1  0  0  0  0
 22 23  1  0  0  0  0
 23 24  1  0  0  0  0
 23 28  1  0  0  0  0
 24 25  1  0  0  0  0
 25 26  1  0  0  0  0
 26 27  1  0  0  0  0
 26 29  1  0  0  0  0
 27 28  1  0  0  0  0
 29 30  4  0  0  0  0
 29 35  4  0  0  0  0
 30 31  4  0  0  0  0
 31 32  4  0  0  0  0
 32 33  1  0  0  0  0
 32 34  4  0  0  0  0
 34 35  4  0  0  0  0
M  END
>  <Name_Molregno>
63107

>  <HISTAMINE H1>
7.72

$$$$
63253
  Marvin  02231216192D 0   1.00000     0.00000     0

 38 41  0  0  1  0  0  0  0  0999 V2000
   -0.1356    1.5758    0.0000 F   0  0  0  0  0  0  0  0  0
    0.5789    1.1633    0.0000 C   0  0  0  0  0  0  0  0  0
    1.2933    1.5758    0.0000 C   0  0  0  0  0  0  0  0  0
    2.0078    1.1633    0.0000 C   0  0  0  0  0  0  0  0  0
    2.0078    0.3383    0.0000 C   0  0  0  0  0  0  0  0  0
    1.2933   -0.0742    0.0000 C   0  0  0  0  0  0  0  0  0
    0.5789    0.3383    0.0000 C   0  0  0  0  0  0  0  0  0
   -0.1356   -0.0742    0.0000 F   0  0  0  0  0  0  0  0  0
    2.7223    1.5758    0.0000 C   0  0  0  0  0  0  0  0  0
    2.7223    2.4008    0.0000 C   0  0  0  0  0  0  0  0  0
    3.4368    2.8133    0.0000 C   0  0  0  0  0  0  0  0  0
    3.4368    3.6383    0.0000 O   0  0  0  0  0  0  0  0  0
    4.1512    2.4008    0.0000 N   0  0  0  0  0  0  0  0  0
    4.8657    2.8133    0.0000 C   0  0  0  0  0  0  0  0  0
    4.1512    1.5758    0.0000 C   0  0  0  0  0  0  0  0  0
    4.8657    1.1633    0.0000 C   0  0  0  0  0  0  0  0  0
    3.4368    1.1633    0.0000 C   0  0  0  0  0  0  0  0  0
    3.4368    0.3383    0.0000 C   0  0  0  0  0  0  0  0  0
    2.7223   -0.0742    0.0000 O   0  0  0  0  0  0  0  0  0
    4.1512   -0.0742    0.0000 N   0  0  0  0  0  0  0  0  0
    4.8657    0.3383    0.0000 C   0  0  0  0  0  0  0  0  0
    5.5802   -0.0742    0.0000 C   0  0  0  0  0  0  0  0  0
    6.2946    0.3383    0.0000 C   0  0  0  0  0  0  0  0  0
    7.0091   -0.0742    0.0000 N   0  0  0  0  0  0  0  0  0
    7.7236    0.3383    0.0000 C   0  0  0  0  0  0  0  0  0
    8.4381   -0.0742    0.0000 C   0  0  0  0  0  0  0  0  0
    8.4381   -0.8992    0.0000 C   0  0  0  0  0  0  0  0  0
    7.7236   -1.3117    0.0000 C   0  0  0  0  0  0  0  0  0
    7.0091   -0.8992    0.0000 C   0  0  0  0  0  0  0  0  0
    9.2626   -0.9280    0.0000 C   0  0  0  0  0  0  0  0  0
   10.0870   -0.9568    0.0000 N   0  0  0  0  0  0  0  0  0
    8.8752   -1.5988    0.0000 C   0  0  0  0  0  0  0  0  0
    9.6997   -1.5700    0.0000 C   0  0  0  0  0  0  0  0  0
   10.1369   -2.2697    0.0000 C   0  0  0  0  0  0  0  0  0
    9.7496   -2.9981    0.0000 C   0  0  0  0  0  0  0  0  0
   10.1868   -3.6977    0.0000 F   0  0  0  0  0  0  0  0  0
    8.9251   -3.0269    0.0000 C   0  0  0  0  0  0  0  0  0
    8.4879   -2.3272    0.0000 C   0  0  0  0  0  0  0  0  0
  1  2  1  0  0  0  0
  2  3  4  0  0  0  0
  2  7  4  0  0  0  0
  3  4  4  0  0  0  0
  4  5  4  0  0  0  0
  4  9  1  0  0  0  0
  5  6  4  0  0  0  0
  6  7  4  0  0  0  0
  7  8  1  0  0  0  0
  9 10  1  0  0  0  0
  9 17  1  0  0  0  0
 10 11  1  0  0  0  0
 11 12  2  0  0  0  0
 11 13  1  0  0  0  0
 13 14  1  0  0  0  0
 13 15  1  0  0  0  0
 15 16  1  0  0  0  0
 15 17  2  0  0  0  0
 17 18  1  0  0  0  0
 18 19  2  0  0  0  0
 18 20  1  0  0  0  0
 20 21  1  0  0  0  0
 21 22  1  0  0  0  0
 22 23  1  0  0  0  0
 23 24  1  0  0  0  0
 24 25  1  0  0  0  0
 24 29  1  0  0  0  0
 25 26  1  0  0  0  0
 26 27  1  0  0  0  0
 27 28  1  0  0  0  0
 27 30  1  0  0  0  0
 27 32  1  0  0  0  0
 28 29  1  0  0  0  0
 30 31  3  0  0  0  0
 32 33  4  0  0  0  0
 32 38  4  0  0  0  0
 33 34  4  0  0  0  0
 34 35  4  0  0  0  0
 35 36  1  0  0  0  0
 35 37  4  0  0  0  0
 37 38  4  0  0  0  0
M  END
>  <Name_Molregno>
63253

>  <HISTAMINE H1>
6.45

$$$$
63282
  Marvin  02231216192D 0   1.00000     0.00000     0

 38 41  0  0  1  0  0  0  0  0999 V2000
    3.8965   -2.5138    0.0000 F   0  0  0  0  0  0  0  0  0
    3.8965   -1.6888    0.0000 C   0  0  0  0  0  0  0  0  0
    3.1820   -1.2763    0.0000 C   0  0  0  0  0  0  0  0  0
    3.1820   -0.4513    0.0000 C   0  0  0  0  0  0  0  0  0
    3.8965   -0.0388    0.0000 C   0  0  0  0  0  0  0  0  0
    4.6109   -0.4513    0.0000 C   0  0  0  0  0  0  0  0  0
    4.6109   -1.2763    0.0000 C   0  0  0  0  0  0  0  0  0
    5.3254   -1.6888    0.0000 F   0  0  0  0  0  0  0  0  0
    2.4675   -0.0388    0.0000 C   0  0  0  0  0  0  0  0  0
    1.7530   -0.4513    0.0000 C   0  0  0  0  0  0  0  0  0
    1.0386   -0.0388    0.0000 C   0  0  0  0  0  0  0  0  0
    0.3241   -0.4513    0.0000 O   0  0  0  0  0  0  0  0  0
    1.0386    0.7862    0.0000 N   0  0  0  0  0  0  0  0  0
    0.3241    1.1987    0.0000 C   0  0  0  0  0  0  0  0  0
    1.7530    1.1987    0.0000 C   0  0  0  0  0  0  0  0  0
    1.7530    2.0237    0.0000 C   0  0  0  0  0  0  0  0  0
    2.4675    0.7862    0.0000 C   0  0  0  0  0  0  0  0  0
    3.1820    1.1987    0.0000 C   0  0  0  0  0  0  0  0  0
    3.1820    2.0237    0.0000 O   0  0  0  0  0  0  0  0  0
    3.8965    0.7862    0.0000 N   0  0  0  0  0  0  0  0  0
    4.6109    1.1987    0.0000 C   0  0  0  0  0  0  0  0  0
    5.3254    0.7862    0.0000 C   0  0  0  0  0  0  0  0  0
    6.0399    1.1987    0.0000 C   0  0  0  0  0  0  0  0  0
    6.7543    0.7862    0.0000 N   0  0  0  0  0  0  0  0  0
    7.4688    1.1987    0.0000 C   0  0  0  0  0  0  0  0  0
    8.1833    0.7862    0.0000 C   0  0  0  0  0  0  0  0  0
    8.1833   -0.0388    0.0000 C   0  0  0  0  0  0  0  0  0
    7.4688   -0.4513    0.0000 C   0  0  0  0  0  0  0  0  0
    6.7543   -0.0388    0.0000 C   0  0  0  0  0  0  0  0  0
    8.8978   -0.4513    0.0000 C   0  0  0  0  0  0  0  0  0
    9.6122   -0.0388    0.0000 C   0  0  0  0  0  0  0  0  0
   10.3267   -0.4513    0.0000 C   0  0  0  0  0  0  0  0  0
   10.3267   -1.2763    0.0000 C   0  0  0  0  0  0  0  0  0
   11.0412   -1.6888    0.0000 F   0  0  0  0  0  0  0  0  0
    9.6122   -1.6888    0.0000 C   0  0  0  0  0  0  0  0  0
    8.8978   -1.2763    0.0000 C   0  0  0  0  0  0  0  0  0
    8.1833   -1.6888    0.0000 C   0  0  0  0  0  0  0  0  0
    7.4688   -2.1013    0.0000 N   0  0  0  0  0  0  0  0  0
  1  2  1  0  0  0  0
  2  3  4  0  0  0  0
  2  7  4  0  0  0  0
  3  4  4  0  0  0  0
  4  5  4  0  0  0  0
  4  9  1  0  0  0  0
  5  6  4  0  0  0  0
  6  7  4  0  0  0  0
  7  8  1  0  0  0  0
  9 10  1  0  0  0  0
  9 17  1  0  0  0  0
 10 11  1  0  0  0  0
 11 12  2  0  0  0  0
 11 13  1  0  0  0  0
 13 14  1  0  0  0  0
 13 15  1  0  0  0  0
 15 16  1  0  0  0  0
 15 17  2  0  0  0  0
 17 18  1  0  0  0  0
 18 19  2  0  0  0  0
 18 20  1  0  0  0  0
 20 21  1  0  0  0  0
 21 22  1  0  0  0  0
 22 23  1  0  0  0  0
 23 24  1  0  0  0  0
 24 25  1  0  0  0  0
 24 29  1  0  0  0  0
 25 26  1  0  0  0  0
 26 27  1  0  0  0  0
 27 28  1  0  0  0  0
 27 30  1  0  0  0  0
 28 29  1  0  0  0  0
 30 31  4  0  0  0  0
 30 36  4  0  0  0  0
 31 32  4  0  0  0  0
 32 33  4  0  0  0  0
 33 34  1  0  0  0  0
 33 35  4  0  0  0  0
 35 36  4  0  0  0  0
 36 37  1  0  0  0  0
 37 38  3  0  0  0  0
M  END
>  <Name_Molregno>
63282

>  <HISTAMINE H1>
6.4

$$$$
66613
  Marvin  02231216192D 0   1.00000     0.00000     0

 14 15  0  0  1  0  0  0  0  0999 V2000
   -3.5937   -0.7341    0.0000 O   0  0  0  0  0  0  0  0  0
   -2.8091   -0.9890    0.0000 C   0  0  0  0  0  0  0  0  0
   -2.0946   -0.5765    0.0000 C   0  0  0  0  0  0  0  0  0
   -1.3801   -0.9890    0.0000 C   0  0  0  0  0  0  0  0  0
   -1.3801   -1.8140    0.0000 C   0  0  0  0  0  0  0  0  0
   -2.0946   -2.2265    0.0000 C   0  0  0  0  0  0  0  0  0
   -2.8091   -1.8140    0.0000 C   0  0  0  0  0  0  0  0  0
   -3.5937   -2.0690    0.0000 O   0  0  0  0  0  0  0  0  0
   -4.0786   -1.4015    0.0000 C   0  0  0  0  0  0  0  0  0
   -0.6657   -0.5765    0.0000 C   0  0  0  0  0  0  0  0  0
   -0.6657    0.2485    0.0000 C   0  0  0  0  0  0  0  0  0
    0.0488    0.6610    0.0000 N   0  0  0  0  0  0  0  0  0
    0.0488    1.4860    0.0000 C   0  0  0  0  0  0  0  0  0
   -1.3801    0.6610    0.0000 C   0  0  0  0  0  0  0  0  0
  1  2  1  0  0  0  0
  1  9  1  0  0  0  0
  2  3  4  0  0  0  0
  2  7  4  0  0  0  0
  3  4  4  0  0  0  0
  4  5  4  0  0  0  0
  4 10  1  0  0  0  0
  5  6  4  0  0  0  0
  6  7  4  0  0  0  0
  7  8  1  0  0  0  0
  8  9  1  0  0  0  0
 10 11  1  0  0  0  0
 11 12  1  0  0  0  0
 11 14  1  0  0  0  0
 12 13  1  0  0  0  0
M  END
>  <Name_Molregno>
66613

>  <5-HT1A>
5

>  <5-HT1B>
5

>  <5-HT1D>
5

>  <5-HT1E>
5

>  <5-HT2A>
5

>  <5-HT3>
5

>  <5-HT5>
5

>  <5-HT6>
5

>  <5-HT7>
5

>  <Alpha-1A>
5

>  <Alpha-1B>
5

>  <Alpha-2A>
5.6

>  <Alpha-2B>
5.75

>  <Alpha-2C>
5.95

>  <Beta-1>
5

>  <Beta-2>
5

>  <DOPAMINE D1>
5

>  <DOPAMINE D2>
5

>  <DOPAMINE D3>
5

>  <DOPAMINE D4>
5

>  <DOPAMINE D5>
5

>  <Dopamine transporter>
5

>  <HISTAMINE H1>
5.67

>  <HISTAMINE H2>
5

>  <Muscarinic acetylcholine receptor M1>
5

>  <Muscarinic acetylcholine receptor M2>
5

>  <Muscarinic acetylcholine receptor M3>
5.73

>  <Muscarinic acetylcholine receptor M4>
5.08

>  <Muscarinic acetylcholine receptor M5>
5.2

>  <Norepinephrine transporter>
5

>  <Serotonin transporter>
7.24

$$$$
67202
  Marvin  02231216192D 0   1.00000     0.00000     0

 16 18  0  0  0  0  0  0  0  0999 V2000
    0.7920   -0.6190    0.0000 N   0  0  0  0  0  0  0  0  0
    1.5065   -0.2065    0.0000 C   0  0  0  0  0  0  0  0  0
    1.5065    0.6185    0.0000 C   0  0  0  0  0  0  0  0  0
    2.2209    1.0310    0.0000 C   0  0  0  0  0  0  0  0  0
    2.2209    1.8560    0.0000 C   0  0  0  0  0  0  0  0  0
    1.5065    2.2685    0.0000 C   0  0  0  0  0  0  0  0  0
    0.7920    1.8560    0.0000 C   0  0  0  0  0  0  0  0  0
    0.7920    1.0310    0.0000 C   0  0  0  0  0  0  0  0  0
    0.0775    0.6185    0.0000 C   0  0  0  0  0  0  0  0  0
   -0.6370    1.0310    0.0000 C   0  0  0  0  0  0  0  0  0
   -0.6370    1.8560    0.0000 C   0  0  0  0  0  0  0  0  0
    0.0775    2.2685    0.0000 C   0  0  0  0  0  0  0  0  0
    2.9354    2.2685    0.0000 C   0  0  0  0  0  0  0  0  0
    3.6499    1.8560    0.0000 C   0  0  0  0  0  0  0  0  0
    3.6499    1.0310    0.0000 C   0  0  0  0  0  0  0  0  0
    2.9354    0.6185    0.0000 C   0  0  0  0  0  0  0  0  0
  1  2  1  0  0  0  0
  2  3  1  0  0  0  0
  3  4  1  0  0  0  0
  3  8  1  0  0  0  0
  4  5  4  0  0  0  0
  4 16  4  0  0  0  0
  5  6  1  0  0  0  0
  5 13  4  0  0  0  0
  6  7  1  0  0  0  0
  7  8  4  0  0  0  0
  7 12  4  0  0  0  0
  8  9  4  0  0  0  0
  9 10  4  0  0  0  0
 10 11  4  0  0  0  0
 11 12  4  0  0  0  0
 13 14  4  0  0  0  0
 14 15  4  0  0  0  0
 15 16  4  0  0  0  0
M  END
>  <Name_Molregno>
67202

>  <5-HT2A>
7.7

>  <HISTAMINE H1>
6.71

$$$$
88815
  Marvin  02231216192D 0   1.00000     0.00000     0

 14 15  0  0  1  0  0  0  0  0999 V2000
   -3.2072   -0.1654    0.0000 S   0  0  0  0  0  0  0  0  0
   -2.4226   -0.4204    0.0000 C   0  0  0  0  0  0  0  0  0
   -1.7081   -0.0079    0.0000 C   0  0  0  0  0  0  0  0  0
   -0.9937   -0.4204    0.0000 C   0  0  0  0  0  0  0  0  0
   -0.2792   -0.0079    0.0000 N   0  0  0  0  0  0  0  0  0
    0.4353   -0.4204    0.0000 C   0  0  0  0  0  0  0  0  0
    1.1498   -0.0079    0.0000 C   0  0  0  0  0  0  0  0  0
    1.8642   -0.4204    0.0000 C   0  0  0  0  0  0  0  0  0
   -0.9937   -1.2454    0.0000 C   0  0  0  0  0  0  0  0  0
   -1.7081   -1.6579    0.0000 C   0  0  0  0  0  0  0  0  0
   -2.4226   -1.2454    0.0000 C   0  0  0  0  0  0  0  0  0
   -3.2072   -1.5003    0.0000 N   0  0  0  0  0  0  0  0  0
   -3.6921   -0.8329    0.0000 C   0  0  0  0  0  0  0  0  0
   -4.5171   -0.8329    0.0000 N   0  0  0  0  0  0  0  0  0
  1  2  4  0  0  0  0
  1 13  4  0  0  0  0
  2  3  1  0  0  0  0
  2 11  4  0  0  0  0
  3  4  1  0  0  0  0
  4  5  1  0  0  0  0
  4  9  1  0  0  0  0
  5  6  1  0  0  0  0
  6  7  1  0  0  0  0
  7  8  1  0  0  0  0
  9 10  1  0  0  0  0
 10 11  1  0  0  0  0
 11 12  4  0  0  0  0
 12 13  4  0  0  0  0
 13 14  1  0  0  0  0
M  END
>  <Name_Molregno>
88815

>  <5-HT1A>
5.67

>  <5-HT1B>
5.26

>  <5-HT1D>
5.39

>  <5-HT1E>
5

>  <5-HT2A>
5

>  <5-HT2C>
5

>  <5-HT3>
5

>  <5-HT5>
5

>  <5-HT6>
5

>  <5-HT7>
5.93

>  <Alpha-1A>
5

>  <Alpha-1B>
5

>  <Alpha-2A>
6.44

>  <Alpha-2B>
6.68

>  <Alpha-2C>
6.14

>  <Beta-1>
5

>  <Beta-2>
5

>  <DOPAMINE D1>
5

>  <DOPAMINE D2>
6.55

>  <DOPAMINE D3>
8.51

>  <DOPAMINE D4>
7.4

>  <DOPAMINE D5>
5

>  <Dopamine transporter>
5

>  <HISTAMINE H1>
5

>  <HISTAMINE H2>
5.57

>  <HISTAMINE H4>
5

>  <Muscarinic acetylcholine receptor M1>
5

>  <Muscarinic acetylcholine receptor M2>
5

>  <Muscarinic acetylcholine receptor M3>
5

>  <Muscarinic acetylcholine receptor M4>
5

>  <Muscarinic acetylcholine receptor M5>
5

>  <Norepinephrine transporter>
5

>  <Serotonin transporter>
5

$$$$
91699
  Marvin  02231216192D 0   1.00000     0.00000     0

 27 29  0  0  1  0  0  0  0  0999 V2000
    0.1329    2.5316    0.0000 Cl  0  0  0  0  0  0  0  0  0
    0.8474    2.1191    0.0000 C   0  0  0  0  0  0  0  0  0
    1.5618    2.5316    0.0000 C   0  0  0  0  0  0  0  0  0
    2.2763    2.1191    0.0000 C   0  0  0  0  0  0  0  0  0
    2.2763    1.2941    0.0000 C   0  0  0  0  0  0  0  0  0
    1.5618    0.8816    0.0000 C   0  0  0  0  0  0  0  0  0
    0.8474    1.2941    0.0000 C   0  0  0  0  0  0  0  0  0
    2.9908    0.8816    0.0000 C   0  0  0  0  0  0  0  0  0
    3.7052    1.2941    0.0000 C   0  0  0  0  0  0  0  0  0
    4.4197    0.8816    0.0000 C   0  0  0  0  0  0  0  0  0
    5.1342    1.2941    0.0000 N   0  0  0  0  0  0  0  0  0
    5.8487    0.8816    0.0000 C   0  0  0  0  0  0  0  0  0
    6.5631    1.2941    0.0000 C   0  0  0  0  0  0  0  0  0
    7.2776    0.8816    0.0000 C   0  0  0  0  0  0  0  0  0
    7.9921    1.2941    0.0000 C   0  0  0  0  0  0  0  0  0
    8.7065    0.8816    0.0000 C   0  0  0  0  0  0  0  0  0
    9.4602    1.2171    0.0000 N   0  0  0  0  0  0  0  0  0
   10.0123    0.6040    0.0000 C   0  0  0  0  0  0  0  0  0
    9.5998   -0.1104    0.0000 N   0  0  0  0  0  0  0  0  0
    8.7928    0.0611    0.0000 C   0  0  0  0  0  0  0  0  0
    5.1342    2.1191    0.0000 C   0  0  0  0  0  0  0  0  0
    2.9908    0.0566    0.0000 C   0  0  0  0  0  0  0  0  0
    3.7052   -0.3559    0.0000 N   0  0  0  0  0  0  0  0  0
    3.7052   -1.1809    0.0000 C   0  0  0  0  0  0  0  0  0
    2.9908   -1.5934    0.0000 C   0  0  0  0  0  0  0  0  0
    2.2763   -1.1809    0.0000 C   0  0  0  0  0  0  0  0  0
    2.2763   -0.3559    0.0000 C   0  0  0  0  0  0  0  0  0
  1  2  1  0  0  0  0
  2  3  4  0  0  0  0
  2  7  4  0  0  0  0
  3  4  4  0  0  0  0
  4  5  4  0  0  0  0
  5  6  4  0  0  0  0
  5  8  1  0  0  0  0
  6  7  4  0  0  0  0
  8  9  1  0  0  0  0
  8 22  1  0  0  0  0
  9 10  1  0  0  0  0
 10 11  1  0  0  0  0
 11 12  1  0  0  0  0
 11 21  1  0  0  0  0
 12 13  1  0  0  0  0
 13 14  1  0  0  0  0
 14 15  1  0  0  0  0
 15 16  1  0  0  0  0
 16 17  4  0  0  0  0
 16 20  4  0  0  0  0
 17 18  4  0  0  0  0
 18 19  4  0  0  0  0
 19 20  4  0  0  0  0
 22 23  4  0  0  0  0
 22 27  4  0  0  0  0
 23 24  4  0  0  0  0
 24 25  4  0  0  0  0
 25 26  4  0  0  0  0
 26 27  4  0  0  0  0
M  STY  1   1 DAT
M  SAL   1  1  19
M  SDT   1 MRV_IMPLICIT_H                                        
M  SDD   1     0.0000    0.0000    DR    ALL  0       0  
M  SED   1 IMPL_H1
M  END
>  <Name_Molregno>
91699

>  <HISTAMINE H1>
8.15

>  <HISTAMINE H3>
7.82

$$$$
116671
  Marvin  02231216192D 0   1.00000     0.00000     0

 35 38  0  0  1  0  0  0  0  0999 V2000
    0.9192   -0.2667    0.0000 Cl  0  0  0  0  0  0  0  0  0
    1.6337    0.1458    0.0000 C   0  0  0  0  0  0  0  0  0
    1.6337    0.9708    0.0000 C   0  0  0  0  0  0  0  0  0
    2.3482    1.3833    0.0000 C   0  0  0  0  0  0  0  0  0
    3.0626    0.9708    0.0000 C   0  0  0  0  0  0  0  0  0
    3.0626    0.1458    0.0000 C   0  0  0  0  0  0  0  0  0
    2.3482   -0.2667    0.0000 C   0  0  0  0  0  0  0  0  0
    3.7771    1.3833    0.0000 C   0  0  0  0  0  0  0  0  0
    4.4916    0.9708    0.0000 N   0  0  0  0  0  0  0  0  0
    5.2060    1.3833    0.0000 C   0  0  0  0  0  0  0  0  0
    5.9205    0.9708    0.0000 C   0  0  0  0  0  0  0  0  0
    5.9205    0.1458    0.0000 N   0  0  0  0  0  0  0  0  0
    5.2060   -0.2667    0.0000 C   0  0  0  0  0  0  0  0  0
    4.4916    0.1458    0.0000 C   0  0  0  0  0  0  0  0  0
    6.6350   -0.2667    0.0000 C   0  0  0  0  0  0  0  0  0
    6.6350   -1.0917    0.0000 C   0  0  0  0  0  0  0  0  0
    7.3024   -1.5766    0.0000 O   0  0  0  0  0  0  0  0  0
    7.0475   -2.3612    0.0000 C   0  0  0  0  0  0  0  0  0
    6.2225   -2.3612    0.0000 C   0  0  0  0  0  0  0  0  0
    5.9675   -1.5766    0.0000 C   0  0  0  0  0  0  0  0  0
    7.5324   -3.0287    0.0000 C   0  0  0  0  0  0  0  0  0
    8.0173   -3.6961    0.0000 C   0  0  0  0  0  0  0  0  0
    8.5023   -4.3635    0.0000 C   0  0  0  0  0  0  0  0  0
    8.1667   -5.1172    0.0000 C   0  0  0  0  0  0  0  0  0
    8.6516   -5.7846    0.0000 N   0  0  0  0  0  0  0  0  0
    9.4721   -5.6984    0.0000 O   0  0  0  0  0  0  0  0  0
    8.3161   -6.5383    0.0000 C   0  0  0  0  0  0  0  0  0
    8.8010   -7.2058    0.0000 O   0  0  0  0  0  0  0  0  0
    7.4956   -6.6246    0.0000 N   0  0  0  0  0  0  0  0  0
    3.7771    2.2083    0.0000 C   0  0  0  0  0  0  0  0  0
    3.0626    2.6208    0.0000 C   0  0  0  0  0  0  0  0  0
    3.0626    3.4458    0.0000 C   0  0  0  0  0  0  0  0  0
    3.7771    3.8583    0.0000 C   0  0  0  0  0  0  0  0  0
    4.4916    3.4458    0.0000 C   0  0  0  0  0  0  0  0  0
    4.4916    2.6208    0.0000 C   0  0  0  0  0  0  0  0  0
  1  2  1  0  0  0  0
  2  3  4  0  0  0  0
  2  7  4  0  0  0  0
  3  4  4  0  0  0  0
  4  5  4  0  0  0  0
  5  6  4  0  0  0  0
  5  8  1  0  0  0  0
  6  7  4  0  0  0  0
  8  9  1  0  0  0  0
  8 30  1  0  0  0  0
  9 10  1  0  0  0  0
  9 14  1  0  0  0  0
 10 11  1  0  0  0  0
 11 12  1  0  0  0  0
 12 13  1  0  0  0  0
 12 15  1  0  0  0  0
 13 14  1  0  0  0  0
 15 16  1  0  0  0  0
 16 17  4  0  0  0  0
 16 20  4  0  0  0  0
 17 18  4  0  0  0  0
 18 19  4  0  0  0  0
 18 21  1  0  0  0  0
 19 20  4  0  0  0  0
 21 22  3  0  0  0  0
 22 23  1  0  0  0  0
 23 24  1  0  0  0  0
 24 25  1  0  0  0  0
 25 26  1  0  0  0  0
 25 27  1  0  0  0  0
 27 28  2  0  0  0  0
 27 29  1  0  0  0  0
 30 31  4  0  0  0  0
 30 35  4  0  0  0  0
 31 32  4  0  0  0  0
 32 33  4  0  0  0  0
 33 34  4  0  0  0  0
 34 35  4  0  0  0  0
M  END
>  <Name_Molregno>
116671

>  <HISTAMINE H1>
6.82

$$$$
118032
  Marvin  02231216192D 0   1.00000     0.00000     0

 17 19  0  0  0  0  0  0  0  0999 V2000
    1.9760   -0.5672    0.0000 N   0  0  0  0  0  0  0  0  0
    1.2616   -0.1547    0.0000 C   0  0  0  0  0  0  0  0  0
    1.2616    0.6703    0.0000 C   0  0  0  0  0  0  0  0  0
    1.9760    1.0828    0.0000 C   0  0  0  0  0  0  0  0  0
    1.9760    1.9078    0.0000 C   0  0  0  0  0  0  0  0  0
    1.2616    2.3203    0.0000 C   0  0  0  0  0  0  0  0  0
    0.5471    1.9078    0.0000 C   0  0  0  0  0  0  0  0  0
    0.5471    1.0828    0.0000 C   0  0  0  0  0  0  0  0  0
   -0.1674    0.6703    0.0000 C   0  0  0  0  0  0  0  0  0
   -0.8818    1.0828    0.0000 C   0  0  0  0  0  0  0  0  0
   -0.8818    1.9078    0.0000 C   0  0  0  0  0  0  0  0  0
   -0.1674    2.3203    0.0000 C   0  0  0  0  0  0  0  0  0
    2.6905    2.3203    0.0000 C   0  0  0  0  0  0  0  0  0
    3.4050    1.9078    0.0000 C   0  0  0  0  0  0  0  0  0
    3.4050    1.0828    0.0000 C   0  0  0  0  0  0  0  0  0
    2.6905    0.6703    0.0000 C   0  0  0  0  0  0  0  0  0
    1.9760   -1.3922    0.0000 C   0  0  0  0  0  0  0  0  0
  1  2  1  0  0  0  0
  1 17  1  0  0  0  0
  2  3  1  0  0  0  0
  3  4  1  0  0  0  0
  3  8  1  0  0  0  0
  4  5  4  0  0  0  0
  4 16  4  0  0  0  0
  5  6  1  0  0  0  0
  5 13  4  0  0  0  0
  6  7  1  0  0  0  0
  7  8  4  0  0  0  0
  7 12  4  0  0  0  0
  8  9  4  0  0  0  0
  9 10  4  0  0  0  0
 10 11  4  0  0  0  0
 11 12  4  0  0  0  0
 13 14  4  0  0  0  0
 14 15  4  0  0  0  0
 15 16  4  0  0  0  0
M  END
>  <Name_Molregno>
118032

>  <5-HT2A>
7.28

>  <HISTAMINE H1>
6.72

$$$$
120674
  Marvin  02231216192D 0   1.00000     0.00000     0

 27 29  0  0  1  0  0  0  0  0999 V2000
    4.4208    6.3587    0.0000 F   0  0  0  0  0  0  0  0  0
    4.4208    5.5337    0.0000 C   0  0  0  0  0  0  0  0  0
    5.1353    5.1212    0.0000 C   0  0  0  0  0  0  0  0  0
    5.1353    4.2962    0.0000 C   0  0  0  0  0  0  0  0  0
    4.4208    3.8837    0.0000 C   0  0  0  0  0  0  0  0  0
    3.7063    4.2962    0.0000 C   0  0  0  0  0  0  0  0  0
    3.7063    5.1212    0.0000 C   0  0  0  0  0  0  0  0  0
    4.4208    3.0587    0.0000 C   0  0  0  0  0  0  0  0  0
    5.1353    2.6462    0.0000 C   0  0  0  0  0  0  0  0  0
    5.1353    1.8212    0.0000 N   0  0  0  0  0  0  0  0  0
    5.8497    1.4087    0.0000 C   0  0  0  0  0  0  0  0  0
    5.8497    0.5837    0.0000 C   0  0  0  0  0  0  0  0  0
    5.1353    0.1712    0.0000 C   0  0  0  0  0  0  0  0  0
    4.4208    0.5837    0.0000 C   0  0  0  0  0  0  0  0  0
    4.4208    1.4087    0.0000 C   0  0  0  0  0  0  0  0  0
    5.1353   -0.6538    0.0000 C   0  0  0  0  0  0  0  0  0
    4.4208   -1.0663    0.0000 O   0  0  0  0  0  0  0  0  0
    5.8497   -1.0663    0.0000 C   0  0  0  0  0  0  0  0  0
    6.5642   -0.6538    0.0000 C   0  0  0  0  0  0  0  0  0
    7.2787   -1.0663    0.0000 C   0  0  0  0  0  0  0  0  0
    7.2787   -1.8913    0.0000 C   0  0  0  0  0  0  0  0  0
    6.5642   -2.3038    0.0000 C   0  0  0  0  0  0  0  0  0
    6.5642   -3.1288    0.0000 O   0  0  0  0  0  0  0  0  0
    7.2787   -3.5413    0.0000 C   0  0  0  0  0  0  0  0  0
    5.8497   -1.8913    0.0000 C   0  0  0  0  0  0  0  0  0
    5.1353   -2.3038    0.0000 O   0  0  0  0  0  0  0  0  0
    5.1353   -3.1288    0.0000 C   0  0  0  0  0  0  0  0  0
  1  2  1  0  0  0  0
  2  3  4  0  0  0  0
  2  7  4  0  0  0  0
  3  4  4  0  0  0  0
  4  5  4  0  0  0  0
  5  6  4  0  0  0  0
  5  8  1  0  0  0  0
  6  7  4  0  0  0  0
  8  9  1  0  0  0  0
  9 10  1  0  0  0  0
 10 11  1  0  0  0  0
 10 15  1  0  0  0  0
 11 12  1  0  0  0  0
 12 13  1  0  0  0  0
 13 14  1  0  0  0  0
 13 16  1  0  0  0  0
 14 15  1  0  0  0  0
 16 17  1  0  0  0  0
 16 18  1  0  0  0  0
 18 19  4  0  0  0  0
 18 25  4  0  0  0  0
 19 20  4  0  0  0  0
 20 21  4  0  0  0  0
 21 22  4  0  0  0  0
 22 23  1  0  0  0  0
 22 25  4  0  0  0  0
 23 24  1  0  0  0  0
 25 26  1  0  0  0  0
 26 27  1  0  0  0  0
M  END
>  <Name_Molregno>
120674

>  <5-HT1A>
5

>  <5-HT1E>
5

>  <5-HT2A>
9.16

>  <5-HT2C>
7.37

>  <5-HT3>
5

>  <5-HT5>
5

>  <5-HT6>
5.46

>  <Alpha-1A>
6.41

>  <Alpha-1B>
6.37

>  <Alpha-2A>
5.72

>  <Alpha-2B>
6.57

>  <Alpha-2C>
5.84

>  <Beta-1>
5

>  <Beta-2>
5

>  <DOPAMINE D1>
5.67

>  <DOPAMINE D2>
5.23

>  <DOPAMINE D4>
5.42

>  <DOPAMINE D5>
5

>  <Dopamine transporter>
5

>  <HISTAMINE H1>
7.18

>  <HISTAMINE H4>
5

>  <Muscarinic acetylcholine receptor M1>
5

>  <Muscarinic acetylcholine receptor M2>
5

>  <Muscarinic acetylcholine receptor M3>
5

>  <Muscarinic acetylcholine receptor M4>
5

>  <Muscarinic acetylcholine receptor M5>
5

>  <Norepinephrine transporter>
5

>  <Serotonin transporter>
5

$$$$
148955
  Marvin  02231216192D 0   1.00000     0.00000     0

 16 18  0  0  1  0  0  0  0  0999 V2000
    6.0007   -1.6378    0.0000 F   0  0  0  0  0  0  0  0  0
    5.2862   -1.2253    0.0000 C   0  0  0  0  0  0  0  0  0
    4.5717   -1.6378    0.0000 C   0  0  0  0  0  0  0  0  0
    3.8572   -1.2253    0.0000 C   0  0  0  0  0  0  0  0  0
    3.0726   -1.4803    0.0000 C   0  0  0  0  0  0  0  0  0
    2.5877   -0.8128    0.0000 C   0  0  0  0  0  0  0  0  0
    3.0726   -0.1454    0.0000 C   0  0  0  0  0  0  0  0  0
    3.8572   -0.4003    0.0000 C   0  0  0  0  0  0  0  0  0
    4.5717    0.0122    0.0000 C   0  0  0  0  0  0  0  0  0
    5.2862   -0.4003    0.0000 C   0  0  0  0  0  0  0  0  0
    1.7627   -0.8128    0.0000 C   0  0  0  0  0  0  0  0  0
    1.3502   -0.0984    0.0000 C   0  0  0  0  0  0  0  0  0
    0.5297   -0.0121    0.0000 N   0  0  0  0  0  0  0  0  0
    0.3582    0.7948    0.0000 C   0  0  0  0  0  0  0  0  0
    1.0727    1.2073    0.0000 N   0  0  0  0  0  0  0  0  0
    1.6858    0.6553    0.0000 C   0  0  0  0  0  0  0  0  0
  1  2  1  0  0  0  0
  2  3  4  0  0  0  0
  2 10  4  0  0  0  0
  3  4  4  0  0  0  0
  4  5  1  0  0  0  0
  4  8  4  0  0  0  0
  5  6  1  0  0  0  0
  6  7  1  0  0  0  0
  6 11  1  0  0  0  0
  7  8  1  0  0  0  0
  8  9  4  0  0  0  0
  9 10  4  0  0  0  0
 11 12  1  0  0  0  0
 12 13  1  0  0  0  0
 12 16  1  0  0  0  0
 13 14  1  0  0  0  0
 14 15  2  0  0  0  0
 15 16  1  0  0  0  0
M  END
>  <Name_Molregno>
148955

>  <5-HT1A>
6.11

>  <5-HT2A>
6

>  <5-HT2C>
6

>  <5-HT7>
6

>  <Alpha-2A>
8.23

>  <Alpha-2B>
7.64

>  <Alpha-2C>
7.72

>  <HISTAMINE H1>
6

>  <Serotonin transporter>
7.11

$$$$
162216
  Marvin  02231216192D 0   1.00000     0.00000     0

 35 39  0  0  1  0  0  0  0  0999 V2000
   12.4150   -0.6719    0.0000 F   0  0  0  0  0  0  0  0  0
   11.7849   -0.1393    0.0000 C   0  0  0  0  0  0  0  0  0
   11.0087   -0.4186    0.0000 C   0  0  0  0  0  0  0  0  0
   10.3786    0.1140    0.0000 C   0  0  0  0  0  0  0  0  0
   10.5249    0.9260    0.0000 C   0  0  0  0  0  0  0  0  0
   11.3011    1.2053    0.0000 C   0  0  0  0  0  0  0  0  0
   11.9312    0.6727    0.0000 C   0  0  0  0  0  0  0  0  0
    9.8948    1.4586    0.0000 C   0  0  0  0  0  0  0  0  0
    9.1185    1.1793    0.0000 C   0  0  0  0  0  0  0  0  0
    8.9723    0.3673    0.0000 C   0  0  0  0  0  0  0  0  0
    8.1960    0.0880    0.0000 N   0  0  0  0  0  0  0  0  0
    8.0498   -0.7239    0.0000 C   0  0  0  0  0  0  0  0  0
    7.2735   -1.0032    0.0000 C   0  0  0  0  0  0  0  0  0
    6.6435   -0.4706    0.0000 N   0  0  0  0  0  0  0  0  0
    6.7897    0.3413    0.0000 C   0  0  0  0  0  0  0  0  0
    7.5660    0.6206    0.0000 C   0  0  0  0  0  0  0  0  0
    5.8672   -0.7499    0.0000 C   0  0  0  0  0  0  0  0  0
    5.2372   -0.2173    0.0000 C   0  0  0  0  0  0  0  0  0
    5.2977    0.6055    0.0000 O   0  0  0  0  0  0  0  0  0
    4.5339    0.9173    0.0000 N   0  0  0  0  0  0  0  0  0
    4.0013    0.2873    0.0000 C   0  0  0  0  0  0  0  0  0
    4.4359   -0.4140    0.0000 C   0  0  0  0  0  0  0  0  0
    4.0460   -1.1410    0.0000 C   0  0  0  0  0  0  0  0  0
    3.2214   -1.1667    0.0000 O   0  0  0  0  0  0  0  0  0
    2.7867   -0.4655    0.0000 C   0  0  0  0  0  0  0  0  0
    1.9621   -0.4912    0.0000 C   0  0  0  0  0  0  0  0  0
    1.5275    0.2100    0.0000 C   0  0  0  0  0  0  0  0  0
    0.7029    0.1842    0.0000 O   0  0  0  0  0  0  0  0  0
    0.3130   -0.5428    0.0000 C   0  0  0  0  0  0  0  0  0
    1.9175    0.9370    0.0000 C   0  0  0  0  0  0  0  0  0
    1.4829    1.6382    0.0000 O   0  0  0  0  0  0  0  0  0
    1.8729    2.3652    0.0000 C   0  0  0  0  0  0  0  0  0
    2.7421    0.9628    0.0000 C   0  0  0  0  0  0  0  0  0
    3.1767    0.2615    0.0000 C   0  0  0  0  0  0  0  0  0
    8.4885    1.7119    0.0000 C   0  0  0  0  0  0  0  0  0
  1  2  1  0  0  0  0
  2  3  4  0  0  0  0
  2  7  4  0  0  0  0
  3  4  4  0  0  0  0
  4  5  4  0  0  0  0
  5  6  4  0  0  0  0
  5  8  1  0  0  0  0
  6  7  4  0  0  0  0
  8  9  2  0  0  0  0
  9 10  1  0  0  0  0
  9 35  1  0  0  0  0
 10 11  1  0  0  0  0
 11 12  1  0  0  0  0
 11 16  1  0  0  0  0
 12 13  1  0  0  0  0
 13 14  1  0  0  0  0
 14 15  1  0  0  0  0
 14 17  1  0  0  0  0
 15 16  1  0  0  0  0
 17 18  1  0  0  0  0
 18 19  1  0  0  0  0
 18 22  1  0  0  0  0
 19 20  1  0  0  0  0
 20 21  2  0  0  0  0
 21 22  1  0  0  0  0
 21 34  1  0  0  0  0
 22 23  1  0  0  0  0
 23 24  1  0  0  0  0
 24 25  1  0  0  0  0
 25 26  4  0  0  0  0
 25 34  4  0  0  0  0
 26 27  4  0  0  0  0
 27 28  1  0  0  0  0
 27 30  4  0  0  0  0
 28 29  1  0  0  0  0
 30 31  1  0  0  0  0
 30 33  4  0  0  0  0
 31 32  1  0  0  0  0
 33 34  4  0  0  0  0
M  END
>  <Name_Molregno>
162216

>  <Alpha-1A>
6.9

>  <Alpha-2A>
8.18

>  <Alpha-2B>
8.19

>  <Alpha-2C>
8.91

>  <DOPAMINE D3>
6.43

>  <HISTAMINE H1>
7.13

>  <Serotonin transporter>
8.71

$$$$
171513
  Marvin  02231216192D 0   1.00000     0.00000     0

 24 26  0  0  1  0  0  0  0  0999 V2000
   -0.3601   -1.4374    0.0000 O   0  0  0  0  0  0  0  0  0
    0.3544   -1.0249    0.0000 C   0  0  0  0  0  0  0  0  0
    1.0689   -1.4374    0.0000 C   0  0  0  0  0  0  0  0  0
    1.7833   -1.0249    0.0000 C   0  0  0  0  0  0  0  0  0
    2.4978   -1.4374    0.0000 N   0  0  0  0  0  0  0  0  0
    3.2515   -1.1019    0.0000 C   0  0  0  0  0  0  0  0  0
    3.8035   -1.7149    0.0000 C   0  0  0  0  0  0  0  0  0
    4.6240   -1.6287    0.0000 O   0  0  0  0  0  0  0  0  0
    3.3910   -2.4294    0.0000 C   0  0  0  0  0  0  0  0  0
    2.5840   -2.2579    0.0000 C   0  0  0  0  0  0  0  0  0
   -1.0746   -1.0249    0.0000 C   0  0  0  0  0  0  0  0  0
   -1.7890   -1.4374    0.0000 C   0  0  0  0  0  0  0  0  0
   -2.5035   -1.0249    0.0000 C   0  0  0  0  0  0  0  0  0
   -2.5035   -0.1999    0.0000 C   0  0  0  0  0  0  0  0  0
   -1.7890    0.2126    0.0000 C   0  0  0  0  0  0  0  0  0
   -1.0746   -0.1999    0.0000 C   0  0  0  0  0  0  0  0  0
   -3.2180    0.2126    0.0000 C   0  0  0  0  0  0  0  0  0
   -3.9324   -0.1999    0.0000 C   0  0  0  0  0  0  0  0  0
   -4.6469    0.2126    0.0000 C   0  0  0  0  0  0  0  0  0
   -4.6469    1.0376    0.0000 C   0  0  0  0  0  0  0  0  0
   -3.9324    1.4501    0.0000 C   0  0  0  0  0  0  0  0  0
   -3.2180    1.0376    0.0000 C   0  0  0  0  0  0  0  0  0
   -5.3614    1.4501    0.0000 C   0  0  0  0  0  0  0  0  0
   -6.0759    1.8626    0.0000 N   0  0  0  0  0  0  0  0  0
  1  2  1  0  0  0  0
  1 11  1  0  0  0  0
  2  3  1  0  0  0  0
  3  4  1  0  0  0  0
  4  5  1  0  0  0  0
  5  6  1  0  0  0  0
  5 10  1  0  0  0  0
  6  7  1  0  0  0  0
  7  8  1  0  0  0  0
  7  9  1  0  0  0  0
  9 10  1  0  0  0  0
 11 12  4  0  0  0  0
 11 16  4  0  0  0  0
 12 13  4  0  0  0  0
 13 14  4  0  0  0  0
 14 15  4  0  0  0  0
 14 17  1  0  0  0  0
 15 16  4  0  0  0  0
 17 18  4  0  0  0  0
 17 22  4  0  0  0  0
 18 19  4  0  0  0  0
 19 20  4  0  0  0  0
 20 21  4  0  0  0  0
 20 23  1  0  0  0  0
 21 22  4  0  0  0  0
 23 24  3  0  0  0  0
M  END
>  <Name_Molregno>
171513

>  <HISTAMINE H1>
5.3

>  <HISTAMINE H2>
4.74

>  <HISTAMINE H3>
7.89

$$$$
171542
  Marvin  02231216192D 0   1.00000     0.00000     0

 25 27  0  0  0  0  0  0  0  0999 V2000
   -0.3383   -1.3274    0.0000 O   0  0  0  0  0  0  0  0  0
    0.3762   -0.9149    0.0000 C   0  0  0  0  0  0  0  0  0
    1.0907   -1.3274    0.0000 C   0  0  0  0  0  0  0  0  0
    1.8051   -0.9149    0.0000 C   0  0  0  0  0  0  0  0  0
    2.5196   -1.3274    0.0000 N   0  0  0  0  0  0  0  0  0
    3.2341   -0.9149    0.0000 C   0  0  0  0  0  0  0  0  0
    3.9485   -1.3274    0.0000 C   0  0  0  0  0  0  0  0  0
    3.9485   -2.1524    0.0000 C   0  0  0  0  0  0  0  0  0
    4.6630   -2.5649    0.0000 N   0  0  0  0  0  0  0  0  0
    3.2341   -2.5649    0.0000 C   0  0  0  0  0  0  0  0  0
    2.5196   -2.1524    0.0000 C   0  0  0  0  0  0  0  0  0
   -1.0528   -0.9149    0.0000 C   0  0  0  0  0  0  0  0  0
   -1.7672   -1.3274    0.0000 C   0  0  0  0  0  0  0  0  0
   -2.4817   -0.9149    0.0000 C   0  0  0  0  0  0  0  0  0
   -2.4817   -0.0899    0.0000 C   0  0  0  0  0  0  0  0  0
   -1.7672    0.3226    0.0000 C   0  0  0  0  0  0  0  0  0
   -1.0528   -0.0899    0.0000 C   0  0  0  0  0  0  0  0  0
   -3.1962    0.3226    0.0000 C   0  0  0  0  0  0  0  0  0
   -3.9106   -0.0899    0.0000 C   0  0  0  0  0  0  0  0  0
   -4.6251    0.3226    0.0000 C   0  0  0  0  0  0  0  0  0
   -4.6251    1.1476    0.0000 C   0  0  0  0  0  0  0  0  0
   -3.9106    1.5601    0.0000 C   0  0  0  0  0  0  0  0  0
   -3.1962    1.1476    0.0000 C   0  0  0  0  0  0  0  0  0
   -5.3396    1.5601    0.0000 C   0  0  0  0  0  0  0  0  0
   -6.0540    1.9726    0.0000 N   0  0  0  0  0  0  0  0  0
  1  2  1  0  0  0  0
  1 12  1  0  0  0  0
  2  3  1  0  0  0  0
  3  4  1  0  0  0  0
  4  5  1  0  0  0  0
  5  6  1  0  0  0  0
  5 11  1  0  0  0  0
  6  7  1  0  0  0  0
  7  8  1  0  0  0  0
  8  9  1  0  0  0  0
  8 10  1  0  0  0  0
 10 11  1  0  0  0  0
 12 13  4  0  0  0  0
 12 17  4  0  0  0  0
 13 14  4  0  0  0  0
 14 15  4  0  0  0  0
 15 16  4  0  0  0  0
 15 18  1  0  0  0  0
 16 17  4  0  0  0  0
 18 19  4  0  0  0  0
 18 23  4  0  0  0  0
 19 20  4  0  0  0  0
 20 21  4  0  0  0  0
 21 22  4  0  0  0  0
 21 24  1  0  0  0  0
 22 23  4  0  0  0  0
 24 25  3  0  0  0  0
M  END
>  <Name_Molregno>
171542

>  <HISTAMINE H1>
5.45

>  <HISTAMINE H2>
4.47

>  <HISTAMINE H3>
6.7

$$$$
171562
  Marvin  02231216192D 0   1.00000     0.00000     0

 28 30  0  0  0  0  0  0  0  0999 V2000
    0.2928    3.1980    0.0000 Cl  0  0  0  0  0  0  0  0  0
    1.0073    2.7855    0.0000 C   0  0  0  0  0  0  0  0  0
    1.7217    3.1980    0.0000 C   0  0  0  0  0  0  0  0  0
    2.4362    2.7855    0.0000 C   0  0  0  0  0  0  0  0  0
    2.4362    1.9605    0.0000 C   0  0  0  0  0  0  0  0  0
    1.7217    1.5480    0.0000 C   0  0  0  0  0  0  0  0  0
    1.0073    1.9605    0.0000 C   0  0  0  0  0  0  0  0  0
    3.1507    1.5480    0.0000 C   0  0  0  0  0  0  0  0  0
    3.8651    1.9605    0.0000 C   0  0  0  0  0  0  0  0  0
    4.5796    1.5480    0.0000 C   0  0  0  0  0  0  0  0  0
    4.5796    0.7230    0.0000 C   0  0  0  0  0  0  0  0  0
    5.2941    0.3105    0.0000 O   0  0  0  0  0  0  0  0  0
    6.0086    0.7230    0.0000 C   0  0  0  0  0  0  0  0  0
    6.7230    0.3105    0.0000 C   0  0  0  0  0  0  0  0  0
    7.4375    0.7230    0.0000 C   0  0  0  0  0  0  0  0  0
    8.1520    0.3105    0.0000 N   0  0  0  0  0  0  0  0  0
    8.8664    0.7230    0.0000 C   0  0  0  0  0  0  0  0  0
    9.5809    0.3105    0.0000 C   0  0  0  0  0  0  0  0  0
    9.5809   -0.5145    0.0000 N   0  0  0  0  0  0  0  0  0
    8.8664   -0.9270    0.0000 C   0  0  0  0  0  0  0  0  0
    8.1520   -0.5145    0.0000 C   0  0  0  0  0  0  0  0  0
   10.2954   -0.9270    0.0000 C   0  0  0  0  0  0  0  0  0
   11.0098   -0.5145    0.0000 O   0  0  0  0  0  0  0  0  0
   11.7243   -0.9270    0.0000 C   0  0  0  0  0  0  0  0  0
   12.4388   -0.5145    0.0000 C   0  0  0  0  0  0  0  0  0
   10.2954   -1.7520    0.0000 O   0  0  0  0  0  0  0  0  0
    3.8651    0.3105    0.0000 C   0  0  0  0  0  0  0  0  0
    3.1507    0.7230    0.0000 C   0  0  0  0  0  0  0  0  0
  1  2  1  0  0  0  0
  2  3  4  0  0  0  0
  2  7  4  0  0  0  0
  3  4  4  0  0  0  0
  4  5  4  0  0  0  0
  5  6  4  0  0  0  0
  5  8  1  0  0  0  0
  6  7  4  0  0  0  0
  8  9  4  0  0  0  0
  8 28  4  0  0  0  0
  9 10  4  0  0  0  0
 10 11  4  0  0  0  0
 11 12  1  0  0  0  0
 11 27  4  0  0  0  0
 12 13  1  0  0  0  0
 13 14  1  0  0  0  0
 14 15  1  0  0  0  0
 15 16  1  0  0  0  0
 16 17  1  0  0  0  0
 16 21  1  0  0  0  0
 17 18  1  0  0  0  0
 18 19  1  0  0  0  0
 19 20  1  0  0  0  0
 19 22  1  0  0  0  0
 20 21  1  0  0  0  0
 22 23  1  0  0  0  0
 22 26  2  0  0  0  0
 23 24  1  0  0  0  0
 24 25  1  0  0  0  0
 27 28  4  0  0  0  0
M  END
>  <Name_Molregno>
171562

>  <HISTAMINE H1>
6.45

>  <HISTAMINE H2>
5.25

$$$$
171604
  Marvin  02231216192D 0   1.00000     0.00000     0

 24 26  0  0  1  0  0  0  0  0999 V2000
   -0.3601   -1.4374    0.0000 O   0  0  0  0  0  0  0  0  0
    0.3544   -1.0249    0.0000 C   0  0  0  0  0  0  0  0  0
    1.0689   -1.4374    0.0000 C   0  0  0  0  0  0  0  0  0
    1.7833   -1.0249    0.0000 C   0  0  0  0  0  0  0  0  0
    2.4978   -1.4374    0.0000 N   0  0  0  0  0  0  0  0  0
    3.2515   -1.1019    0.0000 C   0  0  0  0  0  0  0  0  0
    3.8035   -1.7149    0.0000 C   0  0  0  0  0  0  0  0  0
    4.6240   -1.6287    0.0000 N   0  0  0  0  0  0  0  0  0
    3.3910   -2.4294    0.0000 C   0  0  0  0  0  0  0  0  0
    2.5840   -2.2579    0.0000 C   0  0  0  0  0  0  0  0  0
   -1.0746   -1.0249    0.0000 C   0  0  0  0  0  0  0  0  0
   -1.7890   -1.4374    0.0000 C   0  0  0  0  0  0  0  0  0
   -2.5035   -1.0249    0.0000 C   0  0  0  0  0  0  0  0  0
   -2.5035   -0.1999    0.0000 C   0  0  0  0  0  0  0  0  0
   -1.7890    0.2126    0.0000 C   0  0  0  0  0  0  0  0  0
   -1.0746   -0.1999    0.0000 C   0  0  0  0  0  0  0  0  0
   -3.2180    0.2126    0.0000 C   0  0  0  0  0  0  0  0  0
   -3.9324   -0.1999    0.0000 C   0  0  0  0  0  0  0  0  0
   -4.6469    0.2126    0.0000 C   0  0  0  0  0  0  0  0  0
   -4.6469    1.0376    0.0000 C   0  0  0  0  0  0  0  0  0
   -3.9324    1.4501    0.0000 C   0  0  0  0  0  0  0  0  0
   -3.2180    1.0376    0.0000 C   0  0  0  0  0  0  0  0  0
   -5.3614    1.4501    0.0000 C   0  0  0  0  0  0  0  0  0
   -6.0759    1.8626    0.0000 N   0  0  0  0  0  0  0  0  0
  1  2  1  0  0  0  0
  1 11  1  0  0  0  0
  2  3  1  0  0  0  0
  3  4  1  0  0  0  0
  4  5  1  0  0  0  0
  5  6  1  0  0  0  0
  5 10  1  0  0  0  0
  6  7  1  0  0  0  0
  7  8  1  0  0  0  0
  7  9  1  0  0  0  0
  9 10  1  0  0  0  0
 11 12  4  0  0  0  0
 11 16  4  0  0  0  0
 12 13  4  0  0  0  0
 13 14  4  0  0  0  0
 14 15  4  0  0  0  0
 14 17  1  0  0  0  0
 15 16  4  0  0  0  0
 17 18  4  0  0  0  0
 17 22  4  0  0  0  0
 18 19  4  0  0  0  0
 19 20  4  0  0  0  0
 20 21  4  0  0  0  0
 20 23  1  0  0  0  0
 21 22  4  0  0  0  0
 23 24  3  0  0  0  0
M  END
>  <Name_Molregno>
171604

>  <HISTAMINE H1>
4.86

>  <HISTAMINE H2>
5.13

>  <HISTAMINE H3>
8.21

$$$$
171605
  Marvin  02231216192D 0   1.00000     0.00000     0

 29 31  0  0  0  0  0  0  0  0999 V2000
   -0.6430   -0.8452    0.0000 O   0  0  0  0  0  0  0  0  0
    0.0714   -0.4327    0.0000 C   0  0  0  0  0  0  0  0  0
    0.7859   -0.8452    0.0000 C   0  0  0  0  0  0  0  0  0
    1.5004   -0.4327    0.0000 C   0  0  0  0  0  0  0  0  0
    2.2149   -0.8452    0.0000 N   0  0  0  0  0  0  0  0  0
    2.9293   -0.4327    0.0000 C   0  0  0  0  0  0  0  0  0
    3.6438   -0.8452    0.0000 C   0  0  0  0  0  0  0  0  0
    3.6438   -1.6702    0.0000 N   0  0  0  0  0  0  0  0  0
    2.9293   -2.0827    0.0000 C   0  0  0  0  0  0  0  0  0
    2.2149   -1.6702    0.0000 C   0  0  0  0  0  0  0  0  0
    4.3583   -2.0827    0.0000 C   0  0  0  0  0  0  0  0  0
    4.3583   -2.9077    0.0000 O   0  0  0  0  0  0  0  0  0
    5.0727   -3.3202    0.0000 C   0  0  0  0  0  0  0  0  0
    5.0727   -4.1452    0.0000 C   0  0  0  0  0  0  0  0  0
    5.0727   -1.6702    0.0000 O   0  0  0  0  0  0  0  0  0
   -1.3575   -0.4327    0.0000 C   0  0  0  0  0  0  0  0  0
   -2.0720   -0.8452    0.0000 C   0  0  0  0  0  0  0  0  0
   -2.7864   -0.4327    0.0000 C   0  0  0  0  0  0  0  0  0
   -2.7864    0.3923    0.0000 C   0  0  0  0  0  0  0  0  0
   -2.0720    0.8048    0.0000 C   0  0  0  0  0  0  0  0  0
   -1.3575    0.3923    0.0000 C   0  0  0  0  0  0  0  0  0
   -3.5009    0.8048    0.0000 C   0  0  0  0  0  0  0  0  0
   -4.2154    0.3923    0.0000 C   0  0  0  0  0  0  0  0  0
   -4.9299    0.8048    0.0000 C   0  0  0  0  0  0  0  0  0
   -4.9299    1.6298    0.0000 C   0  0  0  0  0  0  0  0  0
   -4.2154    2.0423    0.0000 C   0  0  0  0  0  0  0  0  0
   -3.5009    1.6298    0.0000 C   0  0  0  0  0  0  0  0  0
   -5.6443    0.3923    0.0000 C   0  0  0  0  0  0  0  0  0
   -6.3588   -0.0202    0.0000 N   0  0  0  0  0  0  0  0  0
  1  2  1  0  0  0  0
  1 16  1  0  0  0  0
  2  3  1  0  0  0  0
  3  4  1  0  0  0  0
  4  5  1  0  0  0  0
  5  6  1  0  0  0  0
  5 10  1  0  0  0  0
  6  7  1  0  0  0  0
  7  8  1  0  0  0  0
  8  9  1  0  0  0  0
  8 11  1  0  0  0  0
  9 10  1  0  0  0  0
 11 12  1  0  0  0  0
 11 15  2  0  0  0  0
 12 13  1  0  0  0  0
 13 14  1  0  0  0  0
 16 17  4  0  0  0  0
 16 21  4  0  0  0  0
 17 18  4  0  0  0  0
 18 19  4  0  0  0  0
 19 20  4  0  0  0  0
 19 22  1  0  0  0  0
 20 21  4  0  0  0  0
 22 23  4  0  0  0  0
 22 27  4  0  0  0  0
 23 24  4  0  0  0  0
 24 25  4  0  0  0  0
 24 28  1  0  0  0  0
 25 26  4  0  0  0  0
 26 27  4  0  0  0  0
 28 29  3  0  0  0  0
M  END
>  <Name_Molregno>
171605

>  <HISTAMINE H1>
6.42

>  <HISTAMINE H2>
4.62

$$$$
171641
  Marvin  02231216192D 0   1.00000     0.00000     0

 30 32  0  0  0  0  0  0  0  0999 V2000
   -0.1084   -0.8174    0.0000 O   0  0  0  0  0  0  0  0  0
    0.6061   -0.4049    0.0000 C   0  0  0  0  0  0  0  0  0
    1.3206   -0.8174    0.0000 C   0  0  0  0  0  0  0  0  0
    2.0351   -0.4049    0.0000 C   0  0  0  0  0  0  0  0  0
    2.7495   -0.8174    0.0000 N   0  0  0  0  0  0  0  0  0
    3.4640   -0.4049    0.0000 C   0  0  0  0  0  0  0  0  0
    4.1785   -0.8174    0.0000 C   0  0  0  0  0  0  0  0  0
    4.1785   -1.6424    0.0000 N   0  0  0  0  0  0  0  0  0
    3.4640   -2.0549    0.0000 C   0  0  0  0  0  0  0  0  0
    2.7495   -1.6424    0.0000 C   0  0  0  0  0  0  0  0  0
    4.8929   -2.0549    0.0000 C   0  0  0  0  0  0  0  0  0
    4.8929   -2.8799    0.0000 O   0  0  0  0  0  0  0  0  0
    5.6074   -3.2924    0.0000 C   0  0  0  0  0  0  0  0  0
    5.6074   -4.1174    0.0000 C   0  0  0  0  0  0  0  0  0
    5.6074   -1.6424    0.0000 O   0  0  0  0  0  0  0  0  0
   -0.8228   -0.4049    0.0000 C   0  0  0  0  0  0  0  0  0
   -1.5373   -0.8174    0.0000 C   0  0  0  0  0  0  0  0  0
   -2.2518   -0.4049    0.0000 C   0  0  0  0  0  0  0  0  0
   -2.2518    0.4201    0.0000 C   0  0  0  0  0  0  0  0  0
   -1.5373    0.8326    0.0000 C   0  0  0  0  0  0  0  0  0
   -0.8228    0.4201    0.0000 C   0  0  0  0  0  0  0  0  0
   -2.9662    0.8326    0.0000 C   0  0  0  0  0  0  0  0  0
   -3.6807    0.4201    0.0000 C   0  0  0  0  0  0  0  0  0
   -4.3952    0.8326    0.0000 C   0  0  0  0  0  0  0  0  0
   -4.3952    1.6576    0.0000 C   0  0  0  0  0  0  0  0  0
   -3.6807    2.0701    0.0000 C   0  0  0  0  0  0  0  0  0
   -2.9662    1.6576    0.0000 C   0  0  0  0  0  0  0  0  0
   -2.2518    2.0701    0.0000 N   0  3  0  0  0  0  0  0  0
   -2.2518    2.8951    0.0000 O   0  5  0  0  0  0  0  0  0
   -1.5373    1.6576    0.0000 O   0  5  0  0  0  0  0  0  0
  1  2  1  0  0  0  0
  1 16  1  0  0  0  0
  2  3  1  0  0  0  0
  3  4  1  0  0  0  0
  4  5  1  0  0  0  0
  5  6  1  0  0  0  0
  5 10  1  0  0  0  0
  6  7  1  0  0  0  0
  7  8  1  0  0  0  0
  8  9  1  0  0  0  0
  8 11  1  0  0  0  0
  9 10  1  0  0  0  0
 11 12  1  0  0  0  0
 11 15  2  0  0  0  0
 12 13  1  0  0  0  0
 13 14  1  0  0  0  0
 16 17  4  0  0  0  0
 16 21  4  0  0  0  0
 17 18  4  0  0  0  0
 18 19  4  0  0  0  0
 19 20  4  0  0  0  0
 19 22  1  0  0  0  0
 20 21  4  0  0  0  0
 22 23  4  0  0  0  0
 22 27  4  0  0  0  0
 23 24  4  0  0  0  0
 24 25  4  0  0  0  0
 25 26  4  0  0  0  0
 26 27  4  0  0  0  0
 27 28  1  0  0  0  0
 28 29  1  0  0  0  0
 28 30  1  0  0  0  0
M  CHG  3  28   1  29  -1  30  -1
M  END
>  <Name_Molregno>
171641

>  <HISTAMINE H1>
6.79

>  <HISTAMINE H2>
5.12

$$$$
171683
  Marvin  02231216192D 0   1.00000     0.00000     0

 30 32  0  0  0  0  0  0  0  0999 V2000
   -0.2806   -1.1676    0.0000 O   0  0  0  0  0  0  0  0  0
    0.4339   -0.7551    0.0000 C   0  0  0  0  0  0  0  0  0
    1.1484   -1.1676    0.0000 C   0  0  0  0  0  0  0  0  0
    1.8628   -0.7551    0.0000 C   0  0  0  0  0  0  0  0  0
    2.5773   -1.1676    0.0000 N   0  0  0  0  0  0  0  0  0
    3.2918   -0.7551    0.0000 C   0  0  0  0  0  0  0  0  0
    4.0063   -1.1676    0.0000 C   0  0  0  0  0  0  0  0  0
    4.0063   -1.9926    0.0000 N   0  0  0  0  0  0  0  0  0
    3.2918   -2.4051    0.0000 C   0  0  0  0  0  0  0  0  0
    2.5773   -1.9926    0.0000 C   0  0  0  0  0  0  0  0  0
    4.7207   -2.4051    0.0000 C   0  0  0  0  0  0  0  0  0
    4.7207   -3.2301    0.0000 O   0  0  0  0  0  0  0  0  0
    5.4352   -3.6426    0.0000 C   0  0  0  0  0  0  0  0  0
    5.4352   -4.4676    0.0000 C   0  0  0  0  0  0  0  0  0
    5.4352   -1.9926    0.0000 O   0  0  0  0  0  0  0  0  0
   -0.9950   -0.7551    0.0000 C   0  0  0  0  0  0  0  0  0
   -1.7095   -1.1676    0.0000 C   0  0  0  0  0  0  0  0  0
   -2.4240   -0.7551    0.0000 C   0  0  0  0  0  0  0  0  0
   -2.4240    0.0699    0.0000 C   0  0  0  0  0  0  0  0  0
   -1.7095    0.4824    0.0000 C   0  0  0  0  0  0  0  0  0
   -0.9950    0.0699    0.0000 C   0  0  0  0  0  0  0  0  0
   -3.1385    0.4824    0.0000 C   0  0  0  0  0  0  0  0  0
   -3.8529    0.0699    0.0000 C   0  0  0  0  0  0  0  0  0
   -4.5674    0.4824    0.0000 C   0  0  0  0  0  0  0  0  0
   -4.5674    1.3074    0.0000 C   0  0  0  0  0  0  0  0  0
   -5.2819    1.7199    0.0000 N   0  3  0  0  0  0  0  0  0
   -5.9963    1.3074    0.0000 O   0  5  0  0  0  0  0  0  0
   -5.2819    2.5449    0.0000 O   0  5  0  0  0  0  0  0  0
   -3.8529    1.7199    0.0000 C   0  0  0  0  0  0  0  0  0
   -3.1385    1.3074    0.0000 C   0  0  0  0  0  0  0  0  0
  1  2  1  0  0  0  0
  1 16  1  0  0  0  0
  2  3  1  0  0  0  0
  3  4  1  0  0  0  0
  4  5  1  0  0  0  0
  5  6  1  0  0  0  0
  5 10  1  0  0  0  0
  6  7  1  0  0  0  0
  7  8  1  0  0  0  0
  8  9  1  0  0  0  0
  8 11  1  0  0  0  0
  9 10  1  0  0  0  0
 11 12  1  0  0  0  0
 11 15  2  0  0  0  0
 12 13  1  0  0  0  0
 13 14  1  0  0  0  0
 16 17  4  0  0  0  0
 16 21  4  0  0  0  0
 17 18  4  0  0  0  0
 18 19  4  0  0  0  0
 19 20  4  0  0  0  0
 19 22  1  0  0  0  0
 20 21  4  0  0  0  0
 22 23  4  0  0  0  0
 22 30  4  0  0  0  0
 23 24  4  0  0  0  0
 24 25  4  0  0  0  0
 25 26  1  0  0  0  0
 25 29  4  0  0  0  0
 26 27  1  0  0  0  0
 26 28  1  0  0  0  0
 29 30  4  0  0  0  0
M  CHG  3  26   1  27  -1  28  -1
M  END
>  <Name_Molregno>
171683

>  <HISTAMINE H1>
7.09

>  <HISTAMINE H2>
5.08

$$$$
178068
  Marvin  02231216192D 0   1.00000     0.00000     0

 32 35  0  0  0  0  0  0  0  0999 V2000
    3.7835    3.5848    0.0000 O   0  0  0  0  0  0  0  0  0
    3.0690    3.9973    0.0000 C   0  0  0  0  0  0  0  0  0
    3.7835    2.7598    0.0000 C   0  0  0  0  0  0  0  0  0
    4.4980    2.3473    0.0000 C   0  0  0  0  0  0  0  0  0
    4.4980    1.5223    0.0000 C   0  0  0  0  0  0  0  0  0
    3.7835    1.1098    0.0000 C   0  0  0  0  0  0  0  0  0
    3.7835    0.2848    0.0000 N   0  0  0  0  0  0  0  0  0
    4.4980   -0.1277    0.0000 C   0  0  0  0  0  0  0  0  0
    5.2124    0.2848    0.0000 O   0  0  0  0  0  0  0  0  0
    4.4980   -0.9527    0.0000 N   0  0  0  0  0  0  0  0  0
    5.2124   -1.3652    0.0000 C   0  0  0  0  0  0  0  0  0
    5.2124   -2.1902    0.0000 C   0  0  0  0  0  0  0  0  0
    4.4980   -2.6027    0.0000 N   0  0  0  0  0  0  0  0  0
    3.7835   -2.1902    0.0000 C   0  0  0  0  0  0  0  0  0
    3.7835   -1.3652    0.0000 C   0  0  0  0  0  0  0  0  0
    4.4980   -3.4277    0.0000 C   0  0  0  0  0  0  0  0  0
    5.2124   -3.8402    0.0000 C   0  0  0  0  0  0  0  0  0
    5.2124   -4.6652    0.0000 C   0  0  0  0  0  0  0  0  0
    4.4980   -5.0777    0.0000 C   0  0  0  0  0  0  0  0  0
    3.7835   -4.6652    0.0000 C   0  0  0  0  0  0  0  0  0
    3.7835   -3.8402    0.0000 C   0  0  0  0  0  0  0  0  0
    3.0690   -3.4277    0.0000 O   0  0  0  0  0  0  0  0  0
    2.3546   -3.8402    0.0000 C   0  0  0  0  0  0  0  0  0
    3.0690    1.5223    0.0000 C   0  0  0  0  0  0  0  0  0
    3.0690    2.3473    0.0000 C   0  0  0  0  0  0  0  0  0
    2.3546    2.7598    0.0000 N   0  0  0  0  0  0  0  0  0
    1.6401    2.3473    0.0000 C   0  0  0  0  0  0  0  0  0
    0.9256    2.7598    0.0000 C   0  0  0  0  0  0  0  0  0
    0.9256    3.5848    0.0000 N   0  0  0  0  0  0  0  0  0
    1.6401    3.9973    0.0000 C   0  0  0  0  0  0  0  0  0
    2.3546    3.5848    0.0000 C   0  0  0  0  0  0  0  0  0
    0.2111    3.9973    0.0000 C   0  0  0  0  0  0  0  0  0
  1  2  1  0  0  0  0
  1  3  1  0  0  0  0
  3  4  4  0  0  0  0
  3 25  4  0  0  0  0
  4  5  4  0  0  0  0
  5  6  4  0  0  0  0
  6  7  1  0  0  0  0
  6 24  4  0  0  0  0
  7  8  1  0  0  0  0
  8  9  2  0  0  0  0
  8 10  1  0  0  0  0
 10 11  1  0  0  0  0
 10 15  1  0  0  0  0
 11 12  1  0  0  0  0
 12 13  1  0  0  0  0
 13 14  1  0  0  0  0
 13 16  1  0  0  0  0
 14 15  1  0  0  0  0
 16 17  4  0  0  0  0
 16 21  4  0  0  0  0
 17 18  4  0  0  0  0
 18 19  4  0  0  0  0
 19 20  4  0  0  0  0
 20 21  4  0  0  0  0
 21 22  1  0  0  0  0
 22 23  1  0  0  0  0
 24 25  4  0  0  0  0
 25 26  1  0  0  0  0
 26 27  1  0  0  0  0
 26 31  1  0  0  0  0
 27 28  1  0  0  0  0
 28 29  1  0  0  0  0
 29 30  1  0  0  0  0
 29 32  1  0  0  0  0
 30 31  1  0  0  0  0
M  END
>  <Name_Molregno>
178068

>  <5-HT1A>
6.17

>  <5-HT1B>
8.44

>  <5-HT1D>
7.02

>  <5-HT2A>
5.17

>  <5-HT2C>
5.71

>  <5-HT6>
5.62

>  <5-HT7>
5.85

>  <DOPAMINE D1>
5

>  <DOPAMINE D2>
5

>  <DOPAMINE D3>
5

>  <DOPAMINE D4>
5

>  <DOPAMINE D5>
5

>  <HISTAMINE H1>
5

>  <Muscarinic acetylcholine receptor M1>
5

>  <Muscarinic acetylcholine receptor M2>
5

>  <Muscarinic acetylcholine receptor M3>
5

>  <Muscarinic acetylcholine receptor M4>
5

>  <Muscarinic acetylcholine receptor M5>
5

$$$$
199111
  Marvin  02231216192D 0   1.00000     0.00000     0

 14 15  0  0  1  0  0  0  0  0999 V2000
   -0.1663    0.8600    0.0000 N   0  0  0  0  0  0  0  0  0
    0.5482    0.4475    0.0000 C   0  0  0  0  0  0  0  0  0
    1.2627    0.8600    0.0000 C   0  0  0  0  0  0  0  0  0
    1.2627    1.6850    0.0000 C   0  0  0  0  0  0  0  0  0
    1.9771    2.0975    0.0000 C   0  0  0  0  0  0  0  0  0
    2.6916    1.6850    0.0000 C   0  0  0  0  0  0  0  0  0
    2.6916    0.8600    0.0000 C   0  0  0  0  0  0  0  0  0
    1.9771    0.4475    0.0000 C   0  0  0  0  0  0  0  0  0
    1.9771   -0.3775    0.0000 N   0  0  0  0  0  0  0  0  0
    2.6916   -0.7900    0.0000 C   0  0  0  0  0  0  0  0  0
    2.6916   -1.6150    0.0000 C   0  0  0  0  0  0  0  0  0
    1.2627   -0.7900    0.0000 C   0  0  0  0  0  0  0  0  0
    0.5482    2.0975    0.0000 C   0  0  0  0  0  0  0  0  0
   -0.1663    1.6850    0.0000 C   0  0  0  0  0  0  0  0  0
  1  2  4  0  0  0  0
  1 14  4  0  0  0  0
  2  3  4  0  0  0  0
  3  4  4  0  0  0  0
  3  8  1  0  0  0  0
  4  5  1  0  0  0  0
  4 13  4  0  0  0  0
  5  6  1  0  0  0  0
  6  7  1  0  0  0  0
  7  8  1  0  0  0  0
  8  9  1  0  0  0  0
  9 10  1  0  0  0  0
  9 12  1  0  0  0  0
 10 11  1  0  0  0  0
 13 14  4  0  0  0  0
M  END
>  <Name_Molregno>
199111

>  <5-HT1A>
5

>  <5-HT1B>
5

>  <5-HT2C>
5

>  <5-HT3>
5

>  <5-HT5>
5

>  <5-HT6>
5

>  <5-HT7>
5

>  <Beta-1>
5

>  <Beta-2>
5

>  <DOPAMINE D1>
5

>  <DOPAMINE D2>
5

>  <DOPAMINE D3>
5

>  <DOPAMINE D4>
5

>  <DOPAMINE D5>
5

>  <HISTAMINE H1>
5

>  <HISTAMINE H2>
5

>  <Muscarinic acetylcholine receptor M1>
5

>  <Muscarinic acetylcholine receptor M2>
5

>  <Muscarinic acetylcholine receptor M3>
5

>  <Muscarinic acetylcholine receptor M4>
5

>  <Muscarinic acetylcholine receptor M5>
5

$$$$
209761
  Marvin  02231216192D 0   1.00000     0.00000     0

 26 29  0  0  1  0  0  0  0  0999 V2000
    1.6711    3.5863    0.0000 F   0  0  0  0  0  0  0  0  0
    2.0937    2.8777    0.0000 C   0  0  0  0  0  0  0  0  0
    2.9186    2.8894    0.0000 C   0  0  0  0  0  0  0  0  0
    3.3412    2.1809    0.0000 C   0  0  0  0  0  0  0  0  0
    2.9389    1.4606    0.0000 C   0  0  0  0  0  0  0  0  0
    2.1140    1.4489    0.0000 C   0  0  0  0  0  0  0  0  0
    1.6914    2.1575    0.0000 C   0  0  0  0  0  0  0  0  0
    3.3615    0.7521    0.0000 C   0  0  0  0  0  0  0  0  0
    2.9592    0.0318    0.0000 O   0  0  0  0  0  0  0  0  0
    4.1864    0.7638    0.0000 C   0  0  0  0  0  0  0  0  0
    4.6090    0.0553    0.0000 C   0  0  0  0  0  0  0  0  0
    5.4339    0.0670    0.0000 C   0  0  0  0  0  0  0  0  0
    5.8565   -0.6415    0.0000 N   0  0  0  0  0  0  0  0  0
    6.4171   -1.0814    0.0000 C   0  0  0  0  0  0  0  0  0
    7.3459   -1.0659    0.0000 C   0  0  0  0  0  0  0  0  0
    7.4841   -1.8833    0.0000 C   0  0  0  0  0  0  0  0  0
    6.9679   -1.4546    0.0000 C   0  0  0  0  0  0  0  0  0
    5.9962   -1.4546    0.0000 C   0  0  0  0  0  0  0  0  0
    5.4763   -2.1669    0.0000 C   0  0  0  0  0  0  0  0  0
    6.0966   -1.7900    0.0000 C   0  0  0  0  0  0  0  0  0
    7.8959   -2.5982    0.0000 C   0  0  0  0  0  0  0  0  0
    8.7209   -2.5990    0.0000 C   0  0  0  0  0  0  0  0  0
    9.1327   -3.3139    0.0000 C   0  0  0  0  0  0  0  0  0
    8.7195   -4.0280    0.0000 C   0  0  0  0  0  0  0  0  0
    7.8945   -4.0272    0.0000 C   0  0  0  0  0  0  0  0  0
    7.4827   -3.3123    0.0000 C   0  0  0  0  0  0  0  0  0
  1  2  1  0  0  0  0
  2  3  4  0  0  0  0
  2  7  4  0  0  0  0
  3  4  4  0  0  0  0
  4  5  4  0  0  0  0
  5  6  4  0  0  0  0
  5  8  1  0  0  0  0
  6  7  4  0  0  0  0
  8  9  2  0  0  0  0
  8 10  1  0  0  0  0
 10 11  1  0  0  0  0
 11 12  1  0  0  0  0
 12 13  1  0  0  0  0
 13 14  1  0  0  0  0
 13 18  1  0  0  0  0
 14 15  1  0  0  0  0
 14 20  1  0  0  0  0
 15 16  1  0  0  0  0
 16 17  1  0  0  0  0
 16 21  1  0  0  0  0
 17 18  1  0  0  0  0
 18 19  1  0  0  0  0
 19 20  1  0  0  0  0
 21 22  4  0  0  0  0
 21 26  4  0  0  0  0
 22 23  4  0  0  0  0
 23 24  4  0  0  0  0
 24 25  4  0  0  0  0
 25 26  4  0  0  0  0
M  END
>  <Name_Molregno>
209761

>  <5-HT1A>
6.38

>  <5-HT2A>
6.97

>  <5-HT2C>
5.97

>  <DOPAMINE D2>
6.91

>  <DOPAMINE D4>
6.75

>  <HISTAMINE H1>
6.01

$$$$
210024
  Marvin  02231216192D 0   1.00000     0.00000     0

 20 22  0  0  0  0  0  0  0  0999 V2000
   -1.2788   -1.2455    0.0000 O   0  0  0  0  0  0  0  0  0
   -0.4538   -1.2455    0.0000 C   0  0  0  0  0  0  0  0  0
   -0.4538   -2.0705    0.0000 C   0  0  0  0  0  0  0  0  0
    0.2607   -2.4830    0.0000 C   0  0  0  0  0  0  0  0  0
    0.2607   -3.3080    0.0000 C   0  0  0  0  0  0  0  0  0
   -0.4538   -3.7205    0.0000 N   0  0  0  0  0  0  0  0  0
   -1.1682   -3.3080    0.0000 C   0  0  0  0  0  0  0  0  0
   -1.1682   -2.4830    0.0000 C   0  0  0  0  0  0  0  0  0
   -0.4537   -0.4205    0.0000 C   0  0  0  0  0  0  0  0  0
   -1.1682   -0.0080    0.0000 C   0  0  0  0  0  0  0  0  0
   -1.1682    0.8170    0.0000 C   0  0  0  0  0  0  0  0  0
   -0.4537    1.2295    0.0000 C   0  0  0  0  0  0  0  0  0
    0.2607    0.8170    0.0000 C   0  0  0  0  0  0  0  0  0
    0.2607   -0.0080    0.0000 C   0  0  0  0  0  0  0  0  0
    0.3712   -1.2455    0.0000 C   0  0  0  0  0  0  0  0  0
    0.7838   -0.5311    0.0000 C   0  0  0  0  0  0  0  0  0
    1.6088   -0.5311    0.0000 C   0  0  0  0  0  0  0  0  0
    2.0213   -1.2455    0.0000 C   0  0  0  0  0  0  0  0  0
    1.6087   -1.9600    0.0000 C   0  0  0  0  0  0  0  0  0
    0.7837   -1.9600    0.0000 C   0  0  0  0  0  0  0  0  0
  1  2  1  0  0  0  0
  2  3  1  0  0  0  0
  2  9  1  0  0  0  0
  2 15  1  0  0  0  0
  3  4  1  0  0  0  0
  3  8  1  0  0  0  0
  4  5  1  0  0  0  0
  5  6  1  0  0  0  0
  6  7  1  0  0  0  0
  7  8  1  0  0  0  0
  9 10  4  0  0  0  0
  9 14  4  0  0  0  0
 10 11  4  0  0  0  0
 11 12  4  0  0  0  0
 12 13  4  0  0  0  0
 13 14  4  0  0  0  0
 15 16  4  0  0  0  0
 15 20  4  0  0  0  0
 16 17  4  0  0  0  0
 17 18  4  0  0  0  0
 18 19  4  0  0  0  0
 19 20  4  0  0  0  0
M  END
>  <Name_Molregno>
210024

>  <HISTAMINE H1>
6.18

$$$$
212343
  Marvin  02231216192D 0   1.00000     0.00000     0

 19 21  0  0  0  0  0  0  0  0999 V2000
    6.7813   -1.7154    0.0000 Cl  0  0  0  0  0  0  0  0  0
    6.0668   -1.3029    0.0000 C   0  0  0  0  0  0  0  0  0
    5.3523   -1.7154    0.0000 C   0  0  0  0  0  0  0  0  0
    4.6379   -1.3029    0.0000 C   0  0  0  0  0  0  0  0  0
    3.8532   -1.5579    0.0000 C   0  0  0  0  0  0  0  0  0
    3.3683   -0.8904    0.0000 C   0  0  0  0  0  0  0  0  0
    3.8532   -0.2230    0.0000 N   0  0  0  0  0  0  0  0  0
    4.6379   -0.4779    0.0000 C   0  0  0  0  0  0  0  0  0
    5.3523   -0.0654    0.0000 C   0  0  0  0  0  0  0  0  0
    6.0668   -0.4779    0.0000 C   0  0  0  0  0  0  0  0  0
    2.5433   -0.8904    0.0000 C   0  0  0  0  0  0  0  0  0
    2.1308   -1.6049    0.0000 O   0  0  0  0  0  0  0  0  0
    2.1308   -0.1760    0.0000 N   0  0  0  0  0  0  0  0  0
    1.3058   -0.1760    0.0000 C   0  0  0  0  0  0  0  0  0
    0.8933    0.5385    0.0000 C   0  0  0  0  0  0  0  0  0
    1.3058    1.2530    0.0000 N   0  0  0  0  0  0  0  0  0
    2.1308    1.2530    0.0000 C   0  0  0  0  0  0  0  0  0
    2.5433    0.5385    0.0000 C   0  0  0  0  0  0  0  0  0
    0.8933    1.9674    0.0000 C   0  0  0  0  0  0  0  0  0
  1  2  1  0  0  0  0
  2  3  4  0  0  0  0
  2 10  4  0  0  0  0
  3  4  4  0  0  0  0
  4  5  4  0  0  0  0
  4  8  4  0  0  0  0
  5  6  4  0  0  0  0
  6  7  4  0  0  0  0
  6 11  1  0  0  0  0
  7  8  4  0  0  0  0
  8  9  4  0  0  0  0
  9 10  4  0  0  0  0
 11 12  2  0  0  0  0
 11 13  1  0  0  0  0
 13 14  1  0  0  0  0
 13 18  1  0  0  0  0
 14 15  1  0  0  0  0
 15 16  1  0  0  0  0
 16 17  1  0  0  0  0
 16 19  1  0  0  0  0
 17 18  1  0  0  0  0
M  STY  1   1 DAT
M  SAL   1  1   7
M  SDT   1 MRV_IMPLICIT_H                                        
M  SDD   1     0.0000    0.0000    DR    ALL  0       0  
M  SED   1 IMPL_H1
M  END
>  <Name_Molregno>
212343

>  <HISTAMINE H1>
6.01

>  <HISTAMINE H2>
5.07

>  <HISTAMINE H3>
5.57

>  <HISTAMINE H4>
7.94

$$$$
230589
  Marvin  02231216192D 0   1.00000     0.00000     0

 21 23  0  0  1  0  0  0  0  0999 V2000
    1.8607    2.5785    0.0000 S   0  0  0  0  0  0  0  0  0
    2.1156    3.3632    0.0000 C   0  0  0  0  0  0  0  0  0
    2.9406    3.3632    0.0000 C   0  0  0  0  0  0  0  0  0
    3.1956    2.5785    0.0000 C   0  0  0  0  0  0  0  0  0
    2.5281    2.0936    0.0000 C   0  0  0  0  0  0  0  0  0
    2.5281    1.2686    0.0000 C   0  0  0  0  0  0  0  0  0
    1.8136    0.8561    0.0000 O   0  0  0  0  0  0  0  0  0
    1.8136    0.0311    0.0000 C   0  0  0  0  0  0  0  0  0
    1.0992   -0.3814    0.0000 C   0  0  0  0  0  0  0  0  0
    1.0992   -1.2064    0.0000 C   0  0  0  0  0  0  0  0  0
    1.8136   -1.6189    0.0000 C   0  0  0  0  0  0  0  0  0
    2.5281   -1.2064    0.0000 C   0  0  0  0  0  0  0  0  0
    2.5281   -0.3814    0.0000 C   0  0  0  0  0  0  0  0  0
    0.3847   -1.6189    0.0000 C   0  0  0  0  0  0  0  0  0
   -0.3298   -1.2064    0.0000 C   0  0  0  0  0  0  0  0  0
   -0.3298   -0.3814    0.0000 C   0  0  0  0  0  0  0  0  0
    0.3847    0.0311    0.0000 C   0  0  0  0  0  0  0  0  0
    3.2426    0.8561    0.0000 C   0  0  0  0  0  0  0  0  0
    3.9571    1.2686    0.0000 C   0  0  0  0  0  0  0  0  0
    4.6715    0.8561    0.0000 N   0  0  0  0  0  0  0  0  0
    4.6715    0.0311    0.0000 C   0  0  0  0  0  0  0  0  0
  1  2  4  0  0  0  0
  1  5  4  0  0  0  0
  2  3  4  0  0  0  0
  3  4  4  0  0  0  0
  4  5  4  0  0  0  0
  5  6  1  0  0  0  0
  6  7  1  0  0  0  0
  6 18  1  0  0  0  0
  7  8  1  0  0  0  0
  8  9  4  0  0  0  0
  8 13  4  0  0  0  0
  9 10  4  0  0  0  0
  9 17  4  0  0  0  0
 10 11  4  0  0  0  0
 10 14  4  0  0  0  0
 11 12  4  0  0  0  0
 12 13  4  0  0  0  0
 14 15  4  0  0  0  0
 15 16  4  0  0  0  0
 16 17  4  0  0  0  0
 18 19  1  0  0  0  0
 19 20  1  0  0  0  0
 20 21  1  0  0  0  0
M  END
>  <Name_Molregno>
230589

>  <5-HT1A>
5.3

>  <5-HT1B>
5.4

>  <5-HT1D>
5.52

>  <5-HT1E>
5.43

>  <5-HT2A>
6.3

>  <5-HT2C>
6.04

>  <5-HT6>
6.38

>  <5-HT7>
5.65

>  <Alpha-2A>
6

>  <DOPAMINE D2>
5

>  <Dopamine transporter>
6.24

>  <HISTAMINE H1>
5.64

>  <Muscarinic acetylcholine receptor M1>
6

>  <Muscarinic acetylcholine receptor M2>
6

>  <Norepinephrine transporter>
7.53

>  <Serotonin transporter>
8.48

$$$$
232974
  Marvin  02231216192D 0   1.00000     0.00000     0

 24 26  0  0  0  0  0  0  0  0999 V2000
    0.1578    2.6676    0.0000 F   0  0  0  0  0  0  0  0  0
    0.8723    2.2551    0.0000 C   0  0  0  0  0  0  0  0  0
    1.5868    2.6676    0.0000 C   0  0  0  0  0  0  0  0  0
    2.3013    2.2551    0.0000 C   0  0  0  0  0  0  0  0  0
    2.3013    1.4301    0.0000 C   0  0  0  0  0  0  0  0  0
    1.5868    1.0176    0.0000 C   0  0  0  0  0  0  0  0  0
    0.8723    1.4301    0.0000 C   0  0  0  0  0  0  0  0  0
    3.0157    1.0176    0.0000 C   0  0  0  0  0  0  0  0  0
    3.0157    0.1926    0.0000 O   0  0  0  0  0  0  0  0  0
    3.7302    1.4301    0.0000 C   0  0  0  0  0  0  0  0  0
    4.4447    1.0176    0.0000 C   0  0  0  0  0  0  0  0  0
    5.1591    1.4301    0.0000 C   0  0  0  0  0  0  0  0  0
    5.8736    1.0176    0.0000 N   0  0  0  0  0  0  0  0  0
    6.5881    1.4301    0.0000 C   0  0  0  0  0  0  0  0  0
    7.3026    1.0176    0.0000 C   0  0  0  0  0  0  0  0  0
    7.3026    0.1926    0.0000 N   0  0  0  0  0  0  0  0  0
    6.5881   -0.2199    0.0000 C   0  0  0  0  0  0  0  0  0
    5.8736    0.1926    0.0000 C   0  0  0  0  0  0  0  0  0
    8.0170   -0.2199    0.0000 C   0  0  0  0  0  0  0  0  0
    8.7315    0.1926    0.0000 N   0  0  0  0  0  0  0  0  0
    9.4460   -0.2199    0.0000 C   0  0  0  0  0  0  0  0  0
    9.4460   -1.0449    0.0000 C   0  0  0  0  0  0  0  0  0
    8.7315   -1.4574    0.0000 C   0  0  0  0  0  0  0  0  0
    8.0170   -1.0449    0.0000 N   0  0  0  0  0  0  0  0  0
  1  2  1  0  0  0  0
  2  3  4  0  0  0  0
  2  7  4  0  0  0  0
  3  4  4  0  0  0  0
  4  5  4  0  0  0  0
  5  6  4  0  0  0  0
  5  8  1  0  0  0  0
  6  7  4  0  0  0  0
  8  9  2  0  0  0  0
  8 10  1  0  0  0  0
 10 11  1  0  0  0  0
 11 12  1  0  0  0  0
 12 13  1  0  0  0  0
 13 14  1  0  0  0  0
 13 18  1  0  0  0  0
 14 15  1  0  0  0  0
 15 16  1  0  0  0  0
 16 17  1  0  0  0  0
 16 19  1  0  0  0  0
 17 18  1  0  0  0  0
 19 20  4  0  0  0  0
 19 24  4  0  0  0  0
 20 21  4  0  0  0  0
 21 22  4  0  0  0  0
 22 23  4  0  0  0  0
 23 24  4  0  0  0  0
M  END
>  <Name_Molregno>
232974

>  <5-HT1A>
7.52

>  <5-HT2A>
7.66

>  <5-HT2C>
5.38

>  <DOPAMINE D2>
7.01

>  <DOPAMINE D3>
6.61

>  <DOPAMINE D4>
8.19

>  <HISTAMINE H1>
6.04

$$$$
245433
  Marvin  02231216192D 0   1.00000     0.00000     0

 25 27  0  0  1  0  0  0  0  0999 V2000
    0.3559    2.6179    0.0000 Cl  0  0  0  0  0  0  0  0  0
    1.0234    2.1329    0.0000 C   0  0  0  0  0  0  0  0  0
    1.7770    2.4685    0.0000 C   0  0  0  0  0  0  0  0  0
    2.4445    1.9836    0.0000 C   0  0  0  0  0  0  0  0  0
    2.3582    1.1631    0.0000 C   0  0  0  0  0  0  0  0  0
    1.6046    0.8275    0.0000 C   0  0  0  0  0  0  0  0  0
    0.9371    1.3125    0.0000 C   0  0  0  0  0  0  0  0  0
    3.0257    0.6782    0.0000 C   0  0  0  0  0  0  0  0  0
    2.4736    0.0651    0.0000 O   0  0  0  0  0  0  0  0  0
    3.4382    1.3926    0.0000 C   0  0  0  0  0  0  0  0  0
    4.2451    1.2211    0.0000 C   0  0  0  0  0  0  0  0  0
    4.3314    0.4006    0.0000 N   0  0  0  0  0  0  0  0  0
    3.5777    0.0651    0.0000 C   0  0  0  0  0  0  0  0  0
    5.0459   -0.0119    0.0000 C   0  0  0  0  0  0  0  0  0
    5.7603    0.4006    0.0000 C   0  0  0  0  0  0  0  0  0
    6.4748   -0.0119    0.0000 C   0  0  0  0  0  0  0  0  0
    7.1893    0.4006    0.0000 C   0  0  0  0  0  0  0  0  0
    7.1893    1.2256    0.0000 O   0  0  0  0  0  0  0  0  0
    7.9037   -0.0119    0.0000 C   0  0  0  0  0  0  0  0  0
    8.6182    0.4006    0.0000 C   0  0  0  0  0  0  0  0  0
    9.3327   -0.0119    0.0000 C   0  0  0  0  0  0  0  0  0
    9.3327   -0.8369    0.0000 C   0  0  0  0  0  0  0  0  0
   10.0472   -1.2494    0.0000 F   0  0  0  0  0  0  0  0  0
    8.6182   -1.2494    0.0000 C   0  0  0  0  0  0  0  0  0
    7.9037   -0.8369    0.0000 C   0  0  0  0  0  0  0  0  0
  1  2  1  0  0  0  0
  2  3  4  0  0  0  0
  2  7  4  0  0  0  0
  3  4  4  0  0  0  0
  4  5  4  0  0  0  0
  5  6  4  0  0  0  0
  5  8  1  0  0  0  0
  6  7  4  0  0  0  0
  8  9  1  0  0  0  0
  8 10  1  0  0  0  0
  8 13  1  0  0  0  0
 10 11  1  0  0  0  0
 11 12  1  0  0  0  0
 12 13  1  0  0  0  0
 12 14  1  0  0  0  0
 14 15  1  0  0  0  0
 15 16  1  0  0  0  0
 16 17  1  0  0  0  0
 17 18  2  0  0  0  0
 17 19  1  0  0  0  0
 19 20  4  0  0  0  0
 19 25  4  0  0  0  0
 20 21  4  0  0  0  0
 21 22  4  0  0  0  0
 22 23  1  0  0  0  0
 22 24  4  0  0  0  0
 24 25  4  0  0  0  0
M  END
>  <Name_Molregno>
245433

>  <5-HT1A>
6.1

>  <5-HT2A>
6.87

>  <5-HT2C>
5.67

>  <Alpha-1A>
7.2

>  <Alpha-1B>
7.18

>  <Alpha-2A>
5.44

>  <Alpha-2B>
5.58

>  <Alpha-2C>
7.41

>  <DOPAMINE D2>
7.07

>  <DOPAMINE D3>
6.45

>  <DOPAMINE D4>
7.7

>  <HISTAMINE H1>
6.21

$$$$
264614
  Marvin  02231216192D 0   1.00000     0.00000     0

 17 19  0  0  0  0  0  0  0  0999 V2000
    0.0196   -4.9344    0.0000 N   0  0  0  0  0  0  0  0  0
    0.0196   -4.1094    0.0000 C   0  0  0  0  0  0  0  0  0
   -0.6948   -3.6969    0.0000 C   0  0  0  0  0  0  0  0  0
   -0.6948   -2.8719    0.0000 C   0  0  0  0  0  0  0  0  0
    0.0196   -2.4594    0.0000 C   0  0  0  0  0  0  0  0  0
    0.0196   -1.6344    0.0000 C   0  0  0  0  0  0  0  0  0
   -0.6948   -1.2219    0.0000 C   0  0  0  0  0  0  0  0  0
   -1.4093   -1.6344    0.0000 C   0  0  0  0  0  0  0  0  0
   -1.4093   -2.4594    0.0000 C   0  0  0  0  0  0  0  0  0
   -2.1238   -2.8719    0.0000 C   0  0  0  0  0  0  0  0  0
   -2.8382   -2.4594    0.0000 C   0  0  0  0  0  0  0  0  0
   -2.8382   -1.6344    0.0000 C   0  0  0  0  0  0  0  0  0
   -2.1238   -1.2219    0.0000 C   0  0  0  0  0  0  0  0  0
    0.7341   -1.2219    0.0000 C   0  0  0  0  0  0  0  0  0
    1.4486   -1.6344    0.0000 C   0  0  0  0  0  0  0  0  0
    1.4486   -2.4594    0.0000 C   0  0  0  0  0  0  0  0  0
    0.7341   -2.8719    0.0000 C   0  0  0  0  0  0  0  0  0
  1  2  1  0  0  0  0
  2  3  1  0  0  0  0
  3  4  1  0  0  0  0
  4  5  1  0  0  0  0
  4  9  1  0  0  0  0
  5  6  4  0  0  0  0
  5 17  4  0  0  0  0
  6  7  1  0  0  0  0
  6 14  4  0  0  0  0
  7  8  1  0  0  0  0
  8  9  4  0  0  0  0
  8 13  4  0  0  0  0
  9 10  4  0  0  0  0
 10 11  4  0  0  0  0
 11 12  4  0  0  0  0
 12 13  4  0  0  0  0
 14 15  4  0  0  0  0
 15 16  4  0  0  0  0
 16 17  4  0  0  0  0
M  END
>  <Name_Molregno>
264614

>  <5-HT2A>
6.32

>  <HISTAMINE H1>
6.86

$$$$
264710
  Marvin  02231216192D 0   1.00000     0.00000     0

 19 21  0  0  0  0  0  0  0  0999 V2000
   -0.5539   -1.8083    0.0000 N   0  0  0  0  0  0  0  0  0
    0.1606   -2.2208    0.0000 C   0  0  0  0  0  0  0  0  0
    0.8750   -1.8083    0.0000 C   0  0  0  0  0  0  0  0  0
    1.5895   -2.2208    0.0000 C   0  0  0  0  0  0  0  0  0
    2.3040   -1.8083    0.0000 C   0  0  0  0  0  0  0  0  0
    3.0185   -2.2208    0.0000 C   0  0  0  0  0  0  0  0  0
    3.7329   -1.8083    0.0000 C   0  0  0  0  0  0  0  0  0
    3.7329   -0.9833    0.0000 C   0  0  0  0  0  0  0  0  0
    3.0185   -0.5708    0.0000 C   0  0  0  0  0  0  0  0  0
    2.3040   -0.9833    0.0000 C   0  0  0  0  0  0  0  0  0
    1.5895   -0.5708    0.0000 C   0  0  0  0  0  0  0  0  0
    1.5895    0.2542    0.0000 C   0  0  0  0  0  0  0  0  0
    2.3040    0.6667    0.0000 C   0  0  0  0  0  0  0  0  0
    3.0185    0.2542    0.0000 C   0  0  0  0  0  0  0  0  0
    4.4474   -2.2208    0.0000 C   0  0  0  0  0  0  0  0  0
    4.4474   -3.0458    0.0000 C   0  0  0  0  0  0  0  0  0
    3.7329   -3.4583    0.0000 C   0  0  0  0  0  0  0  0  0
    3.0185   -3.0458    0.0000 C   0  0  0  0  0  0  0  0  0
   -1.2684   -2.2208    0.0000 C   0  0  0  0  0  0  0  0  0
  1  2  1  0  0  0  0
  1 19  1  0  0  0  0
  2  3  1  0  0  0  0
  3  4  1  0  0  0  0
  4  5  1  0  0  0  0
  5  6  1  0  0  0  0
  5 10  1  0  0  0  0
  6  7  4  0  0  0  0
  6 18  4  0  0  0  0
  7  8  1  0  0  0  0
  7 15  4  0  0  0  0
  8  9  1  0  0  0  0
  9 10  4  0  0  0  0
  9 14  4  0  0  0  0
 10 11  4  0  0  0  0
 11 12  4  0  0  0  0
 12 13  4  0  0  0  0
 13 14  4  0  0  0  0
 15 16  4  0  0  0  0
 16 17  4  0  0  0  0
 17 18  4  0  0  0  0
M  END
>  <Name_Molregno>
264710

>  <5-HT2A>
7.89

>  <HISTAMINE H1>
8.52

$$$$
264711
  Marvin  02231216192D 0   1.00000     0.00000     0

 18 20  0  0  0  0  0  0  0  0999 V2000
    3.6736   -4.4613    0.0000 N   0  0  0  0  0  0  0  0  0
    2.9591   -4.0488    0.0000 C   0  0  0  0  0  0  0  0  0
    2.9591   -3.2238    0.0000 C   0  0  0  0  0  0  0  0  0
    2.2446   -2.8113    0.0000 C   0  0  0  0  0  0  0  0  0
    2.2446   -1.9863    0.0000 C   0  0  0  0  0  0  0  0  0
    2.9591   -1.5738    0.0000 C   0  0  0  0  0  0  0  0  0
    2.9591   -0.7488    0.0000 C   0  0  0  0  0  0  0  0  0
    2.2446   -0.3363    0.0000 C   0  0  0  0  0  0  0  0  0
    1.5302   -0.7488    0.0000 C   0  0  0  0  0  0  0  0  0
    1.5302   -1.5738    0.0000 C   0  0  0  0  0  0  0  0  0
    0.8157   -1.9863    0.0000 C   0  0  0  0  0  0  0  0  0
    0.1012   -1.5738    0.0000 C   0  0  0  0  0  0  0  0  0
    0.1012   -0.7488    0.0000 C   0  0  0  0  0  0  0  0  0
    0.8157   -0.3363    0.0000 C   0  0  0  0  0  0  0  0  0
    3.6736   -0.3363    0.0000 C   0  0  0  0  0  0  0  0  0
    4.3880   -0.7488    0.0000 C   0  0  0  0  0  0  0  0  0
    4.3880   -1.5738    0.0000 C   0  0  0  0  0  0  0  0  0
    3.6736   -1.9863    0.0000 C   0  0  0  0  0  0  0  0  0
  1  2  1  0  0  0  0
  2  3  1  0  0  0  0
  3  4  1  0  0  0  0
  4  5  1  0  0  0  0
  5  6  1  0  0  0  0
  5 10  1  0  0  0  0
  6  7  4  0  0  0  0
  6 18  4  0  0  0  0
  7  8  1  0  0  0  0
  7 15  4  0  0  0  0
  8  9  1  0  0  0  0
  9 10  4  0  0  0  0
  9 14  4  0  0  0  0
 10 11  4  0  0  0  0
 11 12  4  0  0  0  0
 12 13  4  0  0  0  0
 13 14  4  0  0  0  0
 15 16  4  0  0  0  0
 16 17  4  0  0  0  0
 17 18  4  0  0  0  0
M  END
>  <Name_Molregno>
264711

>  <5-HT2A>
7.49

>  <HISTAMINE H1>
6.76

$$$$
264763
  Marvin  02231216192D 0   1.00000     0.00000     0

 18 20  0  0  0  0  0  0  0  0999 V2000
    1.8112   -0.5279    0.0000 N   0  0  0  0  0  0  0  0  0
    1.0967   -0.1154    0.0000 C   0  0  0  0  0  0  0  0  0
    1.0967    0.7096    0.0000 C   0  0  0  0  0  0  0  0  0
    1.8112    1.1221    0.0000 C   0  0  0  0  0  0  0  0  0
    1.8112    1.9471    0.0000 C   0  0  0  0  0  0  0  0  0
    1.0967    2.3596    0.0000 C   0  0  0  0  0  0  0  0  0
    0.3822    1.9471    0.0000 C   0  0  0  0  0  0  0  0  0
    0.3822    1.1221    0.0000 C   0  0  0  0  0  0  0  0  0
   -0.3322    0.7096    0.0000 C   0  0  0  0  0  0  0  0  0
   -1.0467    1.1221    0.0000 C   0  0  0  0  0  0  0  0  0
   -1.0467    1.9471    0.0000 C   0  0  0  0  0  0  0  0  0
   -0.3322    2.3596    0.0000 C   0  0  0  0  0  0  0  0  0
    2.5256    2.3596    0.0000 C   0  0  0  0  0  0  0  0  0
    3.2401    1.9471    0.0000 C   0  0  0  0  0  0  0  0  0
    3.2401    1.1221    0.0000 C   0  0  0  0  0  0  0  0  0
    2.5256    0.7096    0.0000 C   0  0  0  0  0  0  0  0  0
    1.8112   -1.3529    0.0000 C   0  0  0  0  0  0  0  0  0
    2.5256   -0.1154    0.0000 C   0  0  0  0  0  0  0  0  0
  1  2  1  0  0  0  0
  1 17  1  0  0  0  0
  1 18  1  0  0  0  0
  2  3  1  0  0  0  0
  3  4  1  0  0  0  0
  3  8  1  0  0  0  0
  4  5  4  0  0  0  0
  4 16  4  0  0  0  0
  5  6  1  0  0  0  0
  5 13  4  0  0  0  0
  6  7  1  0  0  0  0
  7  8  4  0  0  0  0
  7 12  4  0  0  0  0
  8  9  4  0  0  0  0
  9 10  4  0  0  0  0
 10 11  4  0  0  0  0
 11 12  4  0  0  0  0
 13 14  4  0  0  0  0
 14 15  4  0  0  0  0
 15 16  4  0  0  0  0
M  END
>  <Name_Molregno>
264763

>  <5-HT2A>
6.27

>  <HISTAMINE H1>
7.6

$$$$
265452
  Marvin  02231216192D 0   1.00000     0.00000     0

 20 22  0  0  0  0  0  0  0  0999 V2000
   -0.5462   -1.7940    0.0000 N   0  0  0  0  0  0  0  0  0
    0.1683   -2.2065    0.0000 C   0  0  0  0  0  0  0  0  0
    0.8827   -1.7940    0.0000 C   0  0  0  0  0  0  0  0  0
    1.5972   -2.2065    0.0000 C   0  0  0  0  0  0  0  0  0
    2.3117   -1.7940    0.0000 C   0  0  0  0  0  0  0  0  0
    3.0261   -2.2065    0.0000 C   0  0  0  0  0  0  0  0  0
    3.7406   -1.7940    0.0000 C   0  0  0  0  0  0  0  0  0
    3.7406   -0.9690    0.0000 C   0  0  0  0  0  0  0  0  0
    3.0261   -0.5565    0.0000 C   0  0  0  0  0  0  0  0  0
    2.3117   -0.9690    0.0000 C   0  0  0  0  0  0  0  0  0
    1.5972   -0.5565    0.0000 C   0  0  0  0  0  0  0  0  0
    1.5972    0.2685    0.0000 C   0  0  0  0  0  0  0  0  0
    2.3117    0.6810    0.0000 C   0  0  0  0  0  0  0  0  0
    3.0261    0.2685    0.0000 C   0  0  0  0  0  0  0  0  0
    4.4551   -2.2065    0.0000 C   0  0  0  0  0  0  0  0  0
    4.4551   -3.0315    0.0000 C   0  0  0  0  0  0  0  0  0
    3.7406   -3.4440    0.0000 C   0  0  0  0  0  0  0  0  0
    3.0261   -3.0315    0.0000 C   0  0  0  0  0  0  0  0  0
   -1.2607   -2.2065    0.0000 C   0  0  0  0  0  0  0  0  0
   -0.5462   -0.9690    0.0000 C   0  0  0  0  0  0  0  0  0
  1  2  1  0  0  0  0
  1 19  1  0  0  0  0
  1 20  1  0  0  0  0
  2  3  1  0  0  0  0
  3  4  1  0  0  0  0
  4  5  1  0  0  0  0
  5  6  1  0  0  0  0
  5 10  1  0  0  0  0
  6  7  4  0  0  0  0
  6 18  4  0  0  0  0
  7  8  1  0  0  0  0
  7 15  4  0  0  0  0
  8  9  1  0  0  0  0
  9 10  4  0  0  0  0
  9 14  4  0  0  0  0
 10 11  4  0  0  0  0
 11 12  4  0  0  0  0
 12 13  4  0  0  0  0
 13 14  4  0  0  0  0
 15 16  4  0  0  0  0
 16 17  4  0  0  0  0
 17 18  4  0  0  0  0
M  END
>  <Name_Molregno>
265452

>  <5-HT2A>
7.66

>  <HISTAMINE H1>
9.3

$$$$
296747
  Marvin  02231216192D 0   1.00000     0.00000     0

 36 40  0  0  1  0  0  0  0  0999 V2000
    2.0923    2.6223    0.0000 O   0  0  0  0  0  0  0  0  0
    1.3285    2.9341    0.0000 N   0  0  0  0  0  0  0  0  0
    0.7959    2.3041    0.0000 C   0  0  0  0  0  0  0  0  0
    1.2305    1.6028    0.0000 C   0  0  0  0  0  0  0  0  0
    0.8405    0.8758    0.0000 C   0  0  0  0  0  0  0  0  0
    0.0159    0.8501    0.0000 O   0  0  0  0  0  0  0  0  0
   -0.4187    1.5513    0.0000 C   0  0  0  0  0  0  0  0  0
   -1.2433    1.5255    0.0000 C   0  0  0  0  0  0  0  0  0
   -1.6779    2.2268    0.0000 C   0  0  0  0  0  0  0  0  0
   -2.5025    2.2010    0.0000 O   0  0  0  0  0  0  0  0  0
   -2.9371    2.9023    0.0000 C   0  0  0  0  0  0  0  0  0
   -1.2879    2.9538    0.0000 C   0  0  0  0  0  0  0  0  0
   -1.7225    3.6550    0.0000 O   0  0  0  0  0  0  0  0  0
   -1.3326    4.3820    0.0000 C   0  0  0  0  0  0  0  0  0
   -0.4633    2.9796    0.0000 C   0  0  0  0  0  0  0  0  0
   -0.0287    2.2783    0.0000 C   0  0  0  0  0  0  0  0  0
    2.0317    1.7995    0.0000 C   0  0  0  0  0  0  0  0  0
    2.6617    1.2669    0.0000 C   0  0  0  0  0  0  0  0  0
    2.5155    0.4549    0.0000 N   0  0  0  0  0  0  0  0  0
    3.1455   -0.0777    0.0000 C   0  0  0  0  0  0  0  0  0
    2.9993   -0.8896    0.0000 C   0  0  0  0  0  0  0  0  0
    2.2230   -1.1689    0.0000 N   0  0  0  0  0  0  0  0  0
    1.5930   -0.6363    0.0000 C   0  0  0  0  0  0  0  0  0
    1.7392    0.1756    0.0000 C   0  0  0  0  0  0  0  0  0
    2.0768   -1.9809    0.0000 C   0  0  0  0  0  0  0  0  0
    2.7068   -2.5135    0.0000 C   0  0  0  0  0  0  0  0  0
    2.5606   -3.3254    0.0000 C   0  0  0  0  0  0  0  0  0
    3.1906   -3.8580    0.0000 C   0  0  0  0  0  0  0  0  0
    3.0443   -4.6700    0.0000 C   0  0  0  0  0  0  0  0  0
    2.2681   -4.9493    0.0000 C   0  0  0  0  0  0  0  0  0
    3.6744   -5.2026    0.0000 C   0  0  0  0  0  0  0  0  0
    4.4507   -4.9233    0.0000 C   0  0  0  0  0  0  0  0  0
    5.0807   -5.4559    0.0000 C   0  0  0  0  0  0  0  0  0
    4.9344   -6.2678    0.0000 C   0  0  0  0  0  0  0  0  0
    4.1582   -6.5472    0.0000 C   0  0  0  0  0  0  0  0  0
    3.5281   -6.0145    0.0000 C   0  0  0  0  0  0  0  0  0
  1  2  1  0  0  0  0
  1 17  1  0  0  0  0
  2  3  2  0  0  0  0
  3  4  1  0  0  0  0
  3 16  1  0  0  0  0
  4  5  1  0  0  0  0
  4 17  1  0  0  0  0
  5  6  1  0  0  0  0
  6  7  1  0  0  0  0
  7  8  4  0  0  0  0
  7 16  4  0  0  0  0
  8  9  4  0  0  0  0
  9 10  1  0  0  0  0
  9 12  4  0  0  0  0
 10 11  1  0  0  0  0
 12 13  1  0  0  0  0
 12 15  4  0  0  0  0
 13 14  1  0  0  0  0
 15 16  4  0  0  0  0
 17 18  1  0  0  0  0
 18 19  1  0  0  0  0
 19 20  1  0  0  0  0
 19 24  1  0  0  0  0
 20 21  1  0  0  0  0
 21 22  1  0  0  0  0
 22 23  1  0  0  0  0
 22 25  1  0  0  0  0
 23 24  1  0  0  0  0
 25 26  1  0  0  0  0
 26 27  1  0  0  0  0
 27 28  1  0  0  0  0
 28 29  2  0  0  0  0
 29 30  1  0  0  0  0
 29 31  1  0  0  0  0
 31 32  4  0  0  0  0
 31 36  4  0  0  0  0
 32 33  4  0  0  0  0
 33 34  4  0  0  0  0
 34 35  4  0  0  0  0
 35 36  4  0  0  0  0
M  END
>  <Name_Molregno>
296747

>  <5-HT1A>
6

>  <5-HT2A>
6

>  <5-HT2C>
6

>  <5-HT7>
6

>  <Alpha-2A>
9.19

>  <Alpha-2B>
7.85

>  <Alpha-2C>
9.46

>  <DOPAMINE D3>
6.21

>  <DOPAMINE D4>
6

>  <HISTAMINE H1>
6

>  <Serotonin transporter>
8.18

$$$$
296899
  Marvin  02231216192D 0   1.00000     0.00000     0

 35 39  0  0  1  0  0  0  0  0999 V2000
    2.1989    2.1726    0.0000 O   0  0  0  0  0  0  0  0  0
    1.4352    2.4844    0.0000 N   0  0  0  0  0  0  0  0  0
    0.9025    1.8544    0.0000 C   0  0  0  0  0  0  0  0  0
    1.3371    1.1531    0.0000 C   0  0  0  0  0  0  0  0  0
    0.9472    0.4261    0.0000 C   0  0  0  0  0  0  0  0  0
    0.1226    0.4004    0.0000 O   0  0  0  0  0  0  0  0  0
   -0.3120    1.1016    0.0000 C   0  0  0  0  0  0  0  0  0
   -1.1366    1.0759    0.0000 C   0  0  0  0  0  0  0  0  0
   -1.5713    1.7771    0.0000 C   0  0  0  0  0  0  0  0  0
   -2.3959    1.7513    0.0000 O   0  0  0  0  0  0  0  0  0
   -2.8305    2.4526    0.0000 C   0  0  0  0  0  0  0  0  0
   -1.1813    2.5041    0.0000 C   0  0  0  0  0  0  0  0  0
   -1.6159    3.2053    0.0000 O   0  0  0  0  0  0  0  0  0
   -1.2259    3.9323    0.0000 C   0  0  0  0  0  0  0  0  0
   -0.3567    2.5299    0.0000 C   0  0  0  0  0  0  0  0  0
    0.0779    1.8286    0.0000 C   0  0  0  0  0  0  0  0  0
    2.1384    1.3498    0.0000 C   0  0  0  0  0  0  0  0  0
    2.7684    0.8172    0.0000 C   0  0  0  0  0  0  0  0  0
    2.6222    0.0052    0.0000 N   0  0  0  0  0  0  0  0  0
    3.2522   -0.5274    0.0000 C   0  0  0  0  0  0  0  0  0
    3.1059   -1.3393    0.0000 C   0  0  0  0  0  0  0  0  0
    2.3297   -1.6186    0.0000 N   0  0  0  0  0  0  0  0  0
    1.6996   -1.0860    0.0000 C   0  0  0  0  0  0  0  0  0
    1.8459   -0.2741    0.0000 C   0  0  0  0  0  0  0  0  0
    2.1834   -2.4306    0.0000 C   0  0  0  0  0  0  0  0  0
    1.4071   -2.7099    0.0000 C   0  0  0  0  0  0  0  0  0
    1.2609   -3.5218    0.0000 C   0  0  0  0  0  0  0  0  0
    1.8909   -4.0544    0.0000 C   0  0  0  0  0  0  0  0  0
    2.6672   -3.7751    0.0000 C   0  0  0  0  0  0  0  0  0
    3.2973   -4.3077    0.0000 C   0  0  0  0  0  0  0  0  0
    4.0735   -4.0284    0.0000 C   0  0  0  0  0  0  0  0  0
    4.7036   -4.5610    0.0000 C   0  0  0  0  0  0  0  0  0
    4.5573   -5.3730    0.0000 C   0  0  0  0  0  0  0  0  0
    3.7810   -5.6523    0.0000 C   0  0  0  0  0  0  0  0  0
    3.1510   -5.1197    0.0000 C   0  0  0  0  0  0  0  0  0
  1  2  1  0  0  0  0
  1 17  1  0  0  0  0
  2  3  2  0  0  0  0
  3  4  1  0  0  0  0
  3 16  1  0  0  0  0
  4  5  1  0  0  0  0
  4 17  1  0  0  0  0
  5  6  1  0  0  0  0
  6  7  1  0  0  0  0
  7  8  4  0  0  0  0
  7 16  4  0  0  0  0
  8  9  4  0  0  0  0
  9 10  1  0  0  0  0
  9 12  4  0  0  0  0
 10 11  1  0  0  0  0
 12 13  1  0  0  0  0
 12 15  4  0  0  0  0
 13 14  1  0  0  0  0
 15 16  4  0  0  0  0
 17 18  1  0  0  0  0
 18 19  1  0  0  0  0
 19 20  1  0  0  0  0
 19 24  1  0  0  0  0
 20 21  1  0  0  0  0
 21 22  1  0  0  0  0
 22 23  1  0  0  0  0
 22 25  1  0  0  0  0
 23 24  1  0  0  0  0
 25 26  1  0  0  0  0
 26 27  1  0  0  0  0
 27 28  1  0  0  0  0
 28 29  2  0  0  0  0
 29 30  1  0  0  0  0
 30 31  4  0  0  0  0
 30 35  4  0  0  0  0
 31 32  4  0  0  0  0
 32 33  4  0  0  0  0
 33 34  4  0  0  0  0
 34 35  4  0  0  0  0
M  END
>  <Name_Molregno>
296899

>  <5-HT1A>
6

>  <5-HT2A>
6

>  <5-HT2C>
6

>  <5-HT7>
6

>  <Alpha-2A>
8.59

>  <Alpha-2B>
7.85

>  <Alpha-2C>
8.52

>  <DOPAMINE D3>
6.57

>  <DOPAMINE D4>
6

>  <HISTAMINE H1>
6

>  <Serotonin transporter>
8.5

$$$$
296920
  Marvin  02231216192D 0   1.00000     0.00000     0

 37 42  0  0  1  0  0  0  0  0999 V2000
   -1.2093    0.9861    0.0000 O   0  0  0  0  0  0  0  0  0
   -1.7613    0.3730    0.0000 N   0  0  0  0  0  0  0  0  0
   -1.3488   -0.3415    0.0000 C   0  0  0  0  0  0  0  0  0
   -0.5418   -0.1700    0.0000 C   0  0  0  0  0  0  0  0  0
    0.0102   -0.7830    0.0000 C   0  0  0  0  0  0  0  0  0
   -0.2447   -1.5677    0.0000 O   0  0  0  0  0  0  0  0  0
   -1.0517   -1.7392    0.0000 C   0  0  0  0  0  0  0  0  0
   -1.3066   -2.5238    0.0000 C   0  0  0  0  0  0  0  0  0
   -2.1136   -2.6953    0.0000 C   0  0  0  0  0  0  0  0  0
   -2.3686   -3.4800    0.0000 O   0  0  0  0  0  0  0  0  0
   -3.1755   -3.6515    0.0000 C   0  0  0  0  0  0  0  0  0
   -2.6656   -2.0823    0.0000 C   0  0  0  0  0  0  0  0  0
   -3.4726   -2.2538    0.0000 O   0  0  0  0  0  0  0  0  0
   -4.0247   -1.6407    0.0000 C   0  0  0  0  0  0  0  0  0
   -2.4107   -1.2976    0.0000 C   0  0  0  0  0  0  0  0  0
   -1.6037   -1.1261    0.0000 C   0  0  0  0  0  0  0  0  0
   -0.4556    0.6505    0.0000 C   0  0  0  0  0  0  0  0  0
    0.2589    1.0630    0.0000 C   0  0  0  0  0  0  0  0  0
    0.9734    0.6505    0.0000 N   0  0  0  0  0  0  0  0  0
    1.6878    1.0630    0.0000 C   0  0  0  0  0  0  0  0  0
    2.4023    0.6505    0.0000 C   0  0  0  0  0  0  0  0  0
    2.4023   -0.1745    0.0000 N   0  0  0  0  0  0  0  0  0
    1.6878   -0.5870    0.0000 C   0  0  0  0  0  0  0  0  0
    0.9734   -0.1745    0.0000 C   0  0  0  0  0  0  0  0  0
    3.1168   -0.5870    0.0000 C   0  0  0  0  0  0  0  0  0
    3.8312   -0.1745    0.0000 C   0  0  0  0  0  0  0  0  0
    4.5457   -0.5870    0.0000 C   0  0  0  0  0  0  0  0  0
    5.2602   -0.1745    0.0000 C   0  0  0  0  0  0  0  0  0
    5.9747   -0.5870    0.0000 C   0  0  0  0  0  0  0  0  0
    6.6891   -0.1745    0.0000 C   0  0  0  0  0  0  0  0  0
    6.6891    0.6505    0.0000 C   0  0  0  0  0  0  0  0  0
    5.9747    1.0630    0.0000 C   0  0  0  0  0  0  0  0  0
    5.2602    0.6505    0.0000 C   0  0  0  0  0  0  0  0  0
    7.4036    1.0630    0.0000 C   0  0  0  0  0  0  0  0  0
    8.1181    0.6505    0.0000 C   0  0  0  0  0  0  0  0  0
    8.1181   -0.1745    0.0000 C   0  0  0  0  0  0  0  0  0
    7.4036   -0.5870    0.0000 C   0  0  0  0  0  0  0  0  0
  1  2  1  0  0  0  0
  1 17  1  0  0  0  0
  2  3  2  0  0  0  0
  3  4  1  0  0  0  0
  3 16  1  0  0  0  0
  4  5  1  0  0  0  0
  4 17  1  0  0  0  0
  5  6  1  0  0  0  0
  6  7  1  0  0  0  0
  7  8  4  0  0  0  0
  7 16  4  0  0  0  0
  8  9  4  0  0  0  0
  9 10  1  0  0  0  0
  9 12  4  0  0  0  0
 10 11  1  0  0  0  0
 12 13  1  0  0  0  0
 12 15  4  0  0  0  0
 13 14  1  0  0  0  0
 15 16  4  0  0  0  0
 17 18  1  0  0  0  0
 18 19  1  0  0  0  0
 19 20  1  0  0  0  0
 19 24  1  0  0  0  0
 20 21  1  0  0  0  0
 21 22  1  0  0  0  0
 22 23  1  0  0  0  0
 22 25  1  0  0  0  0
 23 24  1  0  0  0  0
 25 26  1  0  0  0  0
 26 27  1  0  0  0  0
 27 28  1  0  0  0  0
 28 29  4  0  0  0  0
 28 33  4  0  0  0  0
 29 30  4  0  0  0  0
 30 31  4  0  0  0  0
 30 37  4  0  0  0  0
 31 32  4  0  0  0  0
 31 34  4  0  0  0  0
 32 33  4  0  0  0  0
 34 35  4  0  0  0  0
 35 36  4  0  0  0  0
 36 37  4  0  0  0  0
M  END
>  <Name_Molregno>
296920

>  <5-HT1A>
6

>  <5-HT2A>
6

>  <5-HT2C>
6

>  <5-HT7>
6

>  <Alpha-2A>
8.6

>  <Alpha-2B>
7.85

>  <Alpha-2C>
8.81

>  <DOPAMINE D3>
6.97

>  <DOPAMINE D4>
6

>  <HISTAMINE H1>
6.34

>  <Serotonin transporter>
8.77

$$$$
296939
  Marvin  02231216192D 0   1.00000     0.00000     0

 36 40  0  0  1  0  0  0  0  0999 V2000
    1.5477    2.2344    0.0000 O   0  0  0  0  0  0  0  0  0
    0.7839    2.5463    0.0000 N   0  0  0  0  0  0  0  0  0
    0.2513    1.9162    0.0000 C   0  0  0  0  0  0  0  0  0
    0.6859    1.2150    0.0000 C   0  0  0  0  0  0  0  0  0
    0.2959    0.4880    0.0000 C   0  0  0  0  0  0  0  0  0
   -0.5287    0.4622    0.0000 O   0  0  0  0  0  0  0  0  0
   -0.9633    1.1635    0.0000 C   0  0  0  0  0  0  0  0  0
   -1.7879    1.1377    0.0000 C   0  0  0  0  0  0  0  0  0
   -2.2225    1.8389    0.0000 C   0  0  0  0  0  0  0  0  0
   -3.0471    1.8132    0.0000 O   0  0  0  0  0  0  0  0  0
   -3.4817    2.5144    0.0000 C   0  0  0  0  0  0  0  0  0
   -1.8325    2.5659    0.0000 C   0  0  0  0  0  0  0  0  0
   -2.2672    3.2672    0.0000 O   0  0  0  0  0  0  0  0  0
   -1.8772    3.9942    0.0000 C   0  0  0  0  0  0  0  0  0
   -1.0079    2.5917    0.0000 C   0  0  0  0  0  0  0  0  0
   -0.5733    1.8905    0.0000 C   0  0  0  0  0  0  0  0  0
    1.4871    1.4116    0.0000 C   0  0  0  0  0  0  0  0  0
    2.1171    0.8790    0.0000 C   0  0  0  0  0  0  0  0  0
    1.9709    0.0671    0.0000 N   0  0  0  0  0  0  0  0  0
    2.6009   -0.4655    0.0000 C   0  0  0  0  0  0  0  0  0
    2.4547   -1.2775    0.0000 C   0  0  0  0  0  0  0  0  0
    1.6784   -1.5568    0.0000 N   0  0  0  0  0  0  0  0  0
    1.0484   -1.0242    0.0000 C   0  0  0  0  0  0  0  0  0
    1.1946   -0.2122    0.0000 C   0  0  0  0  0  0  0  0  0
    1.5322   -2.3687    0.0000 C   0  0  0  0  0  0  0  0  0
    2.1622   -2.9013    0.0000 C   0  0  0  0  0  0  0  0  0
    2.9385   -2.6220    0.0000 C   0  0  0  0  0  0  0  0  0
    3.5685   -3.1546    0.0000 C   0  0  0  0  0  0  0  0  0
    4.3448   -2.8753    0.0000 C   0  0  0  0  0  0  0  0  0
    4.4910   -2.0634    0.0000 C   0  0  0  0  0  0  0  0  0
    3.8610   -1.5308    0.0000 C   0  0  0  0  0  0  0  0  0
    4.0072   -0.7188    0.0000 C   0  0  0  0  0  0  0  0  0
    4.7835   -0.4395    0.0000 C   0  0  0  0  0  0  0  0  0
    5.4135   -0.9721    0.0000 C   0  0  0  0  0  0  0  0  0
    5.2673   -1.7841    0.0000 C   0  0  0  0  0  0  0  0  0
    3.4223   -3.9666    0.0000 C   0  0  0  0  0  0  0  0  0
  1  2  1  0  0  0  0
  1 17  1  0  0  0  0
  2  3  2  0  0  0  0
  3  4  1  0  0  0  0
  3 16  1  0  0  0  0
  4  5  1  0  0  0  0
  4 17  1  0  0  0  0
  5  6  1  0  0  0  0
  6  7  1  0  0  0  0
  7  8  4  0  0  0  0
  7 16  4  0  0  0  0
  8  9  4  0  0  0  0
  9 10  1  0  0  0  0
  9 12  4  0  0  0  0
 10 11  1  0  0  0  0
 12 13  1  0  0  0  0
 12 15  4  0  0  0  0
 13 14  1  0  0  0  0
 15 16  4  0  0  0  0
 17 18  1  0  0  0  0
 18 19  1  0  0  0  0
 19 20  1  0  0  0  0
 19 24  1  0  0  0  0
 20 21  1  0  0  0  0
 21 22  1  0  0  0  0
 22 23  1  0  0  0  0
 22 25  1  0  0  0  0
 23 24  1  0  0  0  0
 25 26  1  0  0  0  0
 26 27  1  0  0  0  0
 27 28  1  0  0  0  0
 28 29  2  0  0  0  0
 28 36  1  0  0  0  0
 29 30  1  0  0  0  0
 30 31  4  0  0  0  0
 30 35  4  0  0  0  0
 31 32  4  0  0  0  0
 32 33  4  0  0  0  0
 33 34  4  0  0  0  0
 34 35  4  0  0  0  0
M  END
>  <Name_Molregno>
296939

>  <5-HT1A>
6.32

>  <5-HT2A>
6

>  <5-HT2C>
6

>  <5-HT7>
6

>  <Alpha-2A>
9.31

>  <Alpha-2B>
8.52

>  <Alpha-2C>
9.85

>  <DOPAMINE D3>
6.36

>  <DOPAMINE D4>
6

>  <HISTAMINE H1>
6.95

>  <Serotonin transporter>
8.46

$$$$
300586
  Marvin  02231216192D 0   1.00000     0.00000     0

 41 44  0  0  0  0  0  0  0  0999 V2000
    3.8858   -6.9885    0.0000 F   0  0  0  0  0  0  0  0  0
    3.8858   -6.1635    0.0000 C   0  0  0  0  0  0  0  0  0
    3.1713   -5.7510    0.0000 C   0  0  0  0  0  0  0  0  0
    3.1713   -4.9260    0.0000 C   0  0  0  0  0  0  0  0  0
    3.8858   -4.5135    0.0000 C   0  0  0  0  0  0  0  0  0
    4.6002   -4.9260    0.0000 C   0  0  0  0  0  0  0  0  0
    4.6002   -5.7510    0.0000 C   0  0  0  0  0  0  0  0  0
    3.8858   -3.6885    0.0000 C   0  0  0  0  0  0  0  0  0
    4.6002   -3.2760    0.0000 N   0  0  0  0  0  0  0  0  0
    4.6002   -2.4510    0.0000 C   0  0  0  0  0  0  0  0  0
    5.3147   -2.0385    0.0000 C   0  0  0  0  0  0  0  0  0
    6.0292   -2.4510    0.0000 N   0  0  0  0  0  0  0  0  0
    6.0292   -3.2760    0.0000 C   0  0  0  0  0  0  0  0  0
    5.3147   -3.6885    0.0000 C   0  0  0  0  0  0  0  0  0
    6.7436   -2.0385    0.0000 C   0  0  0  0  0  0  0  0  0
    7.4581   -2.4510    0.0000 C   0  0  0  0  0  0  0  0  0
    8.1726   -2.0385    0.0000 C   0  0  0  0  0  0  0  0  0
    8.8871   -2.4510    0.0000 C   0  0  0  0  0  0  0  0  0
    9.6015   -2.0385    0.0000 O   0  0  0  0  0  0  0  0  0
    9.6015   -1.2135    0.0000 C   0  0  0  0  0  0  0  0  0
    8.8871   -0.8010    0.0000 C   0  0  0  0  0  0  0  0  0
    8.8871    0.0240    0.0000 C   0  0  0  0  0  0  0  0  0
    9.6015    0.4365    0.0000 C   0  0  0  0  0  0  0  0  0
   10.3160    0.0240    0.0000 C   0  0  0  0  0  0  0  0  0
   10.3160   -0.8010    0.0000 C   0  0  0  0  0  0  0  0  0
    9.6015    1.2615    0.0000 C   0  0  0  0  0  0  0  0  0
    9.6015    2.0865    0.0000 C   0  0  0  0  0  0  0  0  0
    9.6015    2.9115    0.0000 C   0  0  0  0  0  0  0  0  0
   10.3160    3.3240    0.0000 C   0  0  0  0  0  0  0  0  0
   10.3160    4.1490    0.0000 N   0  0  0  0  0  0  0  0  0
    9.6015    4.5615    0.0000 O   0  0  0  0  0  0  0  0  0
   11.0305    4.5615    0.0000 C   0  0  0  0  0  0  0  0  0
   11.0305    5.3865    0.0000 O   0  0  0  0  0  0  0  0  0
   11.7449    4.1490    0.0000 N   0  0  0  0  0  0  0  0  0
    3.1713   -3.2760    0.0000 C   0  0  0  0  0  0  0  0  0
    2.4568   -3.6885    0.0000 C   0  0  0  0  0  0  0  0  0
    1.7423   -3.2760    0.0000 C   0  0  0  0  0  0  0  0  0
    1.7423   -2.4510    0.0000 C   0  0  0  0  0  0  0  0  0
    1.0279   -2.0385    0.0000 F   0  0  0  0  0  0  0  0  0
    2.4568   -2.0385    0.0000 C   0  0  0  0  0  0  0  0  0
    3.1713   -2.4510    0.0000 C   0  0  0  0  0  0  0  0  0
  1  2  1  0  0  0  0
  2  3  4  0  0  0  0
  2  7  4  0  0  0  0
  3  4  4  0  0  0  0
  4  5  4  0  0  0  0
  5  6  4  0  0  0  0
  5  8  1  0  0  0  0
  6  7  4  0  0  0  0
  8  9  1  0  0  0  0
  8 35  1  0  0  0  0
  9 10  1  0  0  0  0
  9 14  1  0  0  0  0
 10 11  1  0  0  0  0
 11 12  1  0  0  0  0
 12 13  1  0  0  0  0
 12 15  1  0  0  0  0
 13 14  1  0  0  0  0
 15 16  1  0  0  0  0
 16 17  1  0  0  0  0
 17 18  1  0  0  0  0
 18 19  1  0  0  0  0
 19 20  1  0  0  0  0
 20 21  4  0  0  0  0
 20 25  4  0  0  0  0
 21 22  4  0  0  0  0
 22 23  4  0  0  0  0
 23 24  4  0  0  0  0
 23 26  1  0  0  0  0
 24 25  4  0  0  0  0
 26 27  3  0  0  0  0
 27 28  1  0  0  0  0
 28 29  1  0  0  0  0
 29 30  1  0  0  0  0
 30 31  1  0  0  0  0
 30 32  1  0  0  0  0
 32 33  2  0  0  0  0
 32 34  1  0  0  0  0
 35 36  4  0  0  0  0
 35 41  4  0  0  0  0
 36 37  4  0  0  0  0
 37 38  4  0  0  0  0
 38 39  1  0  0  0  0
 38 40  4  0  0  0  0
 40 41  4  0  0  0  0
M  END
>  <Name_Molregno>
300586

>  <HISTAMINE H1>
8.01

$$$$
300587
  Marvin  02231216192D 0   1.00000     0.00000     0

 43 46  0  0  0  0  0  0  0  0999 V2000
    7.5460   -6.6019    0.0000 F   0  0  0  0  0  0  0  0  0
    6.8316   -6.1894    0.0000 C   0  0  0  0  0  0  0  0  0
    6.1171   -6.6019    0.0000 C   0  0  0  0  0  0  0  0  0
    5.4026   -6.1894    0.0000 C   0  0  0  0  0  0  0  0  0
    5.4026   -5.3644    0.0000 C   0  0  0  0  0  0  0  0  0
    6.1171   -4.9519    0.0000 C   0  0  0  0  0  0  0  0  0
    6.8316   -5.3644    0.0000 C   0  0  0  0  0  0  0  0  0
    4.6882   -4.9519    0.0000 C   0  0  0  0  0  0  0  0  0
    4.6882   -4.1269    0.0000 N   0  0  0  0  0  0  0  0  0
    3.9737   -3.7144    0.0000 C   0  0  0  0  0  0  0  0  0
    3.9737   -2.8894    0.0000 C   0  0  0  0  0  0  0  0  0
    4.6882   -2.4769    0.0000 N   0  0  0  0  0  0  0  0  0
    5.4026   -2.8894    0.0000 C   0  0  0  0  0  0  0  0  0
    5.4026   -3.7144    0.0000 C   0  0  0  0  0  0  0  0  0
    4.6882   -1.6519    0.0000 C   0  0  0  0  0  0  0  0  0
    5.4026   -1.2394    0.0000 C   0  0  0  0  0  0  0  0  0
    5.4026   -0.4144    0.0000 C   0  0  0  0  0  0  0  0  0
    6.1171   -0.0019    0.0000 C   0  0  0  0  0  0  0  0  0
    6.1171    0.8231    0.0000 O   0  0  0  0  0  0  0  0  0
    6.8316    1.2356    0.0000 C   0  0  0  0  0  0  0  0  0
    6.8316    2.0606    0.0000 C   0  0  0  0  0  0  0  0  0
    7.5460    2.4731    0.0000 C   0  0  0  0  0  0  0  0  0
    8.2605    2.0606    0.0000 C   0  0  0  0  0  0  0  0  0
    8.2605    1.2356    0.0000 C   0  0  0  0  0  0  0  0  0
    7.5460    0.8231    0.0000 C   0  0  0  0  0  0  0  0  0
    8.9750    2.4731    0.0000 C   0  0  0  0  0  0  0  0  0
    9.6895    2.8856    0.0000 C   0  0  0  0  0  0  0  0  0
   10.4039    3.2981    0.0000 C   0  0  0  0  0  0  0  0  0
   11.1184    2.8856    0.0000 C   0  0  0  0  0  0  0  0  0
   11.8329    3.2981    0.0000 N   0  0  0  0  0  0  0  0  0
   11.8329    4.1231    0.0000 O   0  0  0  0  0  0  0  0  0
   12.5473    2.8856    0.0000 C   0  0  0  0  0  0  0  0  0
   13.2618    3.2981    0.0000 O   0  0  0  0  0  0  0  0  0
   13.9763    2.8856    0.0000 C   0  0  0  0  0  0  0  0  0
   14.6908    3.2981    0.0000 C   0  0  0  0  0  0  0  0  0
   12.5473    2.0606    0.0000 O   0  0  0  0  0  0  0  0  0
    3.9737   -5.3644    0.0000 C   0  0  0  0  0  0  0  0  0
    3.9737   -6.1894    0.0000 C   0  0  0  0  0  0  0  0  0
    3.2592   -6.6019    0.0000 C   0  0  0  0  0  0  0  0  0
    2.5448   -6.1894    0.0000 C   0  0  0  0  0  0  0  0  0
    1.8303   -6.6019    0.0000 F   0  0  0  0  0  0  0  0  0
    2.5448   -5.3644    0.0000 C   0  0  0  0  0  0  0  0  0
    3.2592   -4.9519    0.0000 C   0  0  0  0  0  0  0  0  0
  1  2  1  0  0  0  0
  2  3  4  0  0  0  0
  2  7  4  0  0  0  0
  3  4  4  0  0  0  0
  4  5  4  0  0  0  0
  5  6  4  0  0  0  0
  5  8  1  0  0  0  0
  6  7  4  0  0  0  0
  8  9  1  0  0  0  0
  8 37  1  0  0  0  0
  9 10  1  0  0  0  0
  9 14  1  0  0  0  0
 10 11  1  0  0  0  0
 11 12  1  0  0  0  0
 12 13  1  0  0  0  0
 12 15  1  0  0  0  0
 13 14  1  0  0  0  0
 15 16  1  0  0  0  0
 16 17  1  0  0  0  0
 17 18  1  0  0  0  0
 18 19  1  0  0  0  0
 19 20  1  0  0  0  0
 20 21  4  0  0  0  0
 20 25  4  0  0  0  0
 21 22  4  0  0  0  0
 22 23  4  0  0  0  0
 23 24  4  0  0  0  0
 23 26  1  0  0  0  0
 24 25  4  0  0  0  0
 26 27  3  0  0  0  0
 27 28  1  0  0  0  0
 28 29  1  0  0  0  0
 29 30  1  0  0  0  0
 30 31  1  0  0  0  0
 30 32  1  0  0  0  0
 32 33  1  0  0  0  0
 32 36  2  0  0  0  0
 33 34  1  0  0  0  0
 34 35  1  0  0  0  0
 37 38  4  0  0  0  0
 37 43  4  0  0  0  0
 38 39  4  0  0  0  0
 39 40  4  0  0  0  0
 40 41  1  0  0  0  0
 40 42  4  0  0  0  0
 42 43  4  0  0  0  0
M  END
>  <Name_Molregno>
300587

>  <HISTAMINE H1>
8.23

$$$$
300588
  Marvin  02231216192D 0   1.00000     0.00000     0

 44 47  0  0  0  0  0  0  0  0999 V2000
    7.6112   -6.5850    0.0000 F   0  0  0  0  0  0  0  0  0
    6.8968   -6.1725    0.0000 C   0  0  0  0  0  0  0  0  0
    6.1823   -6.5850    0.0000 C   0  0  0  0  0  0  0  0  0
    5.4678   -6.1725    0.0000 C   0  0  0  0  0  0  0  0  0
    5.4678   -5.3475    0.0000 C   0  0  0  0  0  0  0  0  0
    6.1823   -4.9350    0.0000 C   0  0  0  0  0  0  0  0  0
    6.8968   -5.3475    0.0000 C   0  0  0  0  0  0  0  0  0
    4.7534   -4.9350    0.0000 C   0  0  0  0  0  0  0  0  0
    4.7534   -4.1100    0.0000 N   0  0  0  0  0  0  0  0  0
    4.0389   -3.6975    0.0000 C   0  0  0  0  0  0  0  0  0
    4.0389   -2.8725    0.0000 C   0  0  0  0  0  0  0  0  0
    4.7534   -2.4600    0.0000 N   0  0  0  0  0  0  0  0  0
    5.4678   -2.8725    0.0000 C   0  0  0  0  0  0  0  0  0
    5.4678   -3.6975    0.0000 C   0  0  0  0  0  0  0  0  0
    4.7534   -1.6350    0.0000 C   0  0  0  0  0  0  0  0  0
    5.4678   -1.2225    0.0000 C   0  0  0  0  0  0  0  0  0
    5.4678   -0.3975    0.0000 C   0  0  0  0  0  0  0  0  0
    6.1823    0.0150    0.0000 C   0  0  0  0  0  0  0  0  0
    6.1823    0.8400    0.0000 O   0  0  0  0  0  0  0  0  0
    6.8968    1.2525    0.0000 C   0  0  0  0  0  0  0  0  0
    6.8968    2.0775    0.0000 C   0  0  0  0  0  0  0  0  0
    7.6112    2.4900    0.0000 C   0  0  0  0  0  0  0  0  0
    8.3257    2.0775    0.0000 C   0  0  0  0  0  0  0  0  0
    8.3257    1.2525    0.0000 C   0  0  0  0  0  0  0  0  0
    7.6112    0.8400    0.0000 C   0  0  0  0  0  0  0  0  0
    9.0402    2.4900    0.0000 C   0  0  0  0  0  0  0  0  0
    9.7547    2.9025    0.0000 C   0  0  0  0  0  0  0  0  0
   10.4691    3.3150    0.0000 C   0  0  0  0  0  0  0  0  0
   11.1836    2.9025    0.0000 C   0  0  0  0  0  0  0  0  0
   11.8981    3.3150    0.0000 N   0  0  0  0  0  0  0  0  0
   11.8981    4.1400    0.0000 O   0  0  0  0  0  0  0  0  0
   12.6125    2.9025    0.0000 C   0  0  0  0  0  0  0  0  0
   13.3270    3.3150    0.0000 O   0  0  0  0  0  0  0  0  0
   14.0415    2.9025    0.0000 C   0  0  0  0  0  0  0  0  0
   14.7560    3.3150    0.0000 C   0  0  0  0  0  0  0  0  0
   14.0415    2.0775    0.0000 C   0  0  0  0  0  0  0  0  0
   12.6125    2.0775    0.0000 O   0  0  0  0  0  0  0  0  0
    4.0389   -5.3475    0.0000 C   0  0  0  0  0  0  0  0  0
    4.0389   -6.1725    0.0000 C   0  0  0  0  0  0  0  0  0
    3.3244   -6.5850    0.0000 C   0  0  0  0  0  0  0  0  0
    2.6099   -6.1725    0.0000 C   0  0  0  0  0  0  0  0  0
    1.8955   -6.5850    0.0000 F   0  0  0  0  0  0  0  0  0
    2.6099   -5.3475    0.0000 C   0  0  0  0  0  0  0  0  0
    3.3244   -4.9350    0.0000 C   0  0  0  0  0  0  0  0  0
  1  2  1  0  0  0  0
  2  3  4  0  0  0  0
  2  7  4  0  0  0  0
  3  4  4  0  0  0  0
  4  5  4  0  0  0  0
  5  6  4  0  0  0  0
  5  8  1  0  0  0  0
  6  7  4  0  0  0  0
  8  9  1  0  0  0  0
  8 38  1  0  0  0  0
  9 10  1  0  0  0  0
  9 14  1  0  0  0  0
 10 11  1  0  0  0  0
 11 12  1  0  0  0  0
 12 13  1  0  0  0  0
 12 15  1  0  0  0  0
 13 14  1  0  0  0  0
 15 16  1  0  0  0  0
 16 17  1  0  0  0  0
 17 18  1  0  0  0  0
 18 19  1  0  0  0  0
 19 20  1  0  0  0  0
 20 21  4  0  0  0  0
 20 25  4  0  0  0  0
 21 22  4  0  0  0  0
 22 23  4  0  0  0  0
 23 24  4  0  0  0  0
 23 26  1  0  0  0  0
 24 25  4  0  0  0  0
 26 27  3  0  0  0  0
 27 28  1  0  0  0  0
 28 29  1  0  0  0  0
 29 30  1  0  0  0  0
 30 31  1  0  0  0  0
 30 32  1  0  0  0  0
 32 33  1  0  0  0  0
 32 37  2  0  0  0  0
 33 34  1  0  0  0  0
 34 35  1  0  0  0  0
 34 36  1  0  0  0  0
 38 39  4  0  0  0  0
 38 44  4  0  0  0  0
 39 40  4  0  0  0  0
 40 41  4  0  0  0  0
 41 42  1  0  0  0  0
 41 43  4  0  0  0  0
 43 44  4  0  0  0  0
M  END
>  <Name_Molregno>
300588

>  <HISTAMINE H1>
8.02

$$$$
300589
  Marvin  02231216192D 0   1.00000     0.00000     0

 42 45  0  0  0  0  0  0  0  0999 V2000
    2.6830   -4.8796    0.0000 F   0  0  0  0  0  0  0  0  0
    2.6830   -4.0546    0.0000 C   0  0  0  0  0  0  0  0  0
    1.9685   -3.6421    0.0000 C   0  0  0  0  0  0  0  0  0
    1.9685   -2.8171    0.0000 C   0  0  0  0  0  0  0  0  0
    2.6830   -2.4046    0.0000 C   0  0  0  0  0  0  0  0  0
    3.3974   -2.8171    0.0000 C   0  0  0  0  0  0  0  0  0
    3.3974   -3.6421    0.0000 C   0  0  0  0  0  0  0  0  0
    2.6830   -1.5796    0.0000 C   0  0  0  0  0  0  0  0  0
    3.3974   -1.1671    0.0000 N   0  0  0  0  0  0  0  0  0
    3.3974   -0.3421    0.0000 C   0  0  0  0  0  0  0  0  0
    4.1119    0.0704    0.0000 C   0  0  0  0  0  0  0  0  0
    4.8264   -0.3421    0.0000 N   0  0  0  0  0  0  0  0  0
    4.8264   -1.1671    0.0000 C   0  0  0  0  0  0  0  0  0
    4.1119   -1.5796    0.0000 C   0  0  0  0  0  0  0  0  0
    5.5408    0.0704    0.0000 C   0  0  0  0  0  0  0  0  0
    6.2553   -0.3421    0.0000 C   0  0  0  0  0  0  0  0  0
    6.9698    0.0704    0.0000 C   0  0  0  0  0  0  0  0  0
    7.6843   -0.3421    0.0000 C   0  0  0  0  0  0  0  0  0
    8.3987    0.0704    0.0000 O   0  0  0  0  0  0  0  0  0
    9.1132   -0.3421    0.0000 C   0  0  0  0  0  0  0  0  0
    9.8277    0.0704    0.0000 C   0  0  0  0  0  0  0  0  0
   10.5421   -0.3421    0.0000 C   0  0  0  0  0  0  0  0  0
   10.5421   -1.1671    0.0000 C   0  0  0  0  0  0  0  0  0
    9.8277   -1.5796    0.0000 C   0  0  0  0  0  0  0  0  0
    9.1132   -1.1671    0.0000 C   0  0  0  0  0  0  0  0  0
   11.2566   -1.5796    0.0000 C   0  0  0  0  0  0  0  0  0
   11.9711   -1.9921    0.0000 C   0  0  0  0  0  0  0  0  0
   12.6856   -2.4046    0.0000 C   0  0  0  0  0  0  0  0  0
   13.4000   -1.9921    0.0000 C   0  0  0  0  0  0  0  0  0
   14.1145   -2.4046    0.0000 N   0  0  0  0  0  0  0  0  0
   14.1145   -3.2296    0.0000 O   0  0  0  0  0  0  0  0  0
   14.8290   -1.9921    0.0000 C   0  0  0  0  0  0  0  0  0
   15.5434   -2.4046    0.0000 O   0  0  0  0  0  0  0  0  0
   16.2579   -1.9921    0.0000 C   0  0  0  0  0  0  0  0  0
   14.8290   -1.1671    0.0000 O   0  0  0  0  0  0  0  0  0
    1.9685   -1.1671    0.0000 C   0  0  0  0  0  0  0  0  0
    1.2540   -1.5796    0.0000 C   0  0  0  0  0  0  0  0  0
    0.5395   -1.1671    0.0000 C   0  0  0  0  0  0  0  0  0
    0.5395   -0.3421    0.0000 C   0  0  0  0  0  0  0  0  0
   -0.1749    0.0704    0.0000 F   0  0  0  0  0  0  0  0  0
    1.2540    0.0704    0.0000 C   0  0  0  0  0  0  0  0  0
    1.9685   -0.3421    0.0000 C   0  0  0  0  0  0  0  0  0
  1  2  1  0  0  0  0
  2  3  4  0  0  0  0
  2  7  4  0  0  0  0
  3  4  4  0  0  0  0
  4  5  4  0  0  0  0
  5  6  4  0  0  0  0
  5  8  1  0  0  0  0
  6  7  4  0  0  0  0
  8  9  1  0  0  0  0
  8 36  1  0  0  0  0
  9 10  1  0  0  0  0
  9 14  1  0  0  0  0
 10 11  1  0  0  0  0
 11 12  1  0  0  0  0
 12 13  1  0  0  0  0
 12 15  1  0  0  0  0
 13 14  1  0  0  0  0
 15 16  1  0  0  0  0
 16 17  1  0  0  0  0
 17 18  1  0  0  0  0
 18 19  1  0  0  0  0
 19 20  1  0  0  0  0
 20 21  4  0  0  0  0
 20 25  4  0  0  0  0
 21 22  4  0  0  0  0
 22 23  4  0  0  0  0
 23 24  4  0  0  0  0
 23 26  1  0  0  0  0
 24 25  4  0  0  0  0
 26 27  3  0  0  0  0
 27 28  1  0  0  0  0
 28 29  1  0  0  0  0
 29 30  1  0  0  0  0
 30 31  1  0  0  0  0
 30 32  1  0  0  0  0
 32 33  1  0  0  0  0
 32 35  2  0  0  0  0
 33 34  1  0  0  0  0
 36 37  4  0  0  0  0
 36 42  4  0  0  0  0
 37 38  4  0  0  0  0
 38 39  4  0  0  0  0
 39 40  1  0  0  0  0
 39 41  4  0  0  0  0
 41 42  4  0  0  0  0
M  END
>  <Name_Molregno>
300589

>  <HISTAMINE H1>
8.3

$$$$
300605
  Marvin  02231216192D 0   1.00000     0.00000     0

 45 48  0  0  0  0  0  0  0  0999 V2000
    2.6689   -4.8564    0.0000 F   0  0  0  0  0  0  0  0  0
    2.6689   -4.0314    0.0000 C   0  0  0  0  0  0  0  0  0
    1.9545   -3.6189    0.0000 C   0  0  0  0  0  0  0  0  0
    1.9545   -2.7939    0.0000 C   0  0  0  0  0  0  0  0  0
    2.6689   -2.3814    0.0000 C   0  0  0  0  0  0  0  0  0
    3.3834   -2.7939    0.0000 C   0  0  0  0  0  0  0  0  0
    3.3834   -3.6189    0.0000 C   0  0  0  0  0  0  0  0  0
    2.6689   -1.5564    0.0000 C   0  0  0  0  0  0  0  0  0
    3.3834   -1.1439    0.0000 N   0  0  0  0  0  0  0  0  0
    3.3834   -0.3189    0.0000 C   0  0  0  0  0  0  0  0  0
    4.0979    0.0936    0.0000 C   0  0  0  0  0  0  0  0  0
    4.8123   -0.3189    0.0000 N   0  0  0  0  0  0  0  0  0
    4.8123   -1.1439    0.0000 C   0  0  0  0  0  0  0  0  0
    4.0979   -1.5564    0.0000 C   0  0  0  0  0  0  0  0  0
    5.5268    0.0936    0.0000 C   0  0  0  0  0  0  0  0  0
    6.2413   -0.3189    0.0000 C   0  0  0  0  0  0  0  0  0
    6.9558    0.0936    0.0000 C   0  0  0  0  0  0  0  0  0
    7.6702   -0.3189    0.0000 C   0  0  0  0  0  0  0  0  0
    8.3847    0.0936    0.0000 O   0  0  0  0  0  0  0  0  0
    9.0992   -0.3189    0.0000 C   0  0  0  0  0  0  0  0  0
    9.8136    0.0936    0.0000 C   0  0  0  0  0  0  0  0  0
   10.5281   -0.3189    0.0000 C   0  0  0  0  0  0  0  0  0
   10.5281   -1.1439    0.0000 C   0  0  0  0  0  0  0  0  0
    9.8136   -1.5564    0.0000 C   0  0  0  0  0  0  0  0  0
    9.0992   -1.1439    0.0000 C   0  0  0  0  0  0  0  0  0
   11.2426   -1.5564    0.0000 C   0  0  0  0  0  0  0  0  0
   11.9571   -1.9689    0.0000 C   0  0  0  0  0  0  0  0  0
   12.6715   -2.3814    0.0000 C   0  0  0  0  0  0  0  0  0
   13.3860   -1.9689    0.0000 C   0  0  0  0  0  0  0  0  0
   14.1005   -2.3814    0.0000 N   0  0  0  0  0  0  0  0  0
   14.1005   -3.2064    0.0000 O   0  0  0  0  0  0  0  0  0
   14.8149   -1.9689    0.0000 C   0  0  0  0  0  0  0  0  0
   15.5294   -2.3814    0.0000 O   0  0  0  0  0  0  0  0  0
   16.2439   -1.9689    0.0000 C   0  0  0  0  0  0  0  0  0
   16.9584   -2.3814    0.0000 C   0  0  0  0  0  0  0  0  0
   17.6728   -1.9689    0.0000 C   0  0  0  0  0  0  0  0  0
   16.9584   -3.2064    0.0000 C   0  0  0  0  0  0  0  0  0
   14.8149   -1.1439    0.0000 O   0  0  0  0  0  0  0  0  0
    1.9545   -1.1439    0.0000 C   0  0  0  0  0  0  0  0  0
    1.2400   -1.5564    0.0000 C   0  0  0  0  0  0  0  0  0
    0.5255   -1.1439    0.0000 C   0  0  0  0  0  0  0  0  0
    0.5255   -0.3189    0.0000 C   0  0  0  0  0  0  0  0  0
   -0.1889    0.0936    0.0000 F   0  0  0  0  0  0  0  0  0
    1.2400    0.0936    0.0000 C   0  0  0  0  0  0  0  0  0
    1.9545   -0.3189    0.0000 C   0  0  0  0  0  0  0  0  0
  1  2  1  0  0  0  0
  2  3  4  0  0  0  0
  2  7  4  0  0  0  0
  3  4  4  0  0  0  0
  4  5  4  0  0  0  0
  5  6  4  0  0  0  0
  5  8  1  0  0  0  0
  6  7  4  0  0  0  0
  8  9  1  0  0  0  0
  8 39  1  0  0  0  0
  9 10  1  0  0  0  0
  9 14  1  0  0  0  0
 10 11  1  0  0  0  0
 11 12  1  0  0  0  0
 12 13  1  0  0  0  0
 12 15  1  0  0  0  0
 13 14  1  0  0  0  0
 15 16  1  0  0  0  0
 16 17  1  0  0  0  0
 17 18  1  0  0  0  0
 18 19  1  0  0  0  0
 19 20  1  0  0  0  0
 20 21  4  0  0  0  0
 20 25  4  0  0  0  0
 21 22  4  0  0  0  0
 22 23  4  0  0  0  0
 23 24  4  0  0  0  0
 23 26  1  0  0  0  0
 24 25  4  0  0  0  0
 26 27  3  0  0  0  0
 27 28  1  0  0  0  0
 28 29  1  0  0  0  0
 29 30  1  0  0  0  0
 30 31  1  0  0  0  0
 30 32  1  0  0  0  0
 32 33  1  0  0  0  0
 32 38  2  0  0  0  0
 33 34  1  0  0  0  0
 34 35  1  0  0  0  0
 35 36  1  0  0  0  0
 35 37  1  0  0  0  0
 39 40  4  0  0  0  0
 39 45  4  0  0  0  0
 40 41  4  0  0  0  0
 41 42  4  0  0  0  0
 42 43  1  0  0  0  0
 42 44  4  0  0  0  0
 44 45  4  0  0  0  0
M  END
>  <Name_Molregno>
300605

>  <HISTAMINE H1>
8.12

$$$$
300606
  Marvin  02231216192D 0   1.00000     0.00000     0

 48 52  0  0  0  0  0  0  0  0999 V2000
    2.6299   -4.9596    0.0000 F   0  0  0  0  0  0  0  0  0
    2.6299   -4.1346    0.0000 C   0  0  0  0  0  0  0  0  0
    1.9155   -3.7221    0.0000 C   0  0  0  0  0  0  0  0  0
    1.9155   -2.8971    0.0000 C   0  0  0  0  0  0  0  0  0
    2.6299   -2.4846    0.0000 C   0  0  0  0  0  0  0  0  0
    3.3444   -2.8971    0.0000 C   0  0  0  0  0  0  0  0  0
    3.3444   -3.7221    0.0000 C   0  0  0  0  0  0  0  0  0
    2.6299   -1.6596    0.0000 C   0  0  0  0  0  0  0  0  0
    3.3444   -1.2471    0.0000 N   0  0  0  0  0  0  0  0  0
    3.3444   -0.4221    0.0000 C   0  0  0  0  0  0  0  0  0
    4.0589   -0.0096    0.0000 C   0  0  0  0  0  0  0  0  0
    4.7734   -0.4221    0.0000 N   0  0  0  0  0  0  0  0  0
    4.7734   -1.2471    0.0000 C   0  0  0  0  0  0  0  0  0
    4.0589   -1.6596    0.0000 C   0  0  0  0  0  0  0  0  0
    5.4878   -0.0096    0.0000 C   0  0  0  0  0  0  0  0  0
    6.2023   -0.4221    0.0000 C   0  0  0  0  0  0  0  0  0
    6.9168   -0.0096    0.0000 C   0  0  0  0  0  0  0  0  0
    7.6312   -0.4221    0.0000 C   0  0  0  0  0  0  0  0  0
    8.3457   -0.0096    0.0000 O   0  0  0  0  0  0  0  0  0
    9.0602   -0.4221    0.0000 C   0  0  0  0  0  0  0  0  0
    9.7746   -0.0096    0.0000 C   0  0  0  0  0  0  0  0  0
   10.4891   -0.4221    0.0000 C   0  0  0  0  0  0  0  0  0
   10.4891   -1.2471    0.0000 C   0  0  0  0  0  0  0  0  0
    9.7746   -1.6596    0.0000 C   0  0  0  0  0  0  0  0  0
    9.0602   -1.2471    0.0000 C   0  0  0  0  0  0  0  0  0
   11.2036   -1.6596    0.0000 C   0  0  0  0  0  0  0  0  0
   11.9181   -2.0721    0.0000 C   0  0  0  0  0  0  0  0  0
   12.6325   -2.4846    0.0000 C   0  0  0  0  0  0  0  0  0
   13.3470   -2.0721    0.0000 C   0  0  0  0  0  0  0  0  0
   14.0615   -2.4846    0.0000 N   0  0  0  0  0  0  0  0  0
   14.0615   -3.3096    0.0000 O   0  0  0  0  0  0  0  0  0
   14.7759   -2.0721    0.0000 C   0  0  0  0  0  0  0  0  0
   15.4904   -2.4846    0.0000 O   0  0  0  0  0  0  0  0  0
   16.2049   -2.0721    0.0000 C   0  0  0  0  0  0  0  0  0
   16.9194   -2.4846    0.0000 C   0  0  0  0  0  0  0  0  0
   17.6338   -2.0721    0.0000 C   0  0  0  0  0  0  0  0  0
   18.3483   -2.4846    0.0000 C   0  0  0  0  0  0  0  0  0
   18.3483   -3.3096    0.0000 C   0  0  0  0  0  0  0  0  0
   17.6338   -3.7221    0.0000 C   0  0  0  0  0  0  0  0  0
   16.9194   -3.3096    0.0000 C   0  0  0  0  0  0  0  0  0
   14.7759   -1.2471    0.0000 O   0  0  0  0  0  0  0  0  0
    1.9155   -1.2471    0.0000 C   0  0  0  0  0  0  0  0  0
    1.2010   -1.6596    0.0000 C   0  0  0  0  0  0  0  0  0
    0.4865   -1.2471    0.0000 C   0  0  0  0  0  0  0  0  0
    0.4865   -0.4221    0.0000 C   0  0  0  0  0  0  0  0  0
   -0.2279   -0.0096    0.0000 F   0  0  0  0  0  0  0  0  0
    1.2010   -0.0096    0.0000 C   0  0  0  0  0  0  0  0  0
    1.9155   -0.4221    0.0000 C   0  0  0  0  0  0  0  0  0
  1  2  1  0  0  0  0
  2  3  4  0  0  0  0
  2  7  4  0  0  0  0
  3  4  4  0  0  0  0
  4  5  4  0  0  0  0
  5  6  4  0  0  0  0
  5  8  1  0  0  0  0
  6  7  4  0  0  0  0
  8  9  1  0  0  0  0
  8 42  1  0  0  0  0
  9 10  1  0  0  0  0
  9 14  1  0  0  0  0
 10 11  1  0  0  0  0
 11 12  1  0  0  0  0
 12 13  1  0  0  0  0
 12 15  1  0  0  0  0
 13 14  1  0  0  0  0
 15 16  1  0  0  0  0
 16 17  1  0  0  0  0
 17 18  1  0  0  0  0
 18 19  1  0  0  0  0
 19 20  1  0  0  0  0
 20 21  4  0  0  0  0
 20 25  4  0  0  0  0
 21 22  4  0  0  0  0
 22 23  4  0  0  0  0
 23 24  4  0  0  0  0
 23 26  1  0  0  0  0
 24 25  4  0  0  0  0
 26 27  3  0  0  0  0
 27 28  1  0  0  0  0
 28 29  1  0  0  0  0
 29 30  1  0  0  0  0
 30 31  1  0  0  0  0
 30 32  1  0  0  0  0
 32 33  1  0  0  0  0
 32 41  2  0  0  0  0
 33 34  1  0  0  0  0
 34 35  1  0  0  0  0
 35 36  4  0  0  0  0
 35 40  4  0  0  0  0
 36 37  4  0  0  0  0
 37 38  4  0  0  0  0
 38 39  4  0  0  0  0
 39 40  4  0  0  0  0
 42 43  4  0  0  0  0
 42 48  4  0  0  0  0
 43 44  4  0  0  0  0
 44 45  4  0  0  0  0
 45 46  1  0  0  0  0
 45 47  4  0  0  0  0
 47 48  4  0  0  0  0
M  END
>  <Name_Molregno>
300606

>  <HISTAMINE H1>
7.75

$$$$
310628
  Marvin  02231216192D 0   1.00000     0.00000     0

 38 41  0  0  1  0  0  0  0  0999 V2000
    8.1968    4.0964    0.0000 Cl  0  0  0  0  0  0  0  0  0
    8.1968    3.2714    0.0000 C   0  0  0  0  0  0  0  0  0
    8.9113    2.8589    0.0000 C   0  0  0  0  0  0  0  0  0
    8.9113    2.0339    0.0000 C   0  0  0  0  0  0  0  0  0
    8.1968    1.6214    0.0000 C   0  0  0  0  0  0  0  0  0
    7.4823    2.0339    0.0000 C   0  0  0  0  0  0  0  0  0
    7.4823    2.8589    0.0000 C   0  0  0  0  0  0  0  0  0
    8.1968    0.7964    0.0000 C   0  0  0  0  0  0  0  0  0
    7.4823    0.3839    0.0000 N   0  0  0  0  0  0  0  0  0
    7.4823   -0.4411    0.0000 C   0  0  0  0  0  0  0  0  0
    6.7678   -0.8536    0.0000 C   0  0  0  0  0  0  0  0  0
    6.0534   -0.4411    0.0000 N   0  0  0  0  0  0  0  0  0
    6.0534    0.3839    0.0000 C   0  0  0  0  0  0  0  0  0
    6.7678    0.7964    0.0000 C   0  0  0  0  0  0  0  0  0
    5.3389   -0.8536    0.0000 C   0  0  0  0  0  0  0  0  0
    4.6244   -0.4411    0.0000 C   0  0  0  0  0  0  0  0  0
    3.9100   -0.8536    0.0000 O   0  0  0  0  0  0  0  0  0
    3.9100   -1.6786    0.0000 C   0  0  0  0  0  0  0  0  0
    4.6244   -2.0911    0.0000 C   0  0  0  0  0  0  0  0  0
    4.6244   -2.9161    0.0000 C   0  0  0  0  0  0  0  0  0
    3.9100   -3.3286    0.0000 C   0  0  0  0  0  0  0  0  0
    3.1955   -2.9161    0.0000 C   0  0  0  0  0  0  0  0  0
    3.1955   -2.0911    0.0000 C   0  0  0  0  0  0  0  0  0
    3.9100   -4.1536    0.0000 C   0  0  0  0  0  0  0  0  0
    3.9100   -4.9786    0.0000 C   0  0  0  0  0  0  0  0  0
    3.9100   -5.8036    0.0000 C   0  0  0  0  0  0  0  0  0
    3.1955   -6.2161    0.0000 C   0  0  0  0  0  0  0  0  0
    3.1955   -7.0411    0.0000 N   0  0  0  0  0  0  0  0  0
    3.9100   -7.4536    0.0000 O   0  0  0  0  0  0  0  0  0
    2.4810   -7.4536    0.0000 C   0  0  0  0  0  0  0  0  0
    2.4810   -8.2786    0.0000 O   0  0  0  0  0  0  0  0  0
    1.7665   -7.0411    0.0000 N   0  0  0  0  0  0  0  0  0
    8.9113    0.3839    0.0000 C   0  0  0  0  0  0  0  0  0
    9.6257    0.7964    0.0000 C   0  0  0  0  0  0  0  0  0
   10.3402    0.3839    0.0000 C   0  0  0  0  0  0  0  0  0
   10.3402   -0.4411    0.0000 C   0  0  0  0  0  0  0  0  0
    9.6257   -0.8536    0.0000 C   0  0  0  0  0  0  0  0  0
    8.9113   -0.4411    0.0000 C   0  0  0  0  0  0  0  0  0
  1  2  1  0  0  0  0
  2  3  4  0  0  0  0
  2  7  4  0  0  0  0
  3  4  4  0  0  0  0
  4  5  4  0  0  0  0
  5  6  4  0  0  0  0
  5  8  1  0  0  0  0
  6  7  4  0  0  0  0
  8  9  1  0  0  0  0
  8 33  1  0  0  0  0
  9 10  1  0  0  0  0
  9 14  1  0  0  0  0
 10 11  1  0  0  0  0
 11 12  1  0  0  0  0
 12 13  1  0  0  0  0
 12 15  1  0  0  0  0
 13 14  1  0  0  0  0
 15 16  1  0  0  0  0
 16 17  1  0  0  0  0
 17 18  1  0  0  0  0
 18 19  4  0  0  0  0
 18 23  4  0  0  0  0
 19 20  4  0  0  0  0
 20 21  4  0  0  0  0
 21 22  4  0  0  0  0
 21 24  1  0  0  0  0
 22 23  4  0  0  0  0
 24 25  3  0  0  0  0
 25 26  1  0  0  0  0
 26 27  1  0  0  0  0
 27 28  1  0  0  0  0
 28 29  1  0  0  0  0
 28 30  1  0  0  0  0
 30 31  2  0  0  0  0
 30 32  1  0  0  0  0
 33 34  4  0  0  0  0
 33 38  4  0  0  0  0
 34 35  4  0  0  0  0
 35 36  4  0  0  0  0
 36 37  4  0  0  0  0
 37 38  4  0  0  0  0
M  END
>  <Name_Molregno>
310628

>  <HISTAMINE H1>
6.52

$$$$
310677
  Marvin  02231216192D 0   1.00000     0.00000     0

 40 43  0  0  1  0  0  0  0  0999 V2000
    3.8401   -6.9268    0.0000 Cl  0  0  0  0  0  0  0  0  0
    3.8401   -6.1018    0.0000 C   0  0  0  0  0  0  0  0  0
    3.1257   -5.6893    0.0000 C   0  0  0  0  0  0  0  0  0
    3.1257   -4.8643    0.0000 C   0  0  0  0  0  0  0  0  0
    3.8401   -4.4518    0.0000 C   0  0  0  0  0  0  0  0  0
    4.5546   -4.8643    0.0000 C   0  0  0  0  0  0  0  0  0
    4.5546   -5.6893    0.0000 C   0  0  0  0  0  0  0  0  0
    3.8401   -3.6268    0.0000 C   0  0  0  0  0  0  0  0  0
    4.5546   -3.2143    0.0000 N   0  0  0  0  0  0  0  0  0
    4.5546   -2.3893    0.0000 C   0  0  0  0  0  0  0  0  0
    5.2691   -1.9768    0.0000 C   0  0  0  0  0  0  0  0  0
    5.9835   -2.3893    0.0000 N   0  0  0  0  0  0  0  0  0
    5.9835   -3.2143    0.0000 C   0  0  0  0  0  0  0  0  0
    5.2691   -3.6268    0.0000 C   0  0  0  0  0  0  0  0  0
    6.6980   -1.9768    0.0000 C   0  0  0  0  0  0  0  0  0
    7.4125   -2.3893    0.0000 C   0  0  0  0  0  0  0  0  0
    8.1270   -1.9768    0.0000 C   0  0  0  0  0  0  0  0  0
    8.8414   -2.3893    0.0000 C   0  0  0  0  0  0  0  0  0
    9.5559   -1.9768    0.0000 O   0  0  0  0  0  0  0  0  0
    9.5559   -1.1518    0.0000 C   0  0  0  0  0  0  0  0  0
    8.8414   -0.7393    0.0000 C   0  0  0  0  0  0  0  0  0
    8.8414    0.0857    0.0000 C   0  0  0  0  0  0  0  0  0
    9.5559    0.4982    0.0000 C   0  0  0  0  0  0  0  0  0
   10.2704    0.0857    0.0000 C   0  0  0  0  0  0  0  0  0
   10.2704   -0.7393    0.0000 C   0  0  0  0  0  0  0  0  0
    9.5559    1.3232    0.0000 C   0  0  0  0  0  0  0  0  0
    9.5559    2.1482    0.0000 C   0  0  0  0  0  0  0  0  0
    9.5559    2.9732    0.0000 C   0  0  0  0  0  0  0  0  0
   10.2704    3.3857    0.0000 C   0  0  0  0  0  0  0  0  0
   10.2704    4.2107    0.0000 N   0  0  0  0  0  0  0  0  0
    9.5559    4.6232    0.0000 O   0  0  0  0  0  0  0  0  0
   10.9848    4.6232    0.0000 C   0  0  0  0  0  0  0  0  0
   10.9848    5.4482    0.0000 O   0  0  0  0  0  0  0  0  0
   11.6993    4.2107    0.0000 N   0  0  0  0  0  0  0  0  0
    3.1257   -3.2143    0.0000 C   0  0  0  0  0  0  0  0  0
    2.4112   -3.6268    0.0000 C   0  0  0  0  0  0  0  0  0
    1.6967   -3.2143    0.0000 C   0  0  0  0  0  0  0  0  0
    1.6967   -2.3893    0.0000 C   0  0  0  0  0  0  0  0  0
    2.4112   -1.9768    0.0000 C   0  0  0  0  0  0  0  0  0
    3.1257   -2.3893    0.0000 C   0  0  0  0  0  0  0  0  0
  1  2  1  0  0  0  0
  2  3  4  0  0  0  0
  2  7  4  0  0  0  0
  3  4  4  0  0  0  0
  4  5  4  0  0  0  0
  5  6  4  0  0  0  0
  5  8  1  0  0  0  0
  6  7  4  0  0  0  0
  8  9  1  0  0  0  0
  8 35  1  0  0  0  0
  9 10  1  0  0  0  0
  9 14  1  0  0  0  0
 10 11  1  0  0  0  0
 11 12  1  0  0  0  0
 12 13  1  0  0  0  0
 12 15  1  0  0  0  0
 13 14  1  0  0  0  0
 15 16  1  0  0  0  0
 16 17  1  0  0  0  0
 17 18  1  0  0  0  0
 18 19  1  0  0  0  0
 19 20  1  0  0  0  0
 20 21  4  0  0  0  0
 20 25  4  0  0  0  0
 21 22  4  0  0  0  0
 22 23  4  0  0  0  0
 23 24  4  0  0  0  0
 23 26  1  0  0  0  0
 24 25  4  0  0  0  0
 26 27  3  0  0  0  0
 27 28  1  0  0  0  0
 28 29  1  0  0  0  0
 29 30  1  0  0  0  0
 30 31  1  0  0  0  0
 30 32  1  0  0  0  0
 32 33  2  0  0  0  0
 32 34  1  0  0  0  0
 35 36  4  0  0  0  0
 35 40  4  0  0  0  0
 36 37  4  0  0  0  0
 37 38  4  0  0  0  0
 38 39  4  0  0  0  0
 39 40  4  0  0  0  0
M  END
>  <Name_Molregno>
310677

>  <HISTAMINE H1>
7.52

$$$$
310722
  Marvin  02231216192D 0   1.00000     0.00000     0

 40 43  0  0  0  0  0  0  0  0999 V2000
    9.2619    5.0644    0.0000 F   0  0  0  0  0  0  0  0  0
    9.2619    4.2394    0.0000 C   0  0  0  0  0  0  0  0  0
    9.9764    3.8269    0.0000 C   0  0  0  0  0  0  0  0  0
    9.9764    3.0019    0.0000 C   0  0  0  0  0  0  0  0  0
    9.2619    2.5894    0.0000 C   0  0  0  0  0  0  0  0  0
    8.5475    3.0019    0.0000 C   0  0  0  0  0  0  0  0  0
    8.5475    3.8269    0.0000 C   0  0  0  0  0  0  0  0  0
    9.2619    1.7644    0.0000 C   0  0  0  0  0  0  0  0  0
    8.5475    1.3519    0.0000 N   0  0  0  0  0  0  0  0  0
    8.5475    0.5269    0.0000 C   0  0  0  0  0  0  0  0  0
    7.8330    0.1144    0.0000 C   0  0  0  0  0  0  0  0  0
    7.1185    0.5269    0.0000 N   0  0  0  0  0  0  0  0  0
    7.1185    1.3519    0.0000 C   0  0  0  0  0  0  0  0  0
    7.8330    1.7644    0.0000 C   0  0  0  0  0  0  0  0  0
    6.4040    0.1144    0.0000 C   0  0  0  0  0  0  0  0  0
    6.4040   -0.7106    0.0000 C   0  0  0  0  0  0  0  0  0
    5.6896   -1.1231    0.0000 C   0  0  0  0  0  0  0  0  0
    5.6896   -1.9481    0.0000 O   0  0  0  0  0  0  0  0  0
    4.9751   -2.3606    0.0000 C   0  0  0  0  0  0  0  0  0
    4.9751   -3.1856    0.0000 C   0  0  0  0  0  0  0  0  0
    4.2606   -3.5981    0.0000 C   0  0  0  0  0  0  0  0  0
    3.5462   -3.1856    0.0000 C   0  0  0  0  0  0  0  0  0
    3.5462   -2.3606    0.0000 C   0  0  0  0  0  0  0  0  0
    4.2606   -1.9481    0.0000 C   0  0  0  0  0  0  0  0  0
    2.8317   -3.5981    0.0000 C   0  0  0  0  0  0  0  0  0
    2.1172   -4.0106    0.0000 C   0  0  0  0  0  0  0  0  0
    1.4027   -4.4231    0.0000 C   0  0  0  0  0  0  0  0  0
    0.6883   -4.0106    0.0000 C   0  0  0  0  0  0  0  0  0
   -0.0262   -4.4231    0.0000 N   0  0  0  0  0  0  0  0  0
   -0.0262   -5.2481    0.0000 O   0  0  0  0  0  0  0  0  0
   -0.7407   -4.0106    0.0000 C   0  0  0  0  0  0  0  0  0
   -1.4551   -4.4231    0.0000 O   0  0  0  0  0  0  0  0  0
   -0.7407   -3.1856    0.0000 N   0  0  0  0  0  0  0  0  0
    9.9764    1.3519    0.0000 C   0  0  0  0  0  0  0  0  0
   10.6909    1.7644    0.0000 C   0  0  0  0  0  0  0  0  0
   11.4053    1.3519    0.0000 C   0  0  0  0  0  0  0  0  0
   11.4053    0.5269    0.0000 C   0  0  0  0  0  0  0  0  0
   12.1198    0.1144    0.0000 F   0  0  0  0  0  0  0  0  0
   10.6909    0.1144    0.0000 C   0  0  0  0  0  0  0  0  0
    9.9764    0.5269    0.0000 C   0  0  0  0  0  0  0  0  0
  1  2  1  0  0  0  0
  2  3  4  0  0  0  0
  2  7  4  0  0  0  0
  3  4  4  0  0  0  0
  4  5  4  0  0  0  0
  5  6  4  0  0  0  0
  5  8  1  0  0  0  0
  6  7  4  0  0  0  0
  8  9  1  0  0  0  0
  8 34  1  0  0  0  0
  9 10  1  0  0  0  0
  9 14  1  0  0  0  0
 10 11  1  0  0  0  0
 11 12  1  0  0  0  0
 12 13  1  0  0  0  0
 12 15  1  0  0  0  0
 13 14  1  0  0  0  0
 15 16  1  0  0  0  0
 16 17  1  0  0  0  0
 17 18  1  0  0  0  0
 18 19  1  0  0  0  0
 19 20  4  0  0  0  0
 19 24  4  0  0  0  0
 20 21  4  0  0  0  0
 21 22  4  0  0  0  0
 22 23  4  0  0  0  0
 22 25  1  0  0  0  0
 23 24  4  0  0  0  0
 25 26  3  0  0  0  0
 26 27  1  0  0  0  0
 27 28  1  0  0  0  0
 28 29  1  0  0  0  0
 29 30  1  0  0  0  0
 29 31  1  0  0  0  0
 31 32  2  0  0  0  0
 31 33  1  0  0  0  0
 34 35  4  0  0  0  0
 34 40  4  0  0  0  0
 35 36  4  0  0  0  0
 36 37  4  0  0  0  0
 37 38  1  0  0  0  0
 37 39  4  0  0  0  0
 39 40  4  0  0  0  0
M  END
>  <Name_Molregno>
310722

>  <HISTAMINE H1>
6.96

$$$$
310724
  Marvin  02231216192D 0   1.00000     0.00000     0

 39 42  0  0  1  0  0  0  0  0999 V2000
    9.5023    5.2016    0.0000 Cl  0  0  0  0  0  0  0  0  0
    9.5023    4.3766    0.0000 C   0  0  0  0  0  0  0  0  0
   10.2168    3.9641    0.0000 C   0  0  0  0  0  0  0  0  0
   10.2168    3.1391    0.0000 C   0  0  0  0  0  0  0  0  0
    9.5023    2.7266    0.0000 C   0  0  0  0  0  0  0  0  0
    8.7879    3.1391    0.0000 C   0  0  0  0  0  0  0  0  0
    8.7879    3.9641    0.0000 C   0  0  0  0  0  0  0  0  0
    9.5023    1.9016    0.0000 C   0  0  0  0  0  0  0  0  0
    8.7879    1.4891    0.0000 N   0  0  0  0  0  0  0  0  0
    8.7879    0.6641    0.0000 C   0  0  0  0  0  0  0  0  0
    8.0734    0.2516    0.0000 C   0  0  0  0  0  0  0  0  0
    7.3589    0.6641    0.0000 N   0  0  0  0  0  0  0  0  0
    7.3589    1.4891    0.0000 C   0  0  0  0  0  0  0  0  0
    8.0734    1.9016    0.0000 C   0  0  0  0  0  0  0  0  0
    6.6444    0.2516    0.0000 C   0  0  0  0  0  0  0  0  0
    6.6444   -0.5734    0.0000 C   0  0  0  0  0  0  0  0  0
    5.9300   -0.9859    0.0000 C   0  0  0  0  0  0  0  0  0
    5.9300   -1.8109    0.0000 O   0  0  0  0  0  0  0  0  0
    5.2155   -2.2234    0.0000 C   0  0  0  0  0  0  0  0  0
    5.2155   -3.0484    0.0000 C   0  0  0  0  0  0  0  0  0
    4.5010   -3.4609    0.0000 C   0  0  0  0  0  0  0  0  0
    3.7866   -3.0484    0.0000 C   0  0  0  0  0  0  0  0  0
    3.7866   -2.2234    0.0000 C   0  0  0  0  0  0  0  0  0
    4.5010   -1.8109    0.0000 C   0  0  0  0  0  0  0  0  0
    3.0721   -3.4609    0.0000 C   0  0  0  0  0  0  0  0  0
    2.3576   -3.8734    0.0000 C   0  0  0  0  0  0  0  0  0
    1.6431   -4.2859    0.0000 C   0  0  0  0  0  0  0  0  0
    0.9287   -3.8734    0.0000 C   0  0  0  0  0  0  0  0  0
    0.2142   -4.2859    0.0000 N   0  0  0  0  0  0  0  0  0
    0.2142   -5.1109    0.0000 O   0  0  0  0  0  0  0  0  0
   -0.5003   -3.8734    0.0000 C   0  0  0  0  0  0  0  0  0
   -1.2147   -4.2859    0.0000 O   0  0  0  0  0  0  0  0  0
   -0.5003   -3.0484    0.0000 N   0  0  0  0  0  0  0  0  0
   10.2168    1.4891    0.0000 C   0  0  0  0  0  0  0  0  0
   10.9313    1.9016    0.0000 C   0  0  0  0  0  0  0  0  0
   11.6457    1.4891    0.0000 C   0  0  0  0  0  0  0  0  0
   11.6457    0.6641    0.0000 C   0  0  0  0  0  0  0  0  0
   10.9313    0.2516    0.0000 C   0  0  0  0  0  0  0  0  0
   10.2168    0.6641    0.0000 C   0  0  0  0  0  0  0  0  0
  1  2  1  0  0  0  0
  2  3  4  0  0  0  0
  2  7  4  0  0  0  0
  3  4  4  0  0  0  0
  4  5  4  0  0  0  0
  5  6  4  0  0  0  0
  5  8  1  0  0  0  0
  6  7  4  0  0  0  0
  8  9  1  0  0  0  0
  8 34  1  0  0  0  0
  9 10  1  0  0  0  0
  9 14  1  0  0  0  0
 10 11  1  0  0  0  0
 11 12  1  0  0  0  0
 12 13  1  0  0  0  0
 12 15  1  0  0  0  0
 13 14  1  0  0  0  0
 15 16  1  0  0  0  0
 16 17  1  0  0  0  0
 17 18  1  0  0  0  0
 18 19  1  0  0  0  0
 19 20  4  0  0  0  0
 19 24  4  0  0  0  0
 20 21  4  0  0  0  0
 21 22  4  0  0  0  0
 22 23  4  0  0  0  0
 22 25  1  0  0  0  0
 23 24  4  0  0  0  0
 25 26  3  0  0  0  0
 26 27  1  0  0  0  0
 27 28  1  0  0  0  0
 28 29  1  0  0  0  0
 29 30  1  0  0  0  0
 29 31  1  0  0  0  0
 31 32  2  0  0  0  0
 31 33  1  0  0  0  0
 34 35  4  0  0  0  0
 34 39  4  0  0  0  0
 35 36  4  0  0  0  0
 36 37  4  0  0  0  0
 37 38  4  0  0  0  0
 38 39  4  0  0  0  0
M  END
>  <Name_Molregno>
310724

>  <HISTAMINE H1>
8.05

$$$$
310772
  Marvin  02231216192D 0   1.00000     0.00000     0

 39 42  0  0  0  0  0  0  0  0999 V2000
   -1.1992    2.2970    0.0000 F   0  0  0  0  0  0  0  0  0
   -1.1992    1.4720    0.0000 C   0  0  0  0  0  0  0  0  0
   -0.4847    1.0595    0.0000 C   0  0  0  0  0  0  0  0  0
   -0.4847    0.2345    0.0000 C   0  0  0  0  0  0  0  0  0
   -1.1992   -0.1780    0.0000 C   0  0  0  0  0  0  0  0  0
   -1.9137    0.2345    0.0000 C   0  0  0  0  0  0  0  0  0
   -1.9137    1.0595    0.0000 C   0  0  0  0  0  0  0  0  0
   -1.1992   -1.0030    0.0000 C   0  0  0  0  0  0  0  0  0
   -1.9137   -1.4155    0.0000 N   0  0  0  0  0  0  0  0  0
   -1.9137   -2.2405    0.0000 C   0  0  0  0  0  0  0  0  0
   -2.6281   -2.6530    0.0000 C   0  0  0  0  0  0  0  0  0
   -3.3426   -2.2405    0.0000 N   0  0  0  0  0  0  0  0  0
   -3.3426   -1.4155    0.0000 C   0  0  0  0  0  0  0  0  0
   -2.6281   -1.0030    0.0000 C   0  0  0  0  0  0  0  0  0
   -4.0571   -2.6530    0.0000 C   0  0  0  0  0  0  0  0  0
   -4.7715   -2.2405    0.0000 C   0  0  0  0  0  0  0  0  0
   -5.4860   -2.6530    0.0000 O   0  0  0  0  0  0  0  0  0
   -5.4860   -3.4780    0.0000 C   0  0  0  0  0  0  0  0  0
   -4.7715   -3.8905    0.0000 C   0  0  0  0  0  0  0  0  0
   -4.7715   -4.7155    0.0000 C   0  0  0  0  0  0  0  0  0
   -5.4860   -5.1280    0.0000 C   0  0  0  0  0  0  0  0  0
   -6.2005   -4.7155    0.0000 C   0  0  0  0  0  0  0  0  0
   -6.2005   -3.8905    0.0000 C   0  0  0  0  0  0  0  0  0
   -5.4860   -5.9530    0.0000 C   0  0  0  0  0  0  0  0  0
   -5.4860   -6.7780    0.0000 C   0  0  0  0  0  0  0  0  0
   -5.4860   -7.6030    0.0000 C   0  0  0  0  0  0  0  0  0
   -6.2005   -8.0155    0.0000 C   0  0  0  0  0  0  0  0  0
   -6.2005   -8.8405    0.0000 N   0  0  0  0  0  0  0  0  0
   -5.4860   -9.2530    0.0000 O   0  0  0  0  0  0  0  0  0
   -6.9150   -9.2530    0.0000 C   0  0  0  0  0  0  0  0  0
   -6.9150  -10.0780    0.0000 O   0  0  0  0  0  0  0  0  0
   -7.6294   -8.8405    0.0000 N   0  0  0  0  0  0  0  0  0
   -0.4847   -1.4155    0.0000 C   0  0  0  0  0  0  0  0  0
    0.2297   -1.0030    0.0000 C   0  0  0  0  0  0  0  0  0
    0.9442   -1.4155    0.0000 C   0  0  0  0  0  0  0  0  0
    0.9442   -2.2405    0.0000 C   0  0  0  0  0  0  0  0  0
    1.6587   -2.6530    0.0000 F   0  0  0  0  0  0  0  0  0
    0.2297   -2.6530    0.0000 C   0  0  0  0  0  0  0  0  0
   -0.4847   -2.2405    0.0000 C   0  0  0  0  0  0  0  0  0
  1  2  1  0  0  0  0
  2  3  4  0  0  0  0
  2  7  4  0  0  0  0
  3  4  4  0  0  0  0
  4  5  4  0  0  0  0
  5  6  4  0  0  0  0
  5  8  1  0  0  0  0
  6  7  4  0  0  0  0
  8  9  1  0  0  0  0
  8 33  1  0  0  0  0
  9 10  1  0  0  0  0
  9 14  1  0  0  0  0
 10 11  1  0  0  0  0
 11 12  1  0  0  0  0
 12 13  1  0  0  0  0
 12 15  1  0  0  0  0
 13 14  1  0  0  0  0
 15 16  1  0  0  0  0
 16 17  1  0  0  0  0
 17 18  1  0  0  0  0
 18 19  4  0  0  0  0
 18 23  4  0  0  0  0
 19 20  4  0  0  0  0
 20 21  4  0  0  0  0
 21 22  4  0  0  0  0
 21 24  1  0  0  0  0
 22 23  4  0  0  0  0
 24 25  3  0  0  0  0
 25 26  1  0  0  0  0
 26 27  1  0  0  0  0
 27 28  1  0  0  0  0
 28 29  1  0  0  0  0
 28 30  1  0  0  0  0
 30 31  2  0  0  0  0
 30 32  1  0  0  0  0
 33 34  4  0  0  0  0
 33 39  4  0  0  0  0
 34 35  4  0  0  0  0
 35 36  4  0  0  0  0
 36 37  1  0  0  0  0
 36 38  4  0  0  0  0
 38 39  4  0  0  0  0
M  END
>  <Name_Molregno>
310772

>  <HISTAMINE H1>
6.53

$$$$
310785
  Marvin  02231216192D 0   1.00000     0.00000     0

 40 44  0  0  0  0  0  0  0  0999 V2000
    7.9267    4.6102    0.0000 Cl  0  0  0  0  0  0  0  0  0
    7.1384    4.3671    0.0000 C   0  0  0  0  0  0  0  0  0
    6.5336    4.9282    0.0000 C   0  0  0  0  0  0  0  0  0
    5.7453    4.6850    0.0000 C   0  0  0  0  0  0  0  0  0
    5.5617    3.8807    0.0000 C   0  0  0  0  0  0  0  0  0
    6.1665    3.3196    0.0000 C   0  0  0  0  0  0  0  0  0
    6.9548    3.5628    0.0000 C   0  0  0  0  0  0  0  0  0
    4.8184    3.5228    0.0000 C   0  0  0  0  0  0  0  0  0
    4.0751    3.8807    0.0000 C   0  0  0  0  0  0  0  0  0
    3.4703    3.3196    0.0000 N   0  0  0  0  0  0  0  0  0
    2.6820    3.5628    0.0000 C   0  0  0  0  0  0  0  0  0
    2.4984    4.3671    0.0000 C   0  0  0  0  0  0  0  0  0
    3.1032    4.9282    0.0000 C   0  0  0  0  0  0  0  0  0
    3.8915    4.6850    0.0000 C   0  0  0  0  0  0  0  0  0
    4.4059    5.3301    0.0000 C   0  0  0  0  0  0  0  0  0
    5.2309    5.3301    0.0000 C   0  0  0  0  0  0  0  0  0
    4.8184    2.6978    0.0000 C   0  0  0  0  0  0  0  0  0
    5.5329    2.2853    0.0000 C   0  0  0  0  0  0  0  0  0
    5.5329    1.4603    0.0000 C   0  0  0  0  0  0  0  0  0
    4.8184    1.0478    0.0000 N   0  0  0  0  0  0  0  0  0
    4.1039    1.4603    0.0000 C   0  0  0  0  0  0  0  0  0
    4.1039    2.2853    0.0000 C   0  0  0  0  0  0  0  0  0
    4.8184    0.2228    0.0000 C   0  0  0  0  0  0  0  0  0
    4.1039   -0.1897    0.0000 C   0  0  0  0  0  0  0  0  0
    4.1039   -1.0147    0.0000 O   0  0  0  0  0  0  0  0  0
    4.8184   -1.4272    0.0000 C   0  0  0  0  0  0  0  0  0
    5.5329   -1.0147    0.0000 C   0  0  0  0  0  0  0  0  0
    6.2473   -1.4272    0.0000 C   0  0  0  0  0  0  0  0  0
    6.2473   -2.2522    0.0000 C   0  0  0  0  0  0  0  0  0
    5.5329   -2.6647    0.0000 C   0  0  0  0  0  0  0  0  0
    4.8184   -2.2522    0.0000 C   0  0  0  0  0  0  0  0  0
    6.9618   -2.6647    0.0000 C   0  0  0  0  0  0  0  0  0
    7.6763   -3.0772    0.0000 C   0  0  0  0  0  0  0  0  0
    8.3907   -3.4897    0.0000 C   0  0  0  0  0  0  0  0  0
    8.3907   -4.3147    0.0000 C   0  0  0  0  0  0  0  0  0
    9.1052   -4.7272    0.0000 N   0  0  0  0  0  0  0  0  0
    9.8197   -4.3147    0.0000 O   0  0  0  0  0  0  0  0  0
    9.1052   -5.5522    0.0000 C   0  0  0  0  0  0  0  0  0
    9.8197   -5.9647    0.0000 O   0  0  0  0  0  0  0  0  0
    8.3907   -5.9647    0.0000 N   0  0  0  0  0  0  0  0  0
  1  2  1  0  0  0  0
  2  3  4  0  0  0  0
  2  7  4  0  0  0  0
  3  4  4  0  0  0  0
  4  5  4  0  0  0  0
  4 16  1  0  0  0  0
  5  6  4  0  0  0  0
  5  8  1  0  0  0  0
  6  7  4  0  0  0  0
  8  9  1  0  0  0  0
  8 17  2  0  0  0  0
  9 10  4  0  0  0  0
  9 14  4  0  0  0  0
 10 11  4  0  0  0  0
 11 12  4  0  0  0  0
 12 13  4  0  0  0  0
 13 14  4  0  0  0  0
 14 15  1  0  0  0  0
 15 16  1  0  0  0  0
 17 18  1  0  0  0  0
 17 22  1  0  0  0  0
 18 19  1  0  0  0  0
 19 20  1  0  0  0  0
 20 21  1  0  0  0  0
 20 23  1  0  0  0  0
 21 22  1  0  0  0  0
 23 24  1  0  0  0  0
 24 25  1  0  0  0  0
 25 26  1  0  0  0  0
 26 27  4  0  0  0  0
 26 31  4  0  0  0  0
 27 28  4  0  0  0  0
 28 29  4  0  0  0  0
 29 30  4  0  0  0  0
 29 32  1  0  0  0  0
 30 31  4  0  0  0  0
 32 33  3  0  0  0  0
 33 34  1  0  0  0  0
 34 35  1  0  0  0  0
 35 36  1  0  0  0  0
 36 37  1  0  0  0  0
 36 38  1  0  0  0  0
 38 39  2  0  0  0  0
 38 40  1  0  0  0  0
M  END
>  <Name_Molregno>
310785

>  <HISTAMINE H1>
7.72

$$$$
310886
  Marvin  02231216192D 0   1.00000     0.00000     0

 41 45  0  0  0  0  0  0  0  0999 V2000
   -2.7145    2.1631    0.0000 Cl  0  0  0  0  0  0  0  0  0
   -3.5028    1.9199    0.0000 C   0  0  0  0  0  0  0  0  0
   -4.1076    2.4810    0.0000 C   0  0  0  0  0  0  0  0  0
   -4.8960    2.2378    0.0000 C   0  0  0  0  0  0  0  0  0
   -5.0795    1.4335    0.0000 C   0  0  0  0  0  0  0  0  0
   -4.4748    0.8724    0.0000 C   0  0  0  0  0  0  0  0  0
   -3.6864    1.1156    0.0000 C   0  0  0  0  0  0  0  0  0
   -5.8228    1.0756    0.0000 C   0  0  0  0  0  0  0  0  0
   -6.5661    1.4335    0.0000 C   0  0  0  0  0  0  0  0  0
   -7.1709    0.8724    0.0000 N   0  0  0  0  0  0  0  0  0
   -7.9593    1.1156    0.0000 C   0  0  0  0  0  0  0  0  0
   -8.1428    1.9199    0.0000 C   0  0  0  0  0  0  0  0  0
   -7.5381    2.4810    0.0000 C   0  0  0  0  0  0  0  0  0
   -6.7497    2.2378    0.0000 C   0  0  0  0  0  0  0  0  0
   -6.2353    2.8829    0.0000 C   0  0  0  0  0  0  0  0  0
   -5.4103    2.8829    0.0000 C   0  0  0  0  0  0  0  0  0
   -5.8228    0.2506    0.0000 C   0  0  0  0  0  0  0  0  0
   -6.5373   -0.1619    0.0000 C   0  0  0  0  0  0  0  0  0
   -6.5373   -0.9869    0.0000 C   0  0  0  0  0  0  0  0  0
   -5.8228   -1.3994    0.0000 N   0  0  0  0  0  0  0  0  0
   -5.1084   -0.9869    0.0000 C   0  0  0  0  0  0  0  0  0
   -5.1084   -0.1619    0.0000 C   0  0  0  0  0  0  0  0  0
   -5.8228   -2.2244    0.0000 C   0  0  0  0  0  0  0  0  0
   -5.1084   -2.6369    0.0000 C   0  0  0  0  0  0  0  0  0
   -5.1084   -3.4619    0.0000 C   0  0  0  0  0  0  0  0  0
   -4.3939   -3.8744    0.0000 O   0  0  0  0  0  0  0  0  0
   -4.3939   -4.6994    0.0000 C   0  0  0  0  0  0  0  0  0
   -3.6794   -5.1119    0.0000 C   0  0  0  0  0  0  0  0  0
   -3.6794   -5.9369    0.0000 C   0  0  0  0  0  0  0  0  0
   -4.3939   -6.3494    0.0000 C   0  0  0  0  0  0  0  0  0
   -5.1084   -5.9369    0.0000 C   0  0  0  0  0  0  0  0  0
   -5.1084   -5.1119    0.0000 C   0  0  0  0  0  0  0  0  0
   -4.3939   -7.1744    0.0000 C   0  0  0  0  0  0  0  0  0
   -4.3939   -7.9994    0.0000 C   0  0  0  0  0  0  0  0  0
   -4.3939   -8.8244    0.0000 C   0  0  0  0  0  0  0  0  0
   -5.1084   -9.2369    0.0000 C   0  0  0  0  0  0  0  0  0
   -5.1084  -10.0619    0.0000 N   0  0  0  0  0  0  0  0  0
   -4.3939  -10.4744    0.0000 O   0  0  0  0  0  0  0  0  0
   -5.8228  -10.4744    0.0000 C   0  0  0  0  0  0  0  0  0
   -5.8228  -11.2994    0.0000 O   0  0  0  0  0  0  0  0  0
   -6.5373  -10.0619    0.0000 N   0  0  0  0  0  0  0  0  0
  1  2  1  0  0  0  0
  2  3  4  0  0  0  0
  2  7  4  0  0  0  0
  3  4  4  0  0  0  0
  4  5  4  0  0  0  0
  4 16  1  0  0  0  0
  5  6  4  0  0  0  0
  5  8  1  0  0  0  0
  6  7  4  0  0  0  0
  8  9  1  0  0  0  0
  8 17  2  0  0  0  0
  9 10  4  0  0  0  0
  9 14  4  0  0  0  0
 10 11  4  0  0  0  0
 11 12  4  0  0  0  0
 12 13  4  0  0  0  0
 13 14  4  0  0  0  0
 14 15  1  0  0  0  0
 15 16  1  0  0  0  0
 17 18  1  0  0  0  0
 17 22  1  0  0  0  0
 18 19  1  0  0  0  0
 19 20  1  0  0  0  0
 20 21  1  0  0  0  0
 20 23  1  0  0  0  0
 21 22  1  0  0  0  0
 23 24  1  0  0  0  0
 24 25  1  0  0  0  0
 25 26  1  0  0  0  0
 26 27  1  0  0  0  0
 27 28  4  0  0  0  0
 27 32  4  0  0  0  0
 28 29  4  0  0  0  0
 29 30  4  0  0  0  0
 30 31  4  0  0  0  0
 30 33  1  0  0  0  0
 31 32  4  0  0  0  0
 33 34  3  0  0  0  0
 34 35  1  0  0  0  0
 35 36  1  0  0  0  0
 36 37  1  0  0  0  0
 37 38  1  0  0  0  0
 37 39  1  0  0  0  0
 39 40  2  0  0  0  0
 39 41  1  0  0  0  0
M  END
>  <Name_Molregno>
310886

>  <HISTAMINE H1>
7.85

$$$$
310887
  Marvin  02231216192D 0   1.00000     0.00000     0

 42 46  0  0  0  0  0  0  0  0999 V2000
    8.8504    5.1764    0.0000 Cl  0  0  0  0  0  0  0  0  0
    8.0620    4.9333    0.0000 C   0  0  0  0  0  0  0  0  0
    7.4573    5.4944    0.0000 C   0  0  0  0  0  0  0  0  0
    6.6689    5.2512    0.0000 C   0  0  0  0  0  0  0  0  0
    6.4853    4.4469    0.0000 C   0  0  0  0  0  0  0  0  0
    7.0901    3.8858    0.0000 C   0  0  0  0  0  0  0  0  0
    7.8785    4.1289    0.0000 C   0  0  0  0  0  0  0  0  0
    5.7420    4.0890    0.0000 C   0  0  0  0  0  0  0  0  0
    4.9987    4.4469    0.0000 C   0  0  0  0  0  0  0  0  0
    4.3940    3.8858    0.0000 N   0  0  0  0  0  0  0  0  0
    3.6056    4.1289    0.0000 C   0  0  0  0  0  0  0  0  0
    3.4221    4.9333    0.0000 C   0  0  0  0  0  0  0  0  0
    4.0268    5.4944    0.0000 C   0  0  0  0  0  0  0  0  0
    4.8152    5.2512    0.0000 C   0  0  0  0  0  0  0  0  0
    5.3295    5.8962    0.0000 C   0  0  0  0  0  0  0  0  0
    6.1545    5.8962    0.0000 C   0  0  0  0  0  0  0  0  0
    5.7420    3.2640    0.0000 C   0  0  0  0  0  0  0  0  0
    6.4565    2.8515    0.0000 C   0  0  0  0  0  0  0  0  0
    6.4565    2.0265    0.0000 C   0  0  0  0  0  0  0  0  0
    5.7420    1.6140    0.0000 N   0  0  0  0  0  0  0  0  0
    5.0276    2.0265    0.0000 C   0  0  0  0  0  0  0  0  0
    5.0276    2.8515    0.0000 C   0  0  0  0  0  0  0  0  0
    5.7420    0.7890    0.0000 C   0  0  0  0  0  0  0  0  0
    5.0276    0.3765    0.0000 C   0  0  0  0  0  0  0  0  0
    5.0276   -0.4485    0.0000 C   0  0  0  0  0  0  0  0  0
    4.3131   -0.8610    0.0000 C   0  0  0  0  0  0  0  0  0
    4.3131   -1.6860    0.0000 O   0  0  0  0  0  0  0  0  0
    5.0276   -2.0985    0.0000 C   0  0  0  0  0  0  0  0  0
    5.7420   -1.6860    0.0000 C   0  0  0  0  0  0  0  0  0
    6.4565   -2.0985    0.0000 C   0  0  0  0  0  0  0  0  0
    6.4565   -2.9235    0.0000 C   0  0  0  0  0  0  0  0  0
    5.7420   -3.3360    0.0000 C   0  0  0  0  0  0  0  0  0
    5.0276   -2.9235    0.0000 C   0  0  0  0  0  0  0  0  0
    7.1710   -3.3360    0.0000 C   0  0  0  0  0  0  0  0  0
    7.8855   -3.7485    0.0000 C   0  0  0  0  0  0  0  0  0
    8.5999   -4.1610    0.0000 C   0  0  0  0  0  0  0  0  0
    8.5999   -4.9860    0.0000 C   0  0  0  0  0  0  0  0  0
    9.3144   -5.3985    0.0000 N   0  0  0  0  0  0  0  0  0
   10.0289   -4.9860    0.0000 O   0  0  0  0  0  0  0  0  0
    9.3144   -6.2235    0.0000 C   0  0  0  0  0  0  0  0  0
   10.0289   -6.6360    0.0000 O   0  0  0  0  0  0  0  0  0
    8.5999   -6.6360    0.0000 N   0  0  0  0  0  0  0  0  0
  1  2  1  0  0  0  0
  2  3  4  0  0  0  0
  2  7  4  0  0  0  0
  3  4  4  0  0  0  0
  4  5  4  0  0  0  0
  4 16  1  0  0  0  0
  5  6  4  0  0  0  0
  5  8  1  0  0  0  0
  6  7  4  0  0  0  0
  8  9  1  0  0  0  0
  8 17  2  0  0  0  0
  9 10  4  0  0  0  0
  9 14  4  0  0  0  0
 10 11  4  0  0  0  0
 11 12  4  0  0  0  0
 12 13  4  0  0  0  0
 13 14  4  0  0  0  0
 14 15  1  0  0  0  0
 15 16  1  0  0  0  0
 17 18  1  0  0  0  0
 17 22  1  0  0  0  0
 18 19  1  0  0  0  0
 19 20  1  0  0  0  0
 20 21  1  0  0  0  0
 20 23  1  0  0  0  0
 21 22  1  0  0  0  0
 23 24  1  0  0  0  0
 24 25  1  0  0  0  0
 25 26  1  0  0  0  0
 26 27  1  0  0  0  0
 27 28  1  0  0  0  0
 28 29  4  0  0  0  0
 28 33  4  0  0  0  0
 29 30  4  0  0  0  0
 30 31  4  0  0  0  0
 31 32  4  0  0  0  0
 31 34  1  0  0  0  0
 32 33  4  0  0  0  0
 34 35  3  0  0  0  0
 35 36  1  0  0  0  0
 36 37  1  0  0  0  0
 37 38  1  0  0  0  0
 38 39  1  0  0  0  0
 38 40  1  0  0  0  0
 40 41  2  0  0  0  0
 40 42  1  0  0  0  0
M  END
>  <Name_Molregno>
310887

>  <HISTAMINE H1>
7.3

$$$$
323303
  Marvin  02231216192D 0   1.00000     0.00000     0

 26 30  0  0  1  0  0  0  0  0999 V2000
    6.6579   -0.3987    0.0000 N   0  0  0  0  0  0  0  0  0
    6.9801   -1.1582    0.0000 C   0  0  0  0  0  0  0  0  0
    7.1544    0.2601    0.0000 C   0  0  0  0  0  0  0  0  0
    5.8390   -0.2981    0.0000 C   0  0  0  0  0  0  0  0  0
    5.5167    0.4614    0.0000 C   0  0  0  0  0  0  0  0  0
    4.6979    0.5620    0.0000 C   0  0  0  0  0  0  0  0  0
    4.3756    1.3214    0.0000 C   0  0  0  0  0  0  0  0  0
    3.5568    1.4220    0.0000 C   0  0  0  0  0  0  0  0  0
    3.0602    0.7632    0.0000 C   0  0  0  0  0  0  0  0  0
    3.3825    0.0038    0.0000 C   0  0  0  0  0  0  0  0  0
    2.8859   -0.6551    0.0000 C   0  0  0  0  0  0  0  0  0
    2.0671   -0.5544    0.0000 C   0  0  0  0  0  0  0  0  0
    1.7448    0.2050    0.0000 C   0  0  0  0  0  0  0  0  0
    0.9648    0.4737    0.0000 C   0  0  0  0  0  0  0  0  0
    0.9793    1.2985    0.0000 C   0  0  0  0  0  0  0  0  0
    1.7682    1.5397    0.0000 C   0  0  0  0  0  0  0  0  0
    2.2414    0.8638    0.0000 C   0  0  0  0  0  0  0  0  0
    0.4682   -0.1852    0.0000 C   0  0  0  0  0  0  0  0  0
    0.9414   -0.8610    0.0000 N   0  0  0  0  0  0  0  0  0
    1.7303   -0.6199    0.0000 C   0  0  0  0  0  0  0  0  0
    0.6727   -1.6410    0.0000 C   0  0  0  0  0  0  0  0  0
   -0.3566   -0.1707    0.0000 C   0  0  0  0  0  0  0  0  0
    4.2013   -0.0968    0.0000 C   0  0  0  0  0  0  0  0  0
    4.5236   -0.8563    0.0000 C   0  0  0  0  0  0  0  0  0
    5.3425   -0.9569    0.0000 C   0  0  0  0  0  0  0  0  0
    3.7048   -0.7557    0.0000 C   0  0  0  0  0  0  0  0  0
  1  2  1  0  0  0  0
  1  3  1  0  0  0  0
  1  4  1  0  0  0  0
  4  5  1  0  0  0  0
  4 25  1  0  0  0  0
  5  6  1  0  0  0  0
  6  7  2  0  0  0  0
  6 23  1  0  0  0  0
  7  8  1  0  0  0  0
  8  9  1  0  0  0  0
  9 10  1  0  0  0  0
  9 17  1  0  0  0  0
 10 11  1  0  0  0  0
 10 23  1  0  0  0  0
 11 12  1  0  0  0  0
 12 13  1  0  0  0  0
 13 14  1  0  0  0  0
 13 17  1  0  0  0  0
 13 20  1  0  0  0  0
 14 15  1  0  0  0  0
 14 18  1  0  0  0  0
 15 16  1  0  0  0  0
 16 17  1  0  0  0  0
 18 19  1  0  0  0  0
 18 22  1  0  0  0  0
 19 20  1  0  0  0  0
 19 21  1  0  0  0  0
 23 24  1  0  0  0  0
 23 26  1  0  0  0  0
 24 25  1  0  0  0  0
M  END
>  <Name_Molregno>
323303

>  <Alpha-2A>
6.18

>  <Alpha-2C>
7.97

>  <HISTAMINE H1>
5

>  <HISTAMINE H2>
5

>  <HISTAMINE H3>
8.31

>  <HISTAMINE H4>
5

$$$$
323877
  Marvin  02231216192D 0   1.00000     0.00000     0

 23 26  0  0  1  0  0  0  0  0999 V2000
   -0.7165   -2.4653    0.0000 F   0  0  0  0  0  0  0  0  0
    0.0718   -2.7084    0.0000 C   0  0  0  0  0  0  0  0  0
    0.6766   -2.1473    0.0000 C   0  0  0  0  0  0  0  0  0
    1.4649   -2.3905    0.0000 C   0  0  0  0  0  0  0  0  0
    1.9793   -1.7455    0.0000 C   0  0  0  0  0  0  0  0  0
    1.7244   -0.9608    0.0000 O   0  0  0  0  0  0  0  0  0
    2.3918   -0.4759    0.0000 C   0  0  0  0  0  0  0  0  0
    3.0593   -0.9608    0.0000 C   0  0  0  0  0  0  0  0  0
    2.8043   -1.7455    0.0000 C   0  0  0  0  0  0  0  0  0
    3.3187   -2.3905    0.0000 C   0  0  0  0  0  0  0  0  0
    3.1351   -3.1948    0.0000 C   0  0  0  0  0  0  0  0  0
    2.3918   -3.5527    0.0000 O   0  0  0  0  0  0  0  0  0
    1.6485   -3.1948    0.0000 C   0  0  0  0  0  0  0  0  0
    1.0437   -3.7559    0.0000 C   0  0  0  0  0  0  0  0  0
    0.2554   -3.5128    0.0000 C   0  0  0  0  0  0  0  0  0
    3.7399   -3.7559    0.0000 C   0  0  0  0  0  0  0  0  0
    4.5282   -3.5128    0.0000 C   0  0  0  0  0  0  0  0  0
    4.7118   -2.7084    0.0000 C   0  0  0  0  0  0  0  0  0
    4.1070   -2.1473    0.0000 C   0  0  0  0  0  0  0  0  0
    2.3918    0.3491    0.0000 C   0  0  0  0  0  0  0  0  0
    3.1063    0.7616    0.0000 N   0  0  0  0  0  0  0  0  0
    3.1063    1.5866    0.0000 C   0  0  0  0  0  0  0  0  0
    3.8208    0.3491    0.0000 C   0  0  0  0  0  0  0  0  0
  1  2  1  0  0  0  0
  2  3  4  0  0  0  0
  2 15  4  0  0  0  0
  3  4  4  0  0  0  0
  4  5  1  0  0  0  0
  4 13  4  0  0  0  0
  5  6  1  0  0  0  0
  5  9  1  0  0  0  0
  6  7  1  0  0  0  0
  7  8  1  0  0  0  0
  7 20  1  0  0  0  0
  8  9  1  0  0  0  0
  9 10  1  0  0  0  0
 10 11  4  0  0  0  0
 10 19  4  0  0  0  0
 11 12  1  0  0  0  0
 11 16  4  0  0  0  0
 12 13  1  0  0  0  0
 13 14  4  0  0  0  0
 14 15  4  0  0  0  0
 16 17  4  0  0  0  0
 17 18  4  0  0  0  0
 18 19  4  0  0  0  0
 20 21  1  0  0  0  0
 21 22  1  0  0  0  0
 21 23  1  0  0  0  0
M  END
>  <Name_Molregno>
323877

>  <5-HT2A>
5.97

>  <5-HT2C>
7.77

>  <5-HT7>
7.17

>  <Alpha-2A>
6.59

>  <Alpha-2C>
6.68

>  <DOPAMINE D2>
7.1

>  <DOPAMINE D3>
7.02

>  <HISTAMINE H1>
7.8

$$$$
323878
  Marvin  02231216192D 0   1.00000     0.00000     0

 23 26  0  0  1  0  0  0  0  0999 V2000
   -0.7165   -2.4653    0.0000 Cl  0  0  0  0  0  0  0  0  0
    0.0718   -2.7084    0.0000 C   0  0  0  0  0  0  0  0  0
    0.6766   -2.1473    0.0000 C   0  0  0  0  0  0  0  0  0
    1.4649   -2.3905    0.0000 C   0  0  0  0  0  0  0  0  0
    1.9793   -1.7455    0.0000 C   0  0  0  0  0  0  0  0  0
    1.7244   -0.9608    0.0000 O   0  0  0  0  0  0  0  0  0
    2.3918   -0.4759    0.0000 C   0  0  0  0  0  0  0  0  0
    3.0593   -0.9608    0.0000 C   0  0  0  0  0  0  0  0  0
    2.8043   -1.7455    0.0000 C   0  0  0  0  0  0  0  0  0
    3.3187   -2.3905    0.0000 C   0  0  0  0  0  0  0  0  0
    3.1351   -3.1948    0.0000 C   0  0  0  0  0  0  0  0  0
    2.3918   -3.5527    0.0000 O   0  0  0  0  0  0  0  0  0
    1.6485   -3.1948    0.0000 C   0  0  0  0  0  0  0  0  0
    1.0437   -3.7559    0.0000 C   0  0  0  0  0  0  0  0  0
    0.2554   -3.5128    0.0000 C   0  0  0  0  0  0  0  0  0
    3.7399   -3.7559    0.0000 C   0  0  0  0  0  0  0  0  0
    4.5282   -3.5128    0.0000 C   0  0  0  0  0  0  0  0  0
    4.7118   -2.7084    0.0000 C   0  0  0  0  0  0  0  0  0
    4.1070   -2.1473    0.0000 C   0  0  0  0  0  0  0  0  0
    2.3918    0.3491    0.0000 C   0  0  0  0  0  0  0  0  0
    3.1063    0.7616    0.0000 N   0  0  0  0  0  0  0  0  0
    3.1063    1.5866    0.0000 C   0  0  0  0  0  0  0  0  0
    3.8208    0.3491    0.0000 C   0  0  0  0  0  0  0  0  0
  1  2  1  0  0  0  0
  2  3  4  0  0  0  0
  2 15  4  0  0  0  0
  3  4  4  0  0  0  0
  4  5  1  0  0  0  0
  4 13  4  0  0  0  0
  5  6  1  0  0  0  0
  5  9  1  0  0  0  0
  6  7  1  0  0  0  0
  7  8  1  0  0  0  0
  7 20  1  0  0  0  0
  8  9  1  0  0  0  0
  9 10  1  0  0  0  0
 10 11  4  0  0  0  0
 10 19  4  0  0  0  0
 11 12  1  0  0  0  0
 11 16  4  0  0  0  0
 12 13  1  0  0  0  0
 13 14  4  0  0  0  0
 14 15  4  0  0  0  0
 16 17  4  0  0  0  0
 17 18  4  0  0  0  0
 18 19  4  0  0  0  0
 20 21  1  0  0  0  0
 21 22  1  0  0  0  0
 21 23  1  0  0  0  0
M  END
>  <Name_Molregno>
323878

>  <5-HT2A>
8.04

>  <5-HT2C>
8.16

>  <5-HT7>
6.82

>  <Alpha-2A>
7.26

>  <Alpha-2C>
6.88

>  <DOPAMINE D1>
6.84

>  <DOPAMINE D2>
7.7

>  <DOPAMINE D3>
6.97

>  <HISTAMINE H1>
8.11

$$$$
323985
  Marvin  02231216192D 0   1.00000     0.00000     0

 23 26  0  0  1  0  0  0  0  0999 V2000
   -0.7165   -2.4653    0.0000 Br  0  0  0  0  0  0  0  0  0
    0.0718   -2.7084    0.0000 C   0  0  0  0  0  0  0  0  0
    0.6766   -2.1473    0.0000 C   0  0  0  0  0  0  0  0  0
    1.4649   -2.3905    0.0000 C   0  0  0  0  0  0  0  0  0
    1.9793   -1.7455    0.0000 C   0  0  0  0  0  0  0  0  0
    1.7244   -0.9608    0.0000 O   0  0  0  0  0  0  0  0  0
    2.3918   -0.4759    0.0000 C   0  0  0  0  0  0  0  0  0
    3.0593   -0.9608    0.0000 C   0  0  0  0  0  0  0  0  0
    2.8043   -1.7455    0.0000 C   0  0  0  0  0  0  0  0  0
    3.3187   -2.3905    0.0000 C   0  0  0  0  0  0  0  0  0
    3.1351   -3.1948    0.0000 C   0  0  0  0  0  0  0  0  0
    2.3918   -3.5527    0.0000 O   0  0  0  0  0  0  0  0  0
    1.6485   -3.1948    0.0000 C   0  0  0  0  0  0  0  0  0
    1.0437   -3.7559    0.0000 C   0  0  0  0  0  0  0  0  0
    0.2554   -3.5128    0.0000 C   0  0  0  0  0  0  0  0  0
    3.7399   -3.7559    0.0000 C   0  0  0  0  0  0  0  0  0
    4.5282   -3.5128    0.0000 C   0  0  0  0  0  0  0  0  0
    4.7118   -2.7084    0.0000 C   0  0  0  0  0  0  0  0  0
    4.1070   -2.1473    0.0000 C   0  0  0  0  0  0  0  0  0
    2.3918    0.3491    0.0000 C   0  0  0  0  0  0  0  0  0
    3.1063    0.7616    0.0000 N   0  0  0  0  0  0  0  0  0
    3.1063    1.5866    0.0000 C   0  0  0  0  0  0  0  0  0
    3.8208    0.3491    0.0000 C   0  0  0  0  0  0  0  0  0
  1  2  1  0  0  0  0
  2  3  4  0  0  0  0
  2 15  4  0  0  0  0
  3  4  4  0  0  0  0
  4  5  1  0  0  0  0
  4 13  4  0  0  0  0
  5  6  1  0  0  0  0
  5  9  1  0  0  0  0
  6  7  1  0  0  0  0
  7  8  1  0  0  0  0
  7 20  1  0  0  0  0
  8  9  1  0  0  0  0
  9 10  1  0  0  0  0
 10 11  4  0  0  0  0
 10 19  4  0  0  0  0
 11 12  1  0  0  0  0
 11 16  4  0  0  0  0
 12 13  1  0  0  0  0
 13 14  4  0  0  0  0
 14 15  4  0  0  0  0
 16 17  4  0  0  0  0
 17 18  4  0  0  0  0
 18 19  4  0  0  0  0
 20 21  1  0  0  0  0
 21 22  1  0  0  0  0
 21 23  1  0  0  0  0
M  END
>  <Name_Molregno>
323985

>  <5-HT2A>
7.74

>  <5-HT2C>
7.78

>  <5-HT7>
7.46

>  <Alpha-2A>
6.39

>  <Alpha-2C>
6.13

>  <DOPAMINE D1>
6.81

>  <DOPAMINE D2>
6.8

>  <DOPAMINE D3>
7.02

>  <HISTAMINE H1>
7.38

$$$$
323986
  Marvin  02231216192D 0   1.00000     0.00000     0

 23 26  0  0  1  0  0  0  0  0999 V2000
    1.2300    2.6153    0.0000 S   0  0  0  0  0  0  0  0  0
    1.9733    2.2574    0.0000 C   0  0  0  0  0  0  0  0  0
    2.1569    1.4530    0.0000 C   0  0  0  0  0  0  0  0  0
    2.9453    1.2099    0.0000 C   0  0  0  0  0  0  0  0  0
    3.5500    1.7710    0.0000 C   0  0  0  0  0  0  0  0  0
    4.3384    1.5278    0.0000 F   0  0  0  0  0  0  0  0  0
    3.3664    2.5753    0.0000 C   0  0  0  0  0  0  0  0  0
    2.5781    2.8185    0.0000 C   0  0  0  0  0  0  0  0  0
    1.6425    0.8080    0.0000 C   0  0  0  0  0  0  0  0  0
    1.8975    0.0234    0.0000 O   0  0  0  0  0  0  0  0  0
    1.2300   -0.4615    0.0000 C   0  0  0  0  0  0  0  0  0
    0.5626    0.0234    0.0000 C   0  0  0  0  0  0  0  0  0
    0.8175    0.8080    0.0000 C   0  0  0  0  0  0  0  0  0
    0.3032    1.4530    0.0000 C   0  0  0  0  0  0  0  0  0
    0.4867    2.2574    0.0000 C   0  0  0  0  0  0  0  0  0
   -0.1180    2.8185    0.0000 C   0  0  0  0  0  0  0  0  0
   -0.9064    2.5753    0.0000 C   0  0  0  0  0  0  0  0  0
   -1.0900    1.7710    0.0000 C   0  0  0  0  0  0  0  0  0
   -0.4852    1.2099    0.0000 C   0  0  0  0  0  0  0  0  0
    1.2300   -1.2865    0.0000 C   0  0  0  0  0  0  0  0  0
    0.5156   -1.6990    0.0000 N   0  0  0  0  0  0  0  0  0
    0.5156   -2.5240    0.0000 C   0  0  0  0  0  0  0  0  0
   -0.1989   -1.2865    0.0000 C   0  0  0  0  0  0  0  0  0
  1  2  1  0  0  0  0
  1 15  1  0  0  0  0
  2  3  4  0  0  0  0
  2  8  4  0  0  0  0
  3  4  4  0  0  0  0
  3  9  1  0  0  0  0
  4  5  4  0  0  0  0
  5  6  1  0  0  0  0
  5  7  4  0  0  0  0
  7  8  4  0  0  0  0
  9 10  1  0  0  0  0
  9 13  1  0  0  0  0
 10 11  1  0  0  0  0
 11 12  1  0  0  0  0
 11 20  1  0  0  0  0
 12 13  1  0  0  0  0
 13 14  1  0  0  0  0
 14 15  4  0  0  0  0
 14 19  4  0  0  0  0
 15 16  4  0  0  0  0
 16 17  4  0  0  0  0
 17 18  4  0  0  0  0
 18 19  4  0  0  0  0
 20 21  1  0  0  0  0
 21 22  1  0  0  0  0
 21 23  1  0  0  0  0
M  END
>  <Name_Molregno>
323986

>  <5-HT2A>
8.89

>  <5-HT2C>
9.27

>  <5-HT7>
8.01

>  <Alpha-2A>
7.06

>  <Alpha-2C>
7.13

>  <DOPAMINE D1>
8.04

>  <DOPAMINE D2>
8.31

>  <DOPAMINE D3>
8.14

>  <HISTAMINE H1>
9.07

$$$$
324778
  Marvin  02231216192D 0   1.00000     0.00000     0

 22 25  0  0  1  0  0  0  0  0999 V2000
    0.2576    0.9399    0.0000 O   0  0  0  0  0  0  0  0  0
    0.5126    0.1553    0.0000 C   0  0  0  0  0  0  0  0  0
    1.3376    0.1553    0.0000 C   0  0  0  0  0  0  0  0  0
    1.5925    0.9399    0.0000 C   0  0  0  0  0  0  0  0  0
    0.9251    1.4248    0.0000 C   0  0  0  0  0  0  0  0  0
    0.9251    2.2498    0.0000 C   0  0  0  0  0  0  0  0  0
    1.6395    2.6623    0.0000 N   0  0  0  0  0  0  0  0  0
    1.6395    3.4873    0.0000 C   0  0  0  0  0  0  0  0  0
    2.3540    2.2498    0.0000 C   0  0  0  0  0  0  0  0  0
    1.8519   -0.4897    0.0000 C   0  0  0  0  0  0  0  0  0
    1.6684   -1.2940    0.0000 C   0  0  0  0  0  0  0  0  0
    0.9251   -1.6520    0.0000 C   0  0  0  0  0  0  0  0  0
    0.1818   -1.2940    0.0000 C   0  0  0  0  0  0  0  0  0
   -0.0018   -0.4897    0.0000 C   0  0  0  0  0  0  0  0  0
   -0.7902   -0.2466    0.0000 C   0  0  0  0  0  0  0  0  0
   -1.3949   -0.8077    0.0000 C   0  0  0  0  0  0  0  0  0
   -1.2114   -1.6120    0.0000 C   0  0  0  0  0  0  0  0  0
   -0.4230   -1.8552    0.0000 C   0  0  0  0  0  0  0  0  0
    2.2731   -1.8552    0.0000 C   0  0  0  0  0  0  0  0  0
    3.0615   -1.6120    0.0000 C   0  0  0  0  0  0  0  0  0
    3.2451   -0.8077    0.0000 C   0  0  0  0  0  0  0  0  0
    2.6403   -0.2466    0.0000 C   0  0  0  0  0  0  0  0  0
  1  2  1  0  0  0  0
  1  5  1  0  0  0  0
  2  3  1  0  0  0  0
  2 14  1  0  0  0  0
  3  4  1  0  0  0  0
  3 10  1  0  0  0  0
  4  5  1  0  0  0  0
  5  6  1  0  0  0  0
  6  7  1  0  0  0  0
  7  8  1  0  0  0  0
  7  9  1  0  0  0  0
 10 11  4  0  0  0  0
 10 22  4  0  0  0  0
 11 12  1  0  0  0  0
 11 19  4  0  0  0  0
 12 13  1  0  0  0  0
 13 14  4  0  0  0  0
 13 18  4  0  0  0  0
 14 15  4  0  0  0  0
 15 16  4  0  0  0  0
 16 17  4  0  0  0  0
 17 18  4  0  0  0  0
 19 20  4  0  0  0  0
 20 21  4  0  0  0  0
 21 22  4  0  0  0  0
M  END
>  <Name_Molregno>
324778

>  <5-HT2A>
8.6

>  <5-HT2C>
9.03

>  <5-HT7>
7.89

>  <Alpha-2A>
6.9

>  <Alpha-2C>
7.16

>  <DOPAMINE D1>
7.2

>  <DOPAMINE D2>
7.21

>  <DOPAMINE D3>
7.08

>  <HISTAMINE H1>
9.37

$$$$
327069
  Marvin  02231216192D 0   1.00000     0.00000     0

 31 34  0  0  0  0  0  0  0  0999 V2000
    4.9165    5.1026    0.0000 Cl  0  0  0  0  0  0  0  0  0
    4.9165    4.2776    0.0000 C   0  0  0  0  0  0  0  0  0
    5.6310    3.8651    0.0000 C   0  0  0  0  0  0  0  0  0
    5.6310    3.0401    0.0000 C   0  0  0  0  0  0  0  0  0
    4.9165    2.6276    0.0000 C   0  0  0  0  0  0  0  0  0
    4.9165    1.8026    0.0000 N   0  0  0  0  0  0  0  0  0
    5.6310    1.3901    0.0000 C   0  0  0  0  0  0  0  0  0
    5.6310    0.5651    0.0000 C   0  0  0  0  0  0  0  0  0
    4.9165    0.1526    0.0000 N   0  0  0  0  0  0  0  0  0
    4.2021    0.5651    0.0000 C   0  0  0  0  0  0  0  0  0
    4.2021    1.3901    0.0000 C   0  0  0  0  0  0  0  0  0
    4.9165   -0.6724    0.0000 C   0  0  0  0  0  0  0  0  0
    4.2021   -1.0849    0.0000 O   0  0  0  0  0  0  0  0  0
    5.6310   -1.0849    0.0000 N   0  0  0  0  0  0  0  0  0
    5.6310   -1.9099    0.0000 C   0  0  0  0  0  0  0  0  0
    6.3455   -2.3224    0.0000 C   0  0  0  0  0  0  0  0  0
    6.3455   -3.1474    0.0000 C   0  0  0  0  0  0  0  0  0
    7.0599   -3.5599    0.0000 N   0  0  0  0  0  0  0  0  0
    7.7744   -3.1474    0.0000 C   0  0  0  0  0  0  0  0  0
    8.4889   -3.5599    0.0000 C   0  0  0  0  0  0  0  0  0
    8.4889   -4.3849    0.0000 N   0  0  0  0  0  0  0  0  0
    7.7744   -4.7974    0.0000 C   0  0  0  0  0  0  0  0  0
    7.0599   -4.3849    0.0000 C   0  0  0  0  0  0  0  0  0
    9.2034   -4.7974    0.0000 C   0  0  0  0  0  0  0  0  0
    5.6310   -3.5599    0.0000 C   0  0  0  0  0  0  0  0  0
    5.6310   -4.3849    0.0000 O   0  0  0  0  0  0  0  0  0
    4.9165   -4.7974    0.0000 C   0  0  0  0  0  0  0  0  0
    4.9165   -3.1474    0.0000 C   0  0  0  0  0  0  0  0  0
    4.9165   -2.3224    0.0000 C   0  0  0  0  0  0  0  0  0
    4.2021    3.0401    0.0000 C   0  0  0  0  0  0  0  0  0
    4.2021    3.8651    0.0000 C   0  0  0  0  0  0  0  0  0
  1  2  1  0  0  0  0
  2  3  4  0  0  0  0
  2 31  4  0  0  0  0
  3  4  4  0  0  0  0
  4  5  4  0  0  0  0
  5  6  1  0  0  0  0
  5 30  4  0  0  0  0
  6  7  1  0  0  0  0
  6 11  1  0  0  0  0
  7  8  1  0  0  0  0
  8  9  1  0  0  0  0
  9 10  1  0  0  0  0
  9 12  1  0  0  0  0
 10 11  1  0  0  0  0
 12 13  2  0  0  0  0
 12 14  1  0  0  0  0
 14 15  1  0  0  0  0
 15 16  4  0  0  0  0
 15 29  4  0  0  0  0
 16 17  4  0  0  0  0
 17 18  1  0  0  0  0
 17 25  4  0  0  0  0
 18 19  1  0  0  0  0
 18 23  1  0  0  0  0
 19 20  1  0  0  0  0
 20 21  1  0  0  0  0
 21 22  1  0  0  0  0
 21 24  1  0  0  0  0
 22 23  1  0  0  0  0
 25 26  1  0  0  0  0
 25 28  4  0  0  0  0
 26 27  1  0  0  0  0
 28 29  4  0  0  0  0
 30 31  4  0  0  0  0
M  END
>  <Name_Molregno>
327069

>  <5-HT1A>
7.28

>  <5-HT1B>
8.74

>  <5-HT1D>
8.19

>  <5-HT2A>
6

>  <5-HT2C>
6.57

>  <5-HT6>
5.29

>  <5-HT7>
5

>  <DOPAMINE D1>
5

>  <DOPAMINE D2>
5

>  <DOPAMINE D3>
5

>  <DOPAMINE D4>
5

>  <DOPAMINE D5>
5

>  <HISTAMINE H1>
5

>  <Muscarinic acetylcholine receptor M1>
5

>  <Muscarinic acetylcholine receptor M2>
5

>  <Muscarinic acetylcholine receptor M3>
5

>  <Muscarinic acetylcholine receptor M4>
5

>  <Muscarinic acetylcholine receptor M5>
5

$$$$
327077
  Marvin  02231216192D 0   1.00000     0.00000     0

 31 34  0  0  0  0  0  0  0  0999 V2000
    4.9165    5.1026    0.0000 F   0  0  0  0  0  0  0  0  0
    4.9165    4.2776    0.0000 C   0  0  0  0  0  0  0  0  0
    5.6310    3.8651    0.0000 C   0  0  0  0  0  0  0  0  0
    5.6310    3.0401    0.0000 C   0  0  0  0  0  0  0  0  0
    4.9165    2.6276    0.0000 C   0  0  0  0  0  0  0  0  0
    4.9165    1.8026    0.0000 N   0  0  0  0  0  0  0  0  0
    5.6310    1.3901    0.0000 C   0  0  0  0  0  0  0  0  0
    5.6310    0.5651    0.0000 C   0  0  0  0  0  0  0  0  0
    4.9165    0.1526    0.0000 N   0  0  0  0  0  0  0  0  0
    4.2021    0.5651    0.0000 C   0  0  0  0  0  0  0  0  0
    4.2021    1.3901    0.0000 C   0  0  0  0  0  0  0  0  0
    4.9165   -0.6724    0.0000 C   0  0  0  0  0  0  0  0  0
    4.2021   -1.0849    0.0000 O   0  0  0  0  0  0  0  0  0
    5.6310   -1.0849    0.0000 N   0  0  0  0  0  0  0  0  0
    5.6310   -1.9099    0.0000 C   0  0  0  0  0  0  0  0  0
    6.3455   -2.3224    0.0000 C   0  0  0  0  0  0  0  0  0
    6.3455   -3.1474    0.0000 C   0  0  0  0  0  0  0  0  0
    7.0599   -3.5599    0.0000 N   0  0  0  0  0  0  0  0  0
    7.7744   -3.1474    0.0000 C   0  0  0  0  0  0  0  0  0
    8.4889   -3.5599    0.0000 C   0  0  0  0  0  0  0  0  0
    8.4889   -4.3849    0.0000 N   0  0  0  0  0  0  0  0  0
    7.7744   -4.7974    0.0000 C   0  0  0  0  0  0  0  0  0
    7.0599   -4.3849    0.0000 C   0  0  0  0  0  0  0  0  0
    9.2034   -4.7974    0.0000 C   0  0  0  0  0  0  0  0  0
    5.6310   -3.5599    0.0000 C   0  0  0  0  0  0  0  0  0
    5.6310   -4.3849    0.0000 O   0  0  0  0  0  0  0  0  0
    4.9165   -4.7974    0.0000 C   0  0  0  0  0  0  0  0  0
    4.9165   -3.1474    0.0000 C   0  0  0  0  0  0  0  0  0
    4.9165   -2.3224    0.0000 C   0  0  0  0  0  0  0  0  0
    4.2021    3.0401    0.0000 C   0  0  0  0  0  0  0  0  0
    4.2021    3.8651    0.0000 C   0  0  0  0  0  0  0  0  0
  1  2  1  0  0  0  0
  2  3  4  0  0  0  0
  2 31  4  0  0  0  0
  3  4  4  0  0  0  0
  4  5  4  0  0  0  0
  5  6  1  0  0  0  0
  5 30  4  0  0  0  0
  6  7  1  0  0  0  0
  6 11  1  0  0  0  0
  7  8  1  0  0  0  0
  8  9  1  0  0  0  0
  9 10  1  0  0  0  0
  9 12  1  0  0  0  0
 10 11  1  0  0  0  0
 12 13  2  0  0  0  0
 12 14  1  0  0  0  0
 14 15  1  0  0  0  0
 15 16  4  0  0  0  0
 15 29  4  0  0  0  0
 16 17  4  0  0  0  0
 17 18  1  0  0  0  0
 17 25  4  0  0  0  0
 18 19  1  0  0  0  0
 18 23  1  0  0  0  0
 19 20  1  0  0  0  0
 20 21  1  0  0  0  0
 21 22  1  0  0  0  0
 21 24  1  0  0  0  0
 22 23  1  0  0  0  0
 25 26  1  0  0  0  0
 25 28  4  0  0  0  0
 26 27  1  0  0  0  0
 28 29  4  0  0  0  0
 30 31  4  0  0  0  0
M  END
>  <Name_Molregno>
327077

>  <5-HT1A>
5.97

>  <5-HT1B>
7.42

>  <5-HT1D>
6.77

>  <5-HT2A>
5.35

>  <5-HT2C>
5

>  <5-HT6>
5

>  <5-HT7>
5

>  <DOPAMINE D1>
5

>  <DOPAMINE D2>
5

>  <DOPAMINE D3>
5

>  <DOPAMINE D4>
5

>  <DOPAMINE D5>
5

>  <HISTAMINE H1>
5

>  <Muscarinic acetylcholine receptor M1>
5

>  <Muscarinic acetylcholine receptor M2>
5

>  <Muscarinic acetylcholine receptor M3>
5

>  <Muscarinic acetylcholine receptor M4>
5

>  <Muscarinic acetylcholine receptor M5>
5

$$$$
327082
  Marvin  02231216192D 0   1.00000     0.00000     0

 36 40  0  0  0  0  0  0  0  0999 V2000
   -4.3490    4.5404    0.0000 O   0  0  0  0  0  0  0  0  0
   -5.0635    4.9529    0.0000 C   0  0  0  0  0  0  0  0  0
   -4.3490    3.7154    0.0000 C   0  0  0  0  0  0  0  0  0
   -3.6345    3.3029    0.0000 C   0  0  0  0  0  0  0  0  0
   -3.6345    2.4779    0.0000 C   0  0  0  0  0  0  0  0  0
   -4.3490    2.0654    0.0000 C   0  0  0  0  0  0  0  0  0
   -4.3490    1.2404    0.0000 N   0  0  0  0  0  0  0  0  0
   -3.6345    0.8279    0.0000 C   0  0  0  0  0  0  0  0  0
   -2.9201    1.2404    0.0000 O   0  0  0  0  0  0  0  0  0
   -3.6345    0.0029    0.0000 N   0  0  0  0  0  0  0  0  0
   -2.9201   -0.4096    0.0000 C   0  0  0  0  0  0  0  0  0
   -2.9201   -1.2346    0.0000 C   0  0  0  0  0  0  0  0  0
   -3.6345   -1.6471    0.0000 N   0  0  0  0  0  0  0  0  0
   -4.3490   -1.2346    0.0000 C   0  0  0  0  0  0  0  0  0
   -4.3490   -0.4096    0.0000 C   0  0  0  0  0  0  0  0  0
   -3.6345   -2.4721    0.0000 C   0  0  0  0  0  0  0  0  0
   -2.9201   -2.8846    0.0000 C   0  0  0  0  0  0  0  0  0
   -2.9201   -3.7096    0.0000 C   0  0  0  0  0  0  0  0  0
   -3.6345   -4.1221    0.0000 C   0  0  0  0  0  0  0  0  0
   -4.3490   -3.7096    0.0000 C   0  0  0  0  0  0  0  0  0
   -4.3490   -2.8846    0.0000 C   0  0  0  0  0  0  0  0  0
   -3.6345   -4.9471    0.0000 C   0  0  0  0  0  0  0  0  0
   -2.9201   -5.3596    0.0000 C   0  0  0  0  0  0  0  0  0
   -2.9201   -6.1846    0.0000 C   0  0  0  0  0  0  0  0  0
   -3.6345   -6.5971    0.0000 C   0  0  0  0  0  0  0  0  0
   -4.3490   -6.1846    0.0000 C   0  0  0  0  0  0  0  0  0
   -4.3490   -5.3596    0.0000 C   0  0  0  0  0  0  0  0  0
   -5.0635    2.4779    0.0000 C   0  0  0  0  0  0  0  0  0
   -5.0635    3.3029    0.0000 C   0  0  0  0  0  0  0  0  0
   -5.7779    3.7154    0.0000 N   0  0  0  0  0  0  0  0  0
   -6.4924    3.3029    0.0000 C   0  0  0  0  0  0  0  0  0
   -7.2069    3.7154    0.0000 C   0  0  0  0  0  0  0  0  0
   -7.2069    4.5404    0.0000 N   0  0  0  0  0  0  0  0  0
   -6.4924    4.9529    0.0000 C   0  0  0  0  0  0  0  0  0
   -5.7779    4.5404    0.0000 C   0  0  0  0  0  0  0  0  0
   -7.9214    4.9529    0.0000 C   0  0  0  0  0  0  0  0  0
  1  2  1  0  0  0  0
  1  3  1  0  0  0  0
  3  4  4  0  0  0  0
  3 29  4  0  0  0  0
  4  5  4  0  0  0  0
  5  6  4  0  0  0  0
  6  7  1  0  0  0  0
  6 28  4  0  0  0  0
  7  8  1  0  0  0  0
  8  9  2  0  0  0  0
  8 10  1  0  0  0  0
 10 11  1  0  0  0  0
 10 15  1  0  0  0  0
 11 12  1  0  0  0  0
 12 13  1  0  0  0  0
 13 14  1  0  0  0  0
 13 16  1  0  0  0  0
 14 15  1  0  0  0  0
 16 17  4  0  0  0  0
 16 21  4  0  0  0  0
 17 18  4  0  0  0  0
 18 19  4  0  0  0  0
 19 20  4  0  0  0  0
 19 22  1  0  0  0  0
 20 21  4  0  0  0  0
 22 23  4  0  0  0  0
 22 27  4  0  0  0  0
 23 24  4  0  0  0  0
 24 25  4  0  0  0  0
 25 26  4  0  0  0  0
 26 27  4  0  0  0  0
 28 29  4  0  0  0  0
 29 30  1  0  0  0  0
 30 31  1  0  0  0  0
 30 35  1  0  0  0  0
 31 32  1  0  0  0  0
 32 33  1  0  0  0  0
 33 34  1  0  0  0  0
 33 36  1  0  0  0  0
 34 35  1  0  0  0  0
M  END
>  <Name_Molregno>
327082

>  <5-HT1A>
6.39

>  <5-HT1B>
7.86

>  <5-HT1D>
6.68

>  <5-HT2A>
6.77

>  <5-HT2C>
8.19

>  <5-HT6>
5.84

>  <5-HT7>
5

>  <DOPAMINE D1>
5

>  <DOPAMINE D2>
5

>  <DOPAMINE D3>
5

>  <DOPAMINE D4>
5

>  <DOPAMINE D5>
5

>  <HISTAMINE H1>
5

>  <Muscarinic acetylcholine receptor M1>
5

>  <Muscarinic acetylcholine receptor M2>
5

>  <Muscarinic acetylcholine receptor M3>
5

>  <Muscarinic acetylcholine receptor M4>
5

>  <Muscarinic acetylcholine receptor M5>
5

$$$$
327083
  Marvin  02231216192D 0   1.00000     0.00000     0

 34 37  0  0  0  0  0  0  0  0999 V2000
    5.2566    5.4075    0.0000 F   0  0  0  0  0  0  0  0  0
    5.2566    4.5825    0.0000 C   0  0  0  0  0  0  0  0  0
    4.4316    4.5825    0.0000 F   0  0  0  0  0  0  0  0  0
    6.0816    4.5825    0.0000 F   0  0  0  0  0  0  0  0  0
    5.2566    3.7575    0.0000 C   0  0  0  0  0  0  0  0  0
    5.9711    3.3450    0.0000 C   0  0  0  0  0  0  0  0  0
    5.9711    2.5200    0.0000 C   0  0  0  0  0  0  0  0  0
    5.2566    2.1075    0.0000 C   0  0  0  0  0  0  0  0  0
    5.2566    1.2825    0.0000 N   0  0  0  0  0  0  0  0  0
    5.9711    0.8700    0.0000 C   0  0  0  0  0  0  0  0  0
    5.9711    0.0450    0.0000 C   0  0  0  0  0  0  0  0  0
    5.2566   -0.3675    0.0000 N   0  0  0  0  0  0  0  0  0
    4.5421    0.0450    0.0000 C   0  0  0  0  0  0  0  0  0
    4.5421    0.8700    0.0000 C   0  0  0  0  0  0  0  0  0
    5.2566   -1.1925    0.0000 C   0  0  0  0  0  0  0  0  0
    4.5421   -1.6050    0.0000 O   0  0  0  0  0  0  0  0  0
    5.9711   -1.6050    0.0000 N   0  0  0  0  0  0  0  0  0
    5.9711   -2.4300    0.0000 C   0  0  0  0  0  0  0  0  0
    6.6855   -2.8425    0.0000 C   0  0  0  0  0  0  0  0  0
    6.6855   -3.6675    0.0000 C   0  0  0  0  0  0  0  0  0
    7.4000   -4.0800    0.0000 N   0  0  0  0  0  0  0  0  0
    8.1145   -3.6675    0.0000 C   0  0  0  0  0  0  0  0  0
    8.8289   -4.0800    0.0000 C   0  0  0  0  0  0  0  0  0
    8.8289   -4.9050    0.0000 N   0  0  0  0  0  0  0  0  0
    8.1145   -5.3175    0.0000 C   0  0  0  0  0  0  0  0  0
    7.4000   -4.9050    0.0000 C   0  0  0  0  0  0  0  0  0
    9.5434   -5.3175    0.0000 C   0  0  0  0  0  0  0  0  0
    5.9711   -4.0800    0.0000 C   0  0  0  0  0  0  0  0  0
    5.9711   -4.9050    0.0000 O   0  0  0  0  0  0  0  0  0
    5.2566   -5.3175    0.0000 C   0  0  0  0  0  0  0  0  0
    5.2566   -3.6675    0.0000 C   0  0  0  0  0  0  0  0  0
    5.2566   -2.8425    0.0000 C   0  0  0  0  0  0  0  0  0
    4.5421    2.5200    0.0000 C   0  0  0  0  0  0  0  0  0
    4.5421    3.3450    0.0000 C   0  0  0  0  0  0  0  0  0
  1  2  1  0  0  0  0
  2  3  1  0  0  0  0
  2  4  1  0  0  0  0
  2  5  1  0  0  0  0
  5  6  4  0  0  0  0
  5 34  4  0  0  0  0
  6  7  4  0  0  0  0
  7  8  4  0  0  0  0
  8  9  1  0  0  0  0
  8 33  4  0  0  0  0
  9 10  1  0  0  0  0
  9 14  1  0  0  0  0
 10 11  1  0  0  0  0
 11 12  1  0  0  0  0
 12 13  1  0  0  0  0
 12 15  1  0  0  0  0
 13 14  1  0  0  0  0
 15 16  2  0  0  0  0
 15 17  1  0  0  0  0
 17 18  1  0  0  0  0
 18 19  4  0  0  0  0
 18 32  4  0  0  0  0
 19 20  4  0  0  0  0
 20 21  1  0  0  0  0
 20 28  4  0  0  0  0
 21 22  1  0  0  0  0
 21 26  1  0  0  0  0
 22 23  1  0  0  0  0
 23 24  1  0  0  0  0
 24 25  1  0  0  0  0
 24 27  1  0  0  0  0
 25 26  1  0  0  0  0
 28 29  1  0  0  0  0
 28 31  4  0  0  0  0
 29 30  1  0  0  0  0
 31 32  4  0  0  0  0
 33 34  4  0  0  0  0
M  END
>  <Name_Molregno>
327083

>  <5-HT1A>
6.42

>  <5-HT1B>
7.55

>  <5-HT1D>
6.46

>  <5-HT2A>
6.21

>  <5-HT2C>
5.55

>  <5-HT6>
5.54

>  <5-HT7>
5

>  <DOPAMINE D1>
5

>  <DOPAMINE D2>
5

>  <DOPAMINE D3>
5

>  <DOPAMINE D4>
5

>  <DOPAMINE D5>
5

>  <HISTAMINE H1>
5

>  <Muscarinic acetylcholine receptor M1>
5

>  <Muscarinic acetylcholine receptor M2>
5

>  <Muscarinic acetylcholine receptor M3>
5

>  <Muscarinic acetylcholine receptor M4>
5

>  <Muscarinic acetylcholine receptor M5>
5

$$$$
327090
  Marvin  02231216192D 0   1.00000     0.00000     0

 32 35  0  0  0  0  0  0  0  0999 V2000
   -6.3746    6.5338    0.0000 S   0  0  0  0  0  0  0  0  0
   -7.0891    6.9463    0.0000 C   0  0  0  0  0  0  0  0  0
   -6.3746    5.7088    0.0000 C   0  0  0  0  0  0  0  0  0
   -5.6602    5.2963    0.0000 C   0  0  0  0  0  0  0  0  0
   -5.6602    4.4713    0.0000 C   0  0  0  0  0  0  0  0  0
   -6.3746    4.0588    0.0000 C   0  0  0  0  0  0  0  0  0
   -6.3746    3.2338    0.0000 N   0  0  0  0  0  0  0  0  0
   -5.6602    2.8213    0.0000 C   0  0  0  0  0  0  0  0  0
   -5.6602    1.9963    0.0000 C   0  0  0  0  0  0  0  0  0
   -6.3746    1.5838    0.0000 N   0  0  0  0  0  0  0  0  0
   -7.0891    1.9963    0.0000 C   0  0  0  0  0  0  0  0  0
   -7.0891    2.8213    0.0000 C   0  0  0  0  0  0  0  0  0
   -6.3746    0.7588    0.0000 C   0  0  0  0  0  0  0  0  0
   -7.0891    0.3463    0.0000 O   0  0  0  0  0  0  0  0  0
   -5.6602    0.3463    0.0000 N   0  0  0  0  0  0  0  0  0
   -5.6602   -0.4787    0.0000 C   0  0  0  0  0  0  0  0  0
   -4.9457   -0.8912    0.0000 C   0  0  0  0  0  0  0  0  0
   -4.9457   -1.7162    0.0000 C   0  0  0  0  0  0  0  0  0
   -4.2312   -2.1287    0.0000 N   0  0  0  0  0  0  0  0  0
   -3.5167   -1.7162    0.0000 C   0  0  0  0  0  0  0  0  0
   -2.8023   -2.1287    0.0000 C   0  0  0  0  0  0  0  0  0
   -2.8023   -2.9537    0.0000 N   0  0  0  0  0  0  0  0  0
   -3.5167   -3.3662    0.0000 C   0  0  0  0  0  0  0  0  0
   -4.2312   -2.9537    0.0000 C   0  0  0  0  0  0  0  0  0
   -2.0878   -3.3662    0.0000 C   0  0  0  0  0  0  0  0  0
   -5.6602   -2.1287    0.0000 C   0  0  0  0  0  0  0  0  0
   -5.6602   -2.9537    0.0000 O   0  0  0  0  0  0  0  0  0
   -6.3746   -3.3662    0.0000 C   0  0  0  0  0  0  0  0  0
   -6.3746   -1.7162    0.0000 C   0  0  0  0  0  0  0  0  0
   -6.3746   -0.8912    0.0000 C   0  0  0  0  0  0  0  0  0
   -7.0891    4.4713    0.0000 C   0  0  0  0  0  0  0  0  0
   -7.0891    5.2963    0.0000 C   0  0  0  0  0  0  0  0  0
  1  2  1  0  0  0  0
  1  3  1  0  0  0  0
  3  4  4  0  0  0  0
  3 32  4  0  0  0  0
  4  5  4  0  0  0  0
  5  6  4  0  0  0  0
  6  7  1  0  0  0  0
  6 31  4  0  0  0  0
  7  8  1  0  0  0  0
  7 12  1  0  0  0  0
  8  9  1  0  0  0  0
  9 10  1  0  0  0  0
 10 11  1  0  0  0  0
 10 13  1  0  0  0  0
 11 12  1  0  0  0  0
 13 14  2  0  0  0  0
 13 15  1  0  0  0  0
 15 16  1  0  0  0  0
 16 17  4  0  0  0  0
 16 30  4  0  0  0  0
 17 18  4  0  0  0  0
 18 19  1  0  0  0  0
 18 26  4  0  0  0  0
 19 20  1  0  0  0  0
 19 24  1  0  0  0  0
 20 21  1  0  0  0  0
 21 22  1  0  0  0  0
 22 23  1  0  0  0  0
 22 25  1  0  0  0  0
 23 24  1  0  0  0  0
 26 27  1  0  0  0  0
 26 29  4  0  0  0  0
 27 28  1  0  0  0  0
 29 30  4  0  0  0  0
 31 32  4  0  0  0  0
M  END
>  <Name_Molregno>
327090

>  <5-HT1A>
6.05

>  <5-HT1B>
7.78

>  <5-HT1D>
6.48

>  <5-HT2A>
5.87

>  <5-HT2C>
5.94

>  <5-HT6>
5

>  <5-HT7>
5

>  <DOPAMINE D1>
5

>  <DOPAMINE D2>
5

>  <DOPAMINE D3>
5

>  <DOPAMINE D4>
5

>  <DOPAMINE D5>
5

>  <HISTAMINE H1>
5

>  <Muscarinic acetylcholine receptor M1>
5

>  <Muscarinic acetylcholine receptor M2>
5

>  <Muscarinic acetylcholine receptor M3>
5

>  <Muscarinic acetylcholine receptor M4>
5

>  <Muscarinic acetylcholine receptor M5>
5

$$$$
327091
  Marvin  02231216192D 0   1.00000     0.00000     0

 32 35  0  0  0  0  0  0  0  0999 V2000
    3.7835    3.5848    0.0000 O   0  0  0  0  0  0  0  0  0
    3.0690    3.9973    0.0000 C   0  0  0  0  0  0  0  0  0
    3.7835    2.7598    0.0000 C   0  0  0  0  0  0  0  0  0
    4.4980    2.3473    0.0000 C   0  0  0  0  0  0  0  0  0
    4.4980    1.5223    0.0000 C   0  0  0  0  0  0  0  0  0
    3.7835    1.1098    0.0000 C   0  0  0  0  0  0  0  0  0
    3.7835    0.2848    0.0000 N   0  0  0  0  0  0  0  0  0
    4.4980   -0.1277    0.0000 C   0  0  0  0  0  0  0  0  0
    5.2124    0.2848    0.0000 O   0  0  0  0  0  0  0  0  0
    4.4980   -0.9527    0.0000 C   0  0  0  0  0  0  0  0  0
    5.2124   -1.3652    0.0000 C   0  0  0  0  0  0  0  0  0
    5.2124   -2.1902    0.0000 C   0  0  0  0  0  0  0  0  0
    4.4980   -2.6027    0.0000 N   0  0  0  0  0  0  0  0  0
    3.7835   -2.1902    0.0000 C   0  0  0  0  0  0  0  0  0
    3.7835   -1.3652    0.0000 C   0  0  0  0  0  0  0  0  0
    4.4980   -3.4277    0.0000 C   0  0  0  0  0  0  0  0  0
    5.2124   -3.8402    0.0000 C   0  0  0  0  0  0  0  0  0
    5.2124   -4.6652    0.0000 C   0  0  0  0  0  0  0  0  0
    4.4980   -5.0777    0.0000 C   0  0  0  0  0  0  0  0  0
    3.7835   -4.6652    0.0000 C   0  0  0  0  0  0  0  0  0
    3.7835   -3.8402    0.0000 C   0  0  0  0  0  0  0  0  0
    3.0690   -3.4277    0.0000 O   0  0  0  0  0  0  0  0  0
    2.3546   -3.8402    0.0000 C   0  0  0  0  0  0  0  0  0
    3.0690    1.5223    0.0000 C   0  0  0  0  0  0  0  0  0
    3.0690    2.3473    0.0000 C   0  0  0  0  0  0  0  0  0
    2.3546    2.7598    0.0000 N   0  0  0  0  0  0  0  0  0
    1.6401    2.3473    0.0000 C   0  0  0  0  0  0  0  0  0
    0.9256    2.7598    0.0000 C   0  0  0  0  0  0  0  0  0
    0.9256    3.5848    0.0000 N   0  0  0  0  0  0  0  0  0
    1.6401    3.9973    0.0000 C   0  0  0  0  0  0  0  0  0
    2.3546    3.5848    0.0000 C   0  0  0  0  0  0  0  0  0
    0.2111    3.9973    0.0000 C   0  0  0  0  0  0  0  0  0
  1  2  1  0  0  0  0
  1  3  1  0  0  0  0
  3  4  4  0  0  0  0
  3 25  4  0  0  0  0
  4  5  4  0  0  0  0
  5  6  4  0  0  0  0
  6  7  1  0  0  0  0
  6 24  4  0  0  0  0
  7  8  1  0  0  0  0
  8  9  2  0  0  0  0
  8 10  1  0  0  0  0
 10 11  1  0  0  0  0
 10 15  1  0  0  0  0
 11 12  1  0  0  0  0
 12 13  1  0  0  0  0
 13 14  1  0  0  0  0
 13 16  1  0  0  0  0
 14 15  1  0  0  0  0
 16 17  4  0  0  0  0
 16 21  4  0  0  0  0
 17 18  4  0  0  0  0
 18 19  4  0  0  0  0
 19 20  4  0  0  0  0
 20 21  4  0  0  0  0
 21 22  1  0  0  0  0
 22 23  1  0  0  0  0
 24 25  4  0  0  0  0
 25 26  1  0  0  0  0
 26 27  1  0  0  0  0
 26 31  1  0  0  0  0
 27 28  1  0  0  0  0
 28 29  1  0  0  0  0
 29 30  1  0  0  0  0
 29 32  1  0  0  0  0
 30 31  1  0  0  0  0
M  END
>  <Name_Molregno>
327091

>  <5-HT1A>
7.81

>  <5-HT1B>
8.01

>  <5-HT1D>
7.81

>  <5-HT2A>
5

>  <5-HT2C>
5

>  <DOPAMINE D1>
5

>  <DOPAMINE D2>
5

>  <DOPAMINE D3>
5

>  <DOPAMINE D4>
5

>  <DOPAMINE D5>
5

>  <HISTAMINE H1>
5

>  <Muscarinic acetylcholine receptor M1>
5

>  <Muscarinic acetylcholine receptor M2>
5

>  <Muscarinic acetylcholine receptor M3>
5

>  <Muscarinic acetylcholine receptor M4>
5

>  <Muscarinic acetylcholine receptor M5>
5

$$$$
330283
  Marvin  02231216192D 0   1.00000     0.00000     0

 31 34  0  0  0  0  0  0  0  0999 V2000
    0.1076    0.0239    0.0000 Cl  0  0  0  0  0  0  0  0  0
    0.1076   -0.8011    0.0000 C   0  0  0  0  0  0  0  0  0
    0.8221   -1.2136    0.0000 C   0  0  0  0  0  0  0  0  0
    0.8221   -2.0386    0.0000 C   0  0  0  0  0  0  0  0  0
    0.1076   -2.4511    0.0000 C   0  0  0  0  0  0  0  0  0
   -0.6069   -2.0386    0.0000 C   0  0  0  0  0  0  0  0  0
   -0.6069   -1.2136    0.0000 C   0  0  0  0  0  0  0  0  0
   -1.3213   -0.8011    0.0000 N   0  0  0  0  0  0  0  0  0
   -2.0358   -1.2136    0.0000 C   0  0  0  0  0  0  0  0  0
   -2.7503   -0.8011    0.0000 C   0  0  0  0  0  0  0  0  0
   -2.7503    0.0239    0.0000 N   0  0  0  0  0  0  0  0  0
   -2.0358    0.4364    0.0000 C   0  0  0  0  0  0  0  0  0
   -1.3213    0.0239    0.0000 C   0  0  0  0  0  0  0  0  0
   -3.4647    0.4364    0.0000 C   0  0  0  0  0  0  0  0  0
   -3.4647    1.2614    0.0000 O   0  0  0  0  0  0  0  0  0
   -4.1792    0.0239    0.0000 N   0  0  0  0  0  0  0  0  0
   -4.8937    0.4364    0.0000 C   0  0  0  0  0  0  0  0  0
   -5.6082    0.0239    0.0000 C   0  0  0  0  0  0  0  0  0
   -6.3226    0.4364    0.0000 C   0  0  0  0  0  0  0  0  0
   -7.0371    0.0239    0.0000 N   0  0  0  0  0  0  0  0  0
   -7.0371   -0.8011    0.0000 C   0  0  0  0  0  0  0  0  0
   -7.7516   -1.2136    0.0000 C   0  0  0  0  0  0  0  0  0
   -8.4660   -0.8011    0.0000 N   0  0  0  0  0  0  0  0  0
   -8.4660    0.0239    0.0000 C   0  0  0  0  0  0  0  0  0
   -7.7516    0.4364    0.0000 C   0  0  0  0  0  0  0  0  0
   -9.1805   -1.2136    0.0000 C   0  0  0  0  0  0  0  0  0
   -6.3226    1.2614    0.0000 C   0  0  0  0  0  0  0  0  0
   -7.0371    1.6739    0.0000 O   0  0  0  0  0  0  0  0  0
   -7.0371    2.4989    0.0000 C   0  0  0  0  0  0  0  0  0
   -5.6082    1.6739    0.0000 C   0  0  0  0  0  0  0  0  0
   -4.8937    1.2614    0.0000 C   0  0  0  0  0  0  0  0  0
  1  2  1  0  0  0  0
  2  3  4  0  0  0  0
  2  7  4  0  0  0  0
  3  4  4  0  0  0  0
  4  5  4  0  0  0  0
  5  6  4  0  0  0  0
  6  7  4  0  0  0  0
  7  8  1  0  0  0  0
  8  9  1  0  0  0  0
  8 13  1  0  0  0  0
  9 10  1  0  0  0  0
 10 11  1  0  0  0  0
 11 12  1  0  0  0  0
 11 14  1  0  0  0  0
 12 13  1  0  0  0  0
 14 15  2  0  0  0  0
 14 16  1  0  0  0  0
 16 17  1  0  0  0  0
 17 18  4  0  0  0  0
 17 31  4  0  0  0  0
 18 19  4  0  0  0  0
 19 20  1  0  0  0  0
 19 27  4  0  0  0  0
 20 21  1  0  0  0  0
 20 25  1  0  0  0  0
 21 22  1  0  0  0  0
 22 23  1  0  0  0  0
 23 24  1  0  0  0  0
 23 26  1  0  0  0  0
 24 25  1  0  0  0  0
 27 28  1  0  0  0  0
 27 30  4  0  0  0  0
 28 29  1  0  0  0  0
 30 31  4  0  0  0  0
M  END
>  <Name_Molregno>
330283

>  <5-HT1A>
6.47

>  <5-HT1B>
7.95

>  <5-HT1D>
7.46

>  <5-HT2A>
5.22

>  <5-HT2C>
5.91

>  <5-HT6>
6.33

>  <5-HT7>
6.47

>  <DOPAMINE D1>
5

>  <DOPAMINE D2>
5

>  <DOPAMINE D3>
5

>  <DOPAMINE D4>
5

>  <DOPAMINE D5>
5

>  <HISTAMINE H1>
5

>  <Muscarinic acetylcholine receptor M1>
5

>  <Muscarinic acetylcholine receptor M2>
5

>  <Muscarinic acetylcholine receptor M3>
5

>  <Muscarinic acetylcholine receptor M4>
5

>  <Muscarinic acetylcholine receptor M5>
5

$$$$
330287
  Marvin  02231216192D 0   1.00000     0.00000     0

 31 34  0  0  0  0  0  0  0  0999 V2000
    0.1076    0.0239    0.0000 F   0  0  0  0  0  0  0  0  0
    0.1076   -0.8011    0.0000 C   0  0  0  0  0  0  0  0  0
    0.8221   -1.2136    0.0000 C   0  0  0  0  0  0  0  0  0
    0.8221   -2.0386    0.0000 C   0  0  0  0  0  0  0  0  0
    0.1076   -2.4511    0.0000 C   0  0  0  0  0  0  0  0  0
   -0.6069   -2.0386    0.0000 C   0  0  0  0  0  0  0  0  0
   -0.6069   -1.2136    0.0000 C   0  0  0  0  0  0  0  0  0
   -1.3213   -0.8011    0.0000 N   0  0  0  0  0  0  0  0  0
   -2.0358   -1.2136    0.0000 C   0  0  0  0  0  0  0  0  0
   -2.7503   -0.8011    0.0000 C   0  0  0  0  0  0  0  0  0
   -2.7503    0.0239    0.0000 N   0  0  0  0  0  0  0  0  0
   -2.0358    0.4364    0.0000 C   0  0  0  0  0  0  0  0  0
   -1.3213    0.0239    0.0000 C   0  0  0  0  0  0  0  0  0
   -3.4647    0.4364    0.0000 C   0  0  0  0  0  0  0  0  0
   -3.4647    1.2614    0.0000 O   0  0  0  0  0  0  0  0  0
   -4.1792    0.0239    0.0000 N   0  0  0  0  0  0  0  0  0
   -4.8937    0.4364    0.0000 C   0  0  0  0  0  0  0  0  0
   -5.6082    0.0239    0.0000 C   0  0  0  0  0  0  0  0  0
   -6.3226    0.4364    0.0000 C   0  0  0  0  0  0  0  0  0
   -7.0371    0.0239    0.0000 N   0  0  0  0  0  0  0  0  0
   -7.0371   -0.8011    0.0000 C   0  0  0  0  0  0  0  0  0
   -7.7516   -1.2136    0.0000 C   0  0  0  0  0  0  0  0  0
   -8.4660   -0.8011    0.0000 N   0  0  0  0  0  0  0  0  0
   -8.4660    0.0239    0.0000 C   0  0  0  0  0  0  0  0  0
   -7.7516    0.4364    0.0000 C   0  0  0  0  0  0  0  0  0
   -9.1805   -1.2136    0.0000 C   0  0  0  0  0  0  0  0  0
   -6.3226    1.2614    0.0000 C   0  0  0  0  0  0  0  0  0
   -7.0371    1.6739    0.0000 O   0  0  0  0  0  0  0  0  0
   -7.0371    2.4989    0.0000 C   0  0  0  0  0  0  0  0  0
   -5.6082    1.6739    0.0000 C   0  0  0  0  0  0  0  0  0
   -4.8937    1.2614    0.0000 C   0  0  0  0  0  0  0  0  0
  1  2  1  0  0  0  0
  2  3  4  0  0  0  0
  2  7  4  0  0  0  0
  3  4  4  0  0  0  0
  4  5  4  0  0  0  0
  5  6  4  0  0  0  0
  6  7  4  0  0  0  0
  7  8  1  0  0  0  0
  8  9  1  0  0  0  0
  8 13  1  0  0  0  0
  9 10  1  0  0  0  0
 10 11  1  0  0  0  0
 11 12  1  0  0  0  0
 11 14  1  0  0  0  0
 12 13  1  0  0  0  0
 14 15  2  0  0  0  0
 14 16  1  0  0  0  0
 16 17  1  0  0  0  0
 17 18  4  0  0  0  0
 17 31  4  0  0  0  0
 18 19  4  0  0  0  0
 19 20  1  0  0  0  0
 19 27  4  0  0  0  0
 20 21  1  0  0  0  0
 20 25  1  0  0  0  0
 21 22  1  0  0  0  0
 22 23  1  0  0  0  0
 23 24  1  0  0  0  0
 23 26  1  0  0  0  0
 24 25  1  0  0  0  0
 27 28  1  0  0  0  0
 27 30  4  0  0  0  0
 28 29  1  0  0  0  0
 30 31  4  0  0  0  0
M  END
>  <Name_Molregno>
330287

>  <5-HT1A>
6.5

>  <5-HT1B>
7.74

>  <5-HT1D>
6.99

>  <5-HT2A>
5

>  <5-HT2C>
5.97

>  <5-HT6>
6.08

>  <5-HT7>
5

>  <DOPAMINE D1>
5

>  <DOPAMINE D2>
5

>  <DOPAMINE D3>
5

>  <DOPAMINE D4>
5

>  <DOPAMINE D5>
5

>  <HISTAMINE H1>
5

>  <Muscarinic acetylcholine receptor M1>
5

>  <Muscarinic acetylcholine receptor M2>
5

>  <Muscarinic acetylcholine receptor M3>
5

>  <Muscarinic acetylcholine receptor M4>
5

>  <Muscarinic acetylcholine receptor M5>
5

$$$$
331252
  Marvin  02231216192D 0   1.00000     0.00000     0

 24 26  0  0  0  0  0  0  0  0999 V2000
    0.4255    0.0844    0.0000 O   0  0  0  0  0  0  0  0  0
    1.2505    0.0844    0.0000 C   0  0  0  0  0  0  0  0  0
    1.7649   -0.5606    0.0000 C   0  0  0  0  0  0  0  0  0
    1.5813   -1.3649    0.0000 C   0  0  0  0  0  0  0  0  0
    2.1861   -1.9261    0.0000 C   0  0  0  0  0  0  0  0  0
    2.9744   -1.6829    0.0000 C   0  0  0  0  0  0  0  0  0
    3.1580   -0.8786    0.0000 C   0  0  0  0  0  0  0  0  0
    2.5532   -0.3175    0.0000 C   0  0  0  0  0  0  0  0  0
    0.8380   -1.7229    0.0000 C   0  0  0  0  0  0  0  0  0
    0.0947   -1.3649    0.0000 C   0  0  0  0  0  0  0  0  0
   -0.5101   -1.9261    0.0000 C   0  0  0  0  0  0  0  0  0
   -1.2984   -1.6829    0.0000 C   0  0  0  0  0  0  0  0  0
   -1.4820   -0.8786    0.0000 C   0  0  0  0  0  0  0  0  0
   -0.8772   -0.3175    0.0000 C   0  0  0  0  0  0  0  0  0
   -0.0889   -0.5606    0.0000 C   0  0  0  0  0  0  0  0  0
   -1.9032   -2.2441    0.0000 C   0  0  0  0  0  0  0  0  0
   -2.6915   -2.0009    0.0000 C   0  0  0  0  0  0  0  0  0
   -3.2963   -2.5620    0.0000 O   0  0  0  0  0  0  0  0  0
   -2.8751   -1.1966    0.0000 O   0  0  0  0  0  0  0  0  0
    0.8380   -2.5479    0.0000 C   0  0  0  0  0  0  0  0  0
    1.5525   -2.9604    0.0000 C   0  0  0  0  0  0  0  0  0
    1.5525   -3.7854    0.0000 N   0  0  0  0  0  0  0  0  0
    2.2670   -4.1979    0.0000 C   0  0  0  0  0  0  0  0  0
    0.8380   -4.1979    0.0000 C   0  0  0  0  0  0  0  0  0
  1  2  1  0  0  0  0
  1 15  1  0  0  0  0
  2  3  1  0  0  0  0
  3  4  4  0  0  0  0
  3  8  4  0  0  0  0
  4  5  4  0  0  0  0
  4  9  1  0  0  0  0
  5  6  4  0  0  0  0
  6  7  4  0  0  0  0
  7  8  4  0  0  0  0
  9 10  1  0  0  0  0
  9 20  2  0  0  0  0
 10 11  4  0  0  0  0
 10 15  4  0  0  0  0
 11 12  4  0  0  0  0
 12 13  4  0  0  0  0
 12 16  1  0  0  0  0
 13 14  4  0  0  0  0
 14 15  4  0  0  0  0
 16 17  1  0  0  0  0
 17 18  1  0  0  0  0
 17 19  2  0  0  0  0
 20 21  1  0  0  0  0
 21 22  1  0  0  0  0
 22 23  1  0  0  0  0
 22 24  1  0  0  0  0
M  END
>  <Name_Molregno>
331252

>  <HISTAMINE H1>
7.96

$$$$
331319
  Marvin  02231216192D 0   1.00000     0.00000     0

 34 38  0  0  0  0  0  0  0  0999 V2000
    3.5189    4.0258    0.0000 O   0  0  0  0  0  0  0  0  0
    4.3439    4.0258    0.0000 C   0  0  0  0  0  0  0  0  0
    4.8583    3.3808    0.0000 C   0  0  0  0  0  0  0  0  0
    4.6747    2.5765    0.0000 C   0  0  0  0  0  0  0  0  0
    5.2795    2.0154    0.0000 C   0  0  0  0  0  0  0  0  0
    6.0678    2.2585    0.0000 C   0  0  0  0  0  0  0  0  0
    6.2514    3.0629    0.0000 C   0  0  0  0  0  0  0  0  0
    5.6466    3.6240    0.0000 C   0  0  0  0  0  0  0  0  0
    3.9314    2.2186    0.0000 C   0  0  0  0  0  0  0  0  0
    3.1881    2.5765    0.0000 C   0  0  0  0  0  0  0  0  0
    2.5833    2.0154    0.0000 C   0  0  0  0  0  0  0  0  0
    1.7950    2.2585    0.0000 C   0  0  0  0  0  0  0  0  0
    1.6114    3.0629    0.0000 C   0  0  0  0  0  0  0  0  0
    2.2162    3.6240    0.0000 C   0  0  0  0  0  0  0  0  0
    3.0045    3.3808    0.0000 C   0  0  0  0  0  0  0  0  0
    1.1902    1.6974    0.0000 C   0  0  0  0  0  0  0  0  0
    0.4019    1.9406    0.0000 C   0  0  0  0  0  0  0  0  0
   -0.2029    1.3794    0.0000 O   0  0  0  0  0  0  0  0  0
    0.2183    2.7449    0.0000 O   0  0  0  0  0  0  0  0  0
    3.9314    1.3936    0.0000 C   0  0  0  0  0  0  0  0  0
    3.2169    0.9811    0.0000 C   0  0  0  0  0  0  0  0  0
    3.2169    0.1561    0.0000 N   0  0  0  0  0  0  0  0  0
    3.9314   -0.2564    0.0000 C   0  0  0  0  0  0  0  0  0
    3.9314   -1.0814    0.0000 C   0  0  0  0  0  0  0  0  0
    3.2169   -1.4939    0.0000 C   0  0  0  0  0  0  0  0  0
    2.5025   -1.0814    0.0000 C   0  0  0  0  0  0  0  0  0
    2.5025   -0.2564    0.0000 C   0  0  0  0  0  0  0  0  0
    3.2169   -2.3189    0.0000 C   0  0  0  0  0  0  0  0  0
    2.5025   -2.7314    0.0000 C   0  0  0  0  0  0  0  0  0
    2.5025   -3.5564    0.0000 C   0  0  0  0  0  0  0  0  0
    1.7880   -3.9689    0.0000 C   0  0  0  0  0  0  0  0  0
    1.0735   -3.5564    0.0000 C   0  0  0  0  0  0  0  0  0
    1.0735   -2.7314    0.0000 C   0  0  0  0  0  0  0  0  0
    1.7880   -2.3189    0.0000 C   0  0  0  0  0  0  0  0  0
  1  2  1  0  0  0  0
  1 15  1  0  0  0  0
  2  3  1  0  0  0  0
  3  4  4  0  0  0  0
  3  8  4  0  0  0  0
  4  5  4  0  0  0  0
  4  9  1  0  0  0  0
  5  6  4  0  0  0  0
  6  7  4  0  0  0  0
  7  8  4  0  0  0  0
  9 10  1  0  0  0  0
  9 20  2  0  0  0  0
 10 11  4  0  0  0  0
 10 15  4  0  0  0  0
 11 12  4  0  0  0  0
 12 13  4  0  0  0  0
 12 16  1  0  0  0  0
 13 14  4  0  0  0  0
 14 15  4  0  0  0  0
 16 17  1  0  0  0  0
 17 18  1  0  0  0  0
 17 19  2  0  0  0  0
 20 21  1  0  0  0  0
 21 22  1  0  0  0  0
 22 23  1  0  0  0  0
 22 27  1  0  0  0  0
 23 24  1  0  0  0  0
 24 25  1  0  0  0  0
 25 26  1  0  0  0  0
 25 28  1  0  0  0  0
 26 27  1  0  0  0  0
 28 29  1  0  0  0  0
 29 30  4  0  0  0  0
 29 34  4  0  0  0  0
 30 31  4  0  0  0  0
 31 32  4  0  0  0  0
 32 33  4  0  0  0  0
 33 34  4  0  0  0  0
M  END
>  <Name_Molregno>
331319

>  <HISTAMINE H1>
7.7

$$$$
335202
  Marvin  02231216192D 0   1.00000     0.00000     0

 31 34  0  0  0  0  0  0  0  0999 V2000
   -5.3316    5.4643    0.0000 O   0  0  0  0  0  0  0  0  0
   -6.0461    5.8768    0.0000 C   0  0  0  0  0  0  0  0  0
   -4.6172    5.8768    0.0000 C   0  0  0  0  0  0  0  0  0
   -3.9027    5.4643    0.0000 C   0  0  0  0  0  0  0  0  0
   -3.1882    5.8768    0.0000 C   0  0  0  0  0  0  0  0  0
   -3.1882    6.7018    0.0000 C   0  0  0  0  0  0  0  0  0
   -3.9027    7.1143    0.0000 C   0  0  0  0  0  0  0  0  0
   -4.6172    6.7018    0.0000 C   0  0  0  0  0  0  0  0  0
   -2.4737    7.1143    0.0000 C   0  0  0  0  0  0  0  0  0
   -1.7593    6.7018    0.0000 C   0  0  0  0  0  0  0  0  0
   -1.7593    5.8768    0.0000 C   0  0  0  0  0  0  0  0  0
   -2.4737    5.4643    0.0000 C   0  0  0  0  0  0  0  0  0
   -2.4737    4.6393    0.0000 N   0  0  0  0  0  0  0  0  0
   -1.7593    4.2268    0.0000 C   0  0  0  0  0  0  0  0  0
   -1.7593    3.4018    0.0000 C   0  0  0  0  0  0  0  0  0
   -2.4737    2.9893    0.0000 N   0  0  0  0  0  0  0  0  0
   -3.1882    3.4018    0.0000 C   0  0  0  0  0  0  0  0  0
   -3.1882    4.2268    0.0000 C   0  0  0  0  0  0  0  0  0
   -2.4737    2.1643    0.0000 C   0  0  0  0  0  0  0  0  0
   -1.7593    1.7518    0.0000 C   0  0  0  0  0  0  0  0  0
   -1.7593    0.9268    0.0000 C   0  0  0  0  0  0  0  0  0
   -1.0448    0.5143    0.0000 C   0  0  0  0  0  0  0  0  0
   -1.0448   -0.3107    0.0000 N   0  0  0  0  0  0  0  0  0
   -0.3303   -0.7232    0.0000 N   0  0  0  0  0  0  0  0  0
   -0.3303   -1.5482    0.0000 C   0  0  0  0  0  0  0  0  0
   -1.0448   -1.9607    0.0000 C   0  0  0  0  0  0  0  0  0
   -1.0448   -2.7857    0.0000 O   0  0  0  0  0  0  0  0  0
   -1.7593   -1.5482    0.0000 N   0  0  0  0  0  0  0  0  0
   -2.4737   -1.9607    0.0000 C   0  0  0  0  0  0  0  0  0
   -1.7593   -0.7232    0.0000 C   0  0  0  0  0  0  0  0  0
   -2.4737   -0.3107    0.0000 O   0  0  0  0  0  0  0  0  0
  1  2  1  0  0  0  0
  1  3  1  0  0  0  0
  3  4  4  0  0  0  0
  3  8  4  0  0  0  0
  4  5  4  0  0  0  0
  5  6  4  0  0  0  0
  5 12  4  0  0  0  0
  6  7  4  0  0  0  0
  6  9  4  0  0  0  0
  7  8  4  0  0  0  0
  9 10  4  0  0  0  0
 10 11  4  0  0  0  0
 11 12  4  0  0  0  0
 12 13  1  0  0  0  0
 13 14  1  0  0  0  0
 13 18  1  0  0  0  0
 14 15  1  0  0  0  0
 15 16  1  0  0  0  0
 16 17  1  0  0  0  0
 16 19  1  0  0  0  0
 17 18  1  0  0  0  0
 19 20  1  0  0  0  0
 20 21  1  0  0  0  0
 21 22  1  0  0  0  0
 22 23  1  0  0  0  0
 23 24  1  0  0  0  0
 23 30  1  0  0  0  0
 24 25  2  0  0  0  0
 25 26  1  0  0  0  0
 26 27  2  0  0  0  0
 26 28  1  0  0  0  0
 28 29  1  0  0  0  0
 28 30  1  0  0  0  0
 30 31  2  0  0  0  0
M  END
>  <Name_Molregno>
335202

>  <5-HT1A>
8.87

>  <5-HT2A>
7.38

>  <5-HT2C>
7

>  <5-HT3>
5

>  <5-HT5>
6.64

>  <5-HT6>
6.92

>  <5-HT7>
8.04

>  <Alpha-2A>
5.99

>  <Alpha-2B>
6.5

>  <Alpha-2C>
7.63

>  <Beta-1>
6.32

>  <Beta-2>
7.22

>  <DOPAMINE D1>
5.13

>  <DOPAMINE D2>
7.66

>  <DOPAMINE D3>
7.2

>  <DOPAMINE D4>
8.07

>  <DOPAMINE D5>
5

>  <Dopamine transporter>
6.39

>  <HISTAMINE H1>
6.82

>  <HISTAMINE H2>
6.52

>  <HISTAMINE H3>
5

>  <HISTAMINE H4>
5

>  <Norepinephrine transporter>
5.16

>  <Serotonin transporter>
5.21

$$$$
344371
  Marvin  02231216192D 0   1.00000     0.00000     0

 27 29  0  0  0  0  0  0  0  0999 V2000
   -8.3424    3.5017    0.0000 O   0  0  0  0  0  0  0  0  0
   -9.0569    3.9142    0.0000 C   0  0  0  0  0  0  0  0  0
   -8.3424    2.6767    0.0000 C   0  0  0  0  0  0  0  0  0
   -7.6279    2.2642    0.0000 C   0  0  0  0  0  0  0  0  0
   -7.6279    1.4392    0.0000 C   0  0  0  0  0  0  0  0  0
   -6.9134    1.0267    0.0000 N   0  0  0  0  0  0  0  0  0
   -6.1990    1.4392    0.0000 C   0  0  0  0  0  0  0  0  0
   -5.4845    1.0267    0.0000 C   0  0  0  0  0  0  0  0  0
   -5.4845    0.2017    0.0000 N   0  0  0  0  0  0  0  0  0
   -6.1990   -0.2108    0.0000 C   0  0  0  0  0  0  0  0  0
   -6.9134    0.2017    0.0000 C   0  0  0  0  0  0  0  0  0
   -4.7700   -0.2108    0.0000 C   0  0  0  0  0  0  0  0  0
   -4.0556    0.2017    0.0000 C   0  0  0  0  0  0  0  0  0
   -3.3411   -0.2108    0.0000 C   0  0  0  0  0  0  0  0  0
   -2.6266    0.2017    0.0000 C   0  0  0  0  0  0  0  0  0
   -1.9121   -0.2108    0.0000 N   0  0  0  0  0  0  0  0  0
   -1.1977    0.2017    0.0000 N   0  0  0  0  0  0  0  0  0
   -0.4832   -0.2108    0.0000 C   0  0  0  0  0  0  0  0  0
   -0.4832   -1.0358    0.0000 C   0  0  0  0  0  0  0  0  0
    0.2313   -1.4483    0.0000 O   0  0  0  0  0  0  0  0  0
   -1.1977   -1.4483    0.0000 N   0  0  0  0  0  0  0  0  0
   -1.1977   -2.2733    0.0000 C   0  0  0  0  0  0  0  0  0
   -1.9121   -1.0358    0.0000 C   0  0  0  0  0  0  0  0  0
   -2.6266   -1.4483    0.0000 O   0  0  0  0  0  0  0  0  0
   -8.3424    1.0267    0.0000 C   0  0  0  0  0  0  0  0  0
   -9.0569    1.4392    0.0000 C   0  0  0  0  0  0  0  0  0
   -9.0569    2.2642    0.0000 C   0  0  0  0  0  0  0  0  0
  1  2  1  0  0  0  0
  1  3  1  0  0  0  0
  3  4  4  0  0  0  0
  3 27  4  0  0  0  0
  4  5  4  0  0  0  0
  5  6  1  0  0  0  0
  5 25  4  0  0  0  0
  6  7  1  0  0  0  0
  6 11  1  0  0  0  0
  7  8  1  0  0  0  0
  8  9  1  0  0  0  0
  9 10  1  0  0  0  0
  9 12  1  0  0  0  0
 10 11  1  0  0  0  0
 12 13  1  0  0  0  0
 13 14  1  0  0  0  0
 14 15  1  0  0  0  0
 15 16  1  0  0  0  0
 16 17  1  0  0  0  0
 16 23  1  0  0  0  0
 17 18  2  0  0  0  0
 18 19  1  0  0  0  0
 19 20  2  0  0  0  0
 19 21  1  0  0  0  0
 21 22  1  0  0  0  0
 21 23  1  0  0  0  0
 23 24  2  0  0  0  0
 25 26  4  0  0  0  0
 26 27  4  0  0  0  0
M  END
>  <Name_Molregno>
344371

>  <5-HT1A>
8.96

>  <5-HT1B>
6.64

>  <5-HT1E>
5

>  <5-HT2A>
5.68

>  <5-HT3>
5

>  <5-HT5>
5

>  <5-HT6>
5

>  <5-HT7>
6.48

>  <Alpha-1A>
6.38

>  <Alpha-1B>
6.42

>  <Alpha-2A>
6.6

>  <Alpha-2C>
6.96

>  <DOPAMINE D2>
5.59

>  <DOPAMINE D3>
5

>  <DOPAMINE D4>
5

>  <DOPAMINE D5>
5

>  <Dopamine transporter>
5

>  <HISTAMINE H1>
6.08

>  <HISTAMINE H2>
5.67

>  <HISTAMINE H3>
5

>  <HISTAMINE H4>
5

>  <Norepinephrine transporter>
5

>  <Serotonin transporter>
5

$$$$
348204
  Marvin  02231216192D 0   1.00000     0.00000     0

 28 31  0  0  1  0  0  0  0  0999 V2000
   10.2950   -1.6307    0.0000 Cl  0  0  0  0  0  0  0  0  0
    9.4759   -1.5325    0.0000 C   0  0  0  0  0  0  0  0  0
    8.9812   -2.1928    0.0000 C   0  0  0  0  0  0  0  0  0
    8.1621   -2.0945    0.0000 C   0  0  0  0  0  0  0  0  0
    7.8376   -1.3360    0.0000 C   0  0  0  0  0  0  0  0  0
    8.3323   -0.6758    0.0000 C   0  0  0  0  0  0  0  0  0
    9.1514   -0.7740    0.0000 C   0  0  0  0  0  0  0  0  0
    7.0185   -1.2378    0.0000 C   0  0  0  0  0  0  0  0  0
    6.6925   -1.9956    0.0000 O   0  0  0  0  0  0  0  0  0
    6.8803   -0.4204    0.0000 C   0  0  0  0  0  0  0  0  0
    5.9515   -0.4359    0.0000 C   0  0  0  0  0  0  0  0  0
    5.3909    0.0040    0.0000 N   0  0  0  0  0  0  0  0  0
    5.5306   -0.8091    0.0000 C   0  0  0  0  0  0  0  0  0
    6.5023   -0.8091    0.0000 C   0  0  0  0  0  0  0  0  0
    5.0107   -1.5214    0.0000 C   0  0  0  0  0  0  0  0  0
    5.6310   -1.1445    0.0000 C   0  0  0  0  0  0  0  0  0
    4.9683    0.7126    0.0000 C   0  0  0  0  0  0  0  0  0
    4.1434    0.7008    0.0000 C   0  0  0  0  0  0  0  0  0
    3.7208    1.4094    0.0000 C   0  0  0  0  0  0  0  0  0
    2.8958    1.3977    0.0000 C   0  0  0  0  0  0  0  0  0
    2.4935    0.6774    0.0000 O   0  0  0  0  0  0  0  0  0
    2.4732    2.1062    0.0000 C   0  0  0  0  0  0  0  0  0
    1.6483    2.0945    0.0000 C   0  0  0  0  0  0  0  0  0
    1.2257    2.8030    0.0000 C   0  0  0  0  0  0  0  0  0
    1.6280    3.5233    0.0000 C   0  0  0  0  0  0  0  0  0
    1.2054    4.2318    0.0000 F   0  0  0  0  0  0  0  0  0
    2.4529    3.5350    0.0000 C   0  0  0  0  0  0  0  0  0
    2.8755    2.8265    0.0000 C   0  0  0  0  0  0  0  0  0
  1  2  1  0  0  0  0
  2  3  4  0  0  0  0
  2  7  4  0  0  0  0
  3  4  4  0  0  0  0
  4  5  4  0  0  0  0
  5  6  4  0  0  0  0
  5  8  1  0  0  0  0
  6  7  4  0  0  0  0
  8  9  1  0  0  0  0
  8 10  1  0  0  0  0
  8 14  1  0  0  0  0
 10 11  1  0  0  0  0
 11 12  1  0  0  0  0
 11 16  1  0  0  0  0
 12 13  1  0  0  0  0
 12 17  1  0  0  0  0
 13 14  1  0  0  0  0
 13 15  1  0  0  0  0
 15 16  1  0  0  0  0
 17 18  1  0  0  0  0
 18 19  1  0  0  0  0
 19 20  1  0  0  0  0
 20 21  2  0  0  0  0
 20 22  1  0  0  0  0
 22 23  4  0  0  0  0
 22 28  4  0  0  0  0
 23 24  4  0  0  0  0
 24 25  4  0  0  0  0
 25 26  1  0  0  0  0
 25 27  4  0  0  0  0
 27 28  4  0  0  0  0
M  END
>  <Name_Molregno>
348204

>  <5-HT1A>
7.56

>  <5-HT2A>
7.51

>  <5-HT2C>
6.06

>  <Alpha-1A>
7.41

>  <Alpha-1B>
7.37

>  <Alpha-2A>
5.55

>  <Alpha-2B>
6.29

>  <Alpha-2C>
6.85

>  <DOPAMINE D2>
8.8

>  <DOPAMINE D3>
8.29

>  <DOPAMINE D4>
8.28

>  <HISTAMINE H1>
5.06

$$$$
353070
  Marvin  02231216192D 0   1.00000     0.00000     0

 23 26  0  0  0  0  0  0  0  0999 V2000
    0.4642    2.7256    0.0000 Cl  0  0  0  0  0  0  0  0  0
    1.0689    2.1644    0.0000 C   0  0  0  0  0  0  0  0  0
    1.8573    2.4076    0.0000 C   0  0  0  0  0  0  0  0  0
    2.4620    1.8465    0.0000 C   0  0  0  0  0  0  0  0  0
    3.2053    2.2044    0.0000 O   0  0  0  0  0  0  0  0  0
    3.9486    1.8465    0.0000 C   0  0  0  0  0  0  0  0  0
    4.1322    1.0422    0.0000 C   0  0  0  0  0  0  0  0  0
    4.9206    0.7990    0.0000 C   0  0  0  0  0  0  0  0  0
    5.5253    1.3601    0.0000 C   0  0  0  0  0  0  0  0  0
    5.3418    2.1644    0.0000 C   0  0  0  0  0  0  0  0  0
    4.5534    2.4076    0.0000 C   0  0  0  0  0  0  0  0  0
    3.6178    0.3972    0.0000 C   0  0  0  0  0  0  0  0  0
    2.7928    0.3972    0.0000 N   0  0  0  0  0  0  0  0  0
    2.2785    1.0422    0.0000 C   0  0  0  0  0  0  0  0  0
    1.4901    0.7990    0.0000 C   0  0  0  0  0  0  0  0  0
    0.8853    1.3601    0.0000 C   0  0  0  0  0  0  0  0  0
    3.9758   -0.3461    0.0000 N   0  0  0  0  0  0  0  0  0
    4.7985   -0.4078    0.0000 C   0  0  0  0  0  0  0  0  0
    5.1564   -1.1511    0.0000 C   0  0  0  0  0  0  0  0  0
    4.6917   -1.8327    0.0000 N   0  0  0  0  0  0  0  0  0
    3.8690   -1.7711    0.0000 C   0  0  0  0  0  0  0  0  0
    3.5111   -1.0278    0.0000 C   0  0  0  0  0  0  0  0  0
    5.0497   -2.5760    0.0000 C   0  0  0  0  0  0  0  0  0
  1  2  1  0  0  0  0
  2  3  4  0  0  0  0
  2 16  4  0  0  0  0
  3  4  4  0  0  0  0
  4  5  1  0  0  0  0
  4 14  4  0  0  0  0
  5  6  1  0  0  0  0
  6  7  4  0  0  0  0
  6 11  4  0  0  0  0
  7  8  4  0  0  0  0
  7 12  1  0  0  0  0
  8  9  4  0  0  0  0
  9 10  4  0  0  0  0
 10 11  4  0  0  0  0
 12 13  2  0  0  0  0
 12 17  1  0  0  0  0
 13 14  1  0  0  0  0
 14 15  4  0  0  0  0
 15 16  4  0  0  0  0
 17 18  1  0  0  0  0
 17 22  1  0  0  0  0
 18 19  1  0  0  0  0
 19 20  1  0  0  0  0
 20 21  1  0  0  0  0
 20 23  1  0  0  0  0
 21 22  1  0  0  0  0
M  END
>  <Name_Molregno>
353070

>  <HISTAMINE H1>
8.11

>  <HISTAMINE H2>
5.06

>  <HISTAMINE H3>
5.04

>  <HISTAMINE H4>
7.57

$$$$
382415
  Marvin  02231216192D 0   1.00000     0.00000     0

 18 19  0  0  0  0  0  0  0  0999 V2000
   -0.7360    1.4792    0.0000 S   0  0  0  0  0  0  0  0  0
   -0.9909    0.6946    0.0000 C   0  0  0  0  0  0  0  0  0
   -1.8159    0.6946    0.0000 C   0  0  0  0  0  0  0  0  0
   -2.0709    1.4792    0.0000 N   0  0  0  0  0  0  0  0  0
   -1.4034    1.9642    0.0000 C   0  0  0  0  0  0  0  0  0
   -1.4034    2.7892    0.0000 C   0  0  0  0  0  0  0  0  0
   -0.6890    3.2017    0.0000 F   0  0  0  0  0  0  0  0  0
   -2.3008    0.0272    0.0000 C   0  0  0  0  0  0  0  0  0
   -2.7858   -0.6403    0.0000 C   0  0  0  0  0  0  0  0  0
   -3.2707   -1.3077    0.0000 C   0  0  0  0  0  0  0  0  0
   -2.9351   -2.0614    0.0000 C   0  0  0  0  0  0  0  0  0
   -3.4201   -2.7288    0.0000 C   0  0  0  0  0  0  0  0  0
   -4.2405   -2.6426    0.0000 C   0  0  0  0  0  0  0  0  0
   -4.5761   -1.8889    0.0000 C   0  0  0  0  0  0  0  0  0
   -5.3966   -1.8027    0.0000 F   0  0  0  0  0  0  0  0  0
   -4.0912   -1.2215    0.0000 C   0  0  0  0  0  0  0  0  0
   -3.0845   -3.4825    0.0000 C   0  0  0  0  0  0  0  0  0
   -2.7489   -4.2362    0.0000 N   0  0  0  0  0  0  0  0  0
  1  2  4  0  0  0  0
  1  5  4  0  0  0  0
  2  3  4  0  0  0  0
  3  4  4  0  0  0  0
  3  8  1  0  0  0  0
  4  5  4  0  0  0  0
  5  6  1  0  0  0  0
  6  7  1  0  0  0  0
  8  9  3  0  0  0  0
  9 10  1  0  0  0  0
 10 11  4  0  0  0  0
 10 16  4  0  0  0  0
 11 12  4  0  0  0  0
 12 13  4  0  0  0  0
 12 17  1  0  0  0  0
 13 14  4  0  0  0  0
 14 15  1  0  0  0  0
 14 16  4  0  0  0  0
 17 18  3  0  0  0  0
M  END
>  <Name_Molregno>
382415

>  <5-HT1A>
5

>  <5-HT1B>
5

>  <5-HT1D>
5

>  <5-HT1E>
5

>  <5-HT2A>
5

>  <5-HT2C>
5

>  <5-HT3>
5

>  <5-HT5>
5

>  <5-HT6>
5

>  <5-HT7>
5

>  <Alpha-1A>
5

>  <Alpha-1B>
5

>  <Alpha-2A>
5

>  <Alpha-2B>
5

>  <Alpha-2C>
5

>  <Beta-1>
5

>  <Beta-2>
5

>  <DOPAMINE D1>
5

>  <DOPAMINE D2>
5

>  <DOPAMINE D3>
5

>  <DOPAMINE D4>
5

>  <DOPAMINE D5>
5

>  <Dopamine transporter>
5

>  <HISTAMINE H1>
5

>  <HISTAMINE H2>
5

>  <HISTAMINE H3>
5

>  <HISTAMINE H4>
5

>  <Muscarinic acetylcholine receptor M1>
5

>  <Muscarinic acetylcholine receptor M2>
5

>  <Muscarinic acetylcholine receptor M3>
5

>  <Muscarinic acetylcholine receptor M4>
5

>  <Muscarinic acetylcholine receptor M5>
5

>  <Norepinephrine transporter>
5

>  <Serotonin transporter>
5

$$$$
389011
  Marvin  02231216192D 0   1.00000     0.00000     0

 25 26  0  0  1  0  0  0  0  0999 V2000
   -2.9244    1.8604    0.0000 S   0  0  0  0  0  0  0  0  0
   -3.7494    1.8604    0.0000 O   0  0  0  0  0  0  0  0  0
   -2.0994    1.8604    0.0000 O   0  0  0  0  0  0  0  0  0
   -2.9244    2.6854    0.0000 C   0  0  0  0  0  0  0  0  0
   -3.6388    3.0979    0.0000 C   0  0  0  0  0  0  0  0  0
   -2.9244    1.0354    0.0000 C   0  0  0  0  0  0  0  0  0
   -2.2099    0.6229    0.0000 C   0  0  0  0  0  0  0  0  0
   -2.2099   -0.2021    0.0000 C   0  0  0  0  0  0  0  0  0
   -1.4954   -0.6146    0.0000 C   0  0  0  0  0  0  0  0  0
   -0.7810   -0.2021    0.0000 O   0  0  0  0  0  0  0  0  0
   -1.4954   -1.4396    0.0000 N   0  0  0  0  0  0  0  0  0
   -0.7810   -1.8521    0.0000 C   0  0  0  0  0  0  0  0  0
   -0.7810   -2.6771    0.0000 C   0  0  0  0  0  0  0  0  0
   -0.1135   -3.1620    0.0000 N   0  0  0  0  0  0  0  0  0
   -0.3685   -3.9466    0.0000 C   0  0  0  0  0  0  0  0  0
   -1.1935   -3.9466    0.0000 C   0  0  0  0  0  0  0  0  0
   -1.4484   -3.1620    0.0000 C   0  0  0  0  0  0  0  0  0
    0.6711   -2.9071    0.0000 C   0  0  0  0  0  0  0  0  0
    1.2842   -3.4591    0.0000 C   0  0  0  0  0  0  0  0  0
   -2.9244   -0.6146    0.0000 C   0  0  0  0  0  0  0  0  0
   -2.9244   -1.4396    0.0000 O   0  0  0  0  0  0  0  0  0
   -3.6388   -1.8521    0.0000 C   0  0  0  0  0  0  0  0  0
   -3.6388   -0.2021    0.0000 C   0  0  0  0  0  0  0  0  0
   -3.6388    0.6229    0.0000 C   0  0  0  0  0  0  0  0  0
   -4.3533    1.0354    0.0000 N   0  0  0  0  0  0  0  0  0
  1  2  2  0  0  0  0
  1  3  2  0  0  0  0
  1  4  1  0  0  0  0
  1  6  1  0  0  0  0
  4  5  1  0  0  0  0
  6  7  4  0  0  0  0
  6 24  4  0  0  0  0
  7  8  4  0  0  0  0
  8  9  1  0  0  0  0
  8 20  4  0  0  0  0
  9 10  2  0  0  0  0
  9 11  1  0  0  0  0
 11 12  1  0  0  0  0
 12 13  1  0  0  0  0
 13 14  1  0  0  0  0
 13 17  1  0  0  0  0
 14 15  1  0  0  0  0
 14 18  1  0  0  0  0
 15 16  1  0  0  0  0
 16 17  1  0  0  0  0
 18 19  1  0  0  0  0
 20 21  1  0  0  0  0
 20 23  4  0  0  0  0
 21 22  1  0  0  0  0
 23 24  4  0  0  0  0
 24 25  1  0  0  0  0
M  END
>  <Name_Molregno>
389011

>  <5-HT1A>
5

>  <5-HT1B>
5.76

>  <5-HT1D>
5.87

>  <5-HT1E>
5

>  <5-HT2A>
5.64

>  <5-HT2C>
5

>  <5-HT3>
5

>  <5-HT5>
5

>  <5-HT6>
5.38

>  <5-HT7>
7.47

>  <Alpha-1A>
5

>  <Alpha-1B>
5

>  <Alpha-2A>
5.95

>  <Alpha-2C>
5.81

>  <Beta-1>
5

>  <Beta-2>
5

>  <DOPAMINE D1>
5

>  <DOPAMINE D2>
8.71

>  <DOPAMINE D3>
8.51

>  <DOPAMINE D4>
5.63

>  <DOPAMINE D5>
5

>  <Dopamine transporter>
5

>  <HISTAMINE H1>
5

>  <HISTAMINE H2>
5

>  <HISTAMINE H4>
5

>  <Muscarinic acetylcholine receptor M1>
5

>  <Muscarinic acetylcholine receptor M2>
5

>  <Muscarinic acetylcholine receptor M3>
5

>  <Muscarinic acetylcholine receptor M4>
5

>  <Muscarinic acetylcholine receptor M5>
5

>  <Norepinephrine transporter>
5

>  <Serotonin transporter>
5

$$$$
402018
  Marvin  02231216192D 0   1.00000     0.00000     0

 28 31  0  0  0  0  0  0  0  0999 V2000
   -0.0682    1.2463    0.0000 O   0  0  0  0  0  0  0  0  0
    0.7164    1.5012    0.0000 C   0  0  0  0  0  0  0  0  0
    0.7164    2.3262    0.0000 C   0  0  0  0  0  0  0  0  0
   -0.0682    2.5811    0.0000 N   0  0  0  0  0  0  0  0  0
   -0.5532    1.9137    0.0000 C   0  0  0  0  0  0  0  0  0
   -1.3782    1.9137    0.0000 N   0  0  0  0  0  0  0  0  0
   -1.7907    1.1992    0.0000 C   0  0  0  0  0  0  0  0  0
   -1.3782    0.4848    0.0000 C   0  0  0  0  0  0  0  0  0
   -1.7907   -0.2297    0.0000 C   0  0  0  0  0  0  0  0  0
   -2.6157   -0.2297    0.0000 N   0  0  0  0  0  0  0  0  0
   -3.0282    0.4848    0.0000 C   0  0  0  0  0  0  0  0  0
   -2.6157    1.1992    0.0000 C   0  0  0  0  0  0  0  0  0
   -3.0282   -0.9442    0.0000 C   0  0  0  0  0  0  0  0  0
   -3.8532   -0.9442    0.0000 C   0  0  0  0  0  0  0  0  0
   -4.2657   -1.6587    0.0000 C   0  0  0  0  0  0  0  0  0
   -5.0907   -1.6587    0.0000 C   0  0  0  0  0  0  0  0  0
   -5.5032   -2.3731    0.0000 O   0  0  0  0  0  0  0  0  0
   -6.3282   -2.3731    0.0000 C   0  0  0  0  0  0  0  0  0
   -6.7407   -3.0876    0.0000 C   0  0  0  0  0  0  0  0  0
   -5.5032   -0.9442    0.0000 C   0  0  0  0  0  0  0  0  0
   -6.3282   -0.9442    0.0000 O   0  0  0  0  0  0  0  0  0
   -6.7407   -0.2297    0.0000 C   0  0  0  0  0  0  0  0  0
   -5.0907   -0.2297    0.0000 C   0  0  0  0  0  0  0  0  0
   -4.2657   -0.2297    0.0000 C   0  0  0  0  0  0  0  0  0
    1.4308    2.7387    0.0000 C   0  0  0  0  0  0  0  0  0
    2.1453    2.3262    0.0000 C   0  0  0  0  0  0  0  0  0
    2.1453    1.5012    0.0000 C   0  0  0  0  0  0  0  0  0
    1.4308    1.0887    0.0000 C   0  0  0  0  0  0  0  0  0
  1  2  4  0  0  0  0
  1  5  4  0  0  0  0
  2  3  4  0  0  0  0
  2 28  4  0  0  0  0
  3  4  4  0  0  0  0
  3 25  4  0  0  0  0
  4  5  4  0  0  0  0
  5  6  1  0  0  0  0
  6  7  1  0  0  0  0
  7  8  1  0  0  0  0
  7 12  1  0  0  0  0
  8  9  1  0  0  0  0
  9 10  1  0  0  0  0
 10 11  1  0  0  0  0
 10 13  1  0  0  0  0
 11 12  1  0  0  0  0
 13 14  1  0  0  0  0
 14 15  4  0  0  0  0
 14 24  4  0  0  0  0
 15 16  4  0  0  0  0
 16 17  1  0  0  0  0
 16 20  4  0  0  0  0
 17 18  1  0  0  0  0
 18 19  1  0  0  0  0
 20 21  1  0  0  0  0
 20 23  4  0  0  0  0
 21 22  1  0  0  0  0
 23 24  4  0  0  0  0
 25 26  4  0  0  0  0
 26 27  4  0  0  0  0
 27 28  4  0  0  0  0
M  END
>  <Name_Molregno>
402018

>  <HISTAMINE H1>
6.2

$$$$
402022
  Marvin  02231216192D 0   1.00000     0.00000     0

 27 30  0  0  0  0  0  0  0  0999 V2000
    3.5366   -4.6236    0.0000 F   0  0  0  0  0  0  0  0  0
    3.1241   -3.9091    0.0000 C   0  0  0  0  0  0  0  0  0
    2.2991   -3.9091    0.0000 C   0  0  0  0  0  0  0  0  0
    1.8866   -3.1947    0.0000 C   0  0  0  0  0  0  0  0  0
    2.2991   -2.4802    0.0000 C   0  0  0  0  0  0  0  0  0
    3.1241   -2.4802    0.0000 C   0  0  0  0  0  0  0  0  0
    3.5366   -3.1947    0.0000 C   0  0  0  0  0  0  0  0  0
    4.3616   -3.1947    0.0000 O   0  0  0  0  0  0  0  0  0
    4.7741   -3.9091    0.0000 C   0  0  0  0  0  0  0  0  0
    5.5991   -3.9091    0.0000 C   0  0  0  0  0  0  0  0  0
    1.8866   -1.7657    0.0000 C   0  0  0  0  0  0  0  0  0
    2.2991   -1.0512    0.0000 N   0  0  0  0  0  0  0  0  0
    1.8866   -0.3368    0.0000 C   0  0  0  0  0  0  0  0  0
    2.2991    0.3777    0.0000 C   0  0  0  0  0  0  0  0  0
    3.1241    0.3777    0.0000 C   0  0  0  0  0  0  0  0  0
    3.5366    1.0922    0.0000 N   0  0  0  0  0  0  0  0  0
    4.3616    1.0922    0.0000 C   0  0  0  0  0  0  0  0  0
    4.8465    0.4247    0.0000 O   0  0  0  0  0  0  0  0  0
    5.6311    0.6797    0.0000 C   0  0  0  0  0  0  0  0  0
    5.6311    1.5047    0.0000 C   0  0  0  0  0  0  0  0  0
    4.8465    1.7596    0.0000 N   0  0  0  0  0  0  0  0  0
    6.3456    1.9172    0.0000 C   0  0  0  0  0  0  0  0  0
    7.0600    1.5047    0.0000 C   0  0  0  0  0  0  0  0  0
    7.0600    0.6797    0.0000 C   0  0  0  0  0  0  0  0  0
    6.3456    0.2672    0.0000 C   0  0  0  0  0  0  0  0  0
    3.5366   -0.3368    0.0000 C   0  0  0  0  0  0  0  0  0
    3.1241   -1.0512    0.0000 C   0  0  0  0  0  0  0  0  0
  1  2  1  0  0  0  0
  2  3  4  0  0  0  0
  2  7  4  0  0  0  0
  3  4  4  0  0  0  0
  4  5  4  0  0  0  0
  5  6  4  0  0  0  0
  5 11  1  0  0  0  0
  6  7  4  0  0  0  0
  7  8  1  0  0  0  0
  8  9  1  0  0  0  0
  9 10  1  0  0  0  0
 11 12  1  0  0  0  0
 12 13  1  0  0  0  0
 12 27  1  0  0  0  0
 13 14  1  0  0  0  0
 14 15  1  0  0  0  0
 15 16  1  0  0  0  0
 15 26  1  0  0  0  0
 16 17  1  0  0  0  0
 17 18  4  0  0  0  0
 17 21  4  0  0  0  0
 18 19  4  0  0  0  0
 19 20  4  0  0  0  0
 19 25  4  0  0  0  0
 20 21  4  0  0  0  0
 20 22  4  0  0  0  0
 22 23  4  0  0  0  0
 23 24  4  0  0  0  0
 24 25  4  0  0  0  0
 26 27  1  0  0  0  0
M  END
>  <Name_Molregno>
402022

>  <HISTAMINE H1>
6.08

$$$$
402023
  Marvin  02231216192D 0   1.00000     0.00000     0

 27 30  0  0  0  0  0  0  0  0999 V2000
    3.5366   -4.6236    0.0000 Cl  0  0  0  0  0  0  0  0  0
    3.1241   -3.9091    0.0000 C   0  0  0  0  0  0  0  0  0
    2.2991   -3.9091    0.0000 C   0  0  0  0  0  0  0  0  0
    1.8866   -3.1947    0.0000 C   0  0  0  0  0  0  0  0  0
    2.2991   -2.4802    0.0000 C   0  0  0  0  0  0  0  0  0
    3.1241   -2.4802    0.0000 C   0  0  0  0  0  0  0  0  0
    3.5366   -3.1947    0.0000 C   0  0  0  0  0  0  0  0  0
    4.3616   -3.1947    0.0000 O   0  0  0  0  0  0  0  0  0
    4.7741   -3.9091    0.0000 C   0  0  0  0  0  0  0  0  0
    5.5991   -3.9091    0.0000 C   0  0  0  0  0  0  0  0  0
    1.8866   -1.7657    0.0000 C   0  0  0  0  0  0  0  0  0
    2.2991   -1.0512    0.0000 N   0  0  0  0  0  0  0  0  0
    1.8866   -0.3368    0.0000 C   0  0  0  0  0  0  0  0  0
    2.2991    0.3777    0.0000 C   0  0  0  0  0  0  0  0  0
    3.1241    0.3777    0.0000 C   0  0  0  0  0  0  0  0  0
    3.5366    1.0922    0.0000 N   0  0  0  0  0  0  0  0  0
    4.3616    1.0922    0.0000 C   0  0  0  0  0  0  0  0  0
    4.8465    0.4247    0.0000 O   0  0  0  0  0  0  0  0  0
    5.6311    0.6797    0.0000 C   0  0  0  0  0  0  0  0  0
    5.6311    1.5047    0.0000 C   0  0  0  0  0  0  0  0  0
    4.8465    1.7596    0.0000 N   0  0  0  0  0  0  0  0  0
    6.3456    1.9172    0.0000 C   0  0  0  0  0  0  0  0  0
    7.0600    1.5047    0.0000 C   0  0  0  0  0  0  0  0  0
    7.0600    0.6797    0.0000 C   0  0  0  0  0  0  0  0  0
    6.3456    0.2672    0.0000 C   0  0  0  0  0  0  0  0  0
    3.5366   -0.3368    0.0000 C   0  0  0  0  0  0  0  0  0
    3.1241   -1.0512    0.0000 C   0  0  0  0  0  0  0  0  0
  1  2  1  0  0  0  0
  2  3  4  0  0  0  0
  2  7  4  0  0  0  0
  3  4  4  0  0  0  0
  4  5  4  0  0  0  0
  5  6  4  0  0  0  0
  5 11  1  0  0  0  0
  6  7  4  0  0  0  0
  7  8  1  0  0  0  0
  8  9  1  0  0  0  0
  9 10  1  0  0  0  0
 11 12  1  0  0  0  0
 12 13  1  0  0  0  0
 12 27  1  0  0  0  0
 13 14  1  0  0  0  0
 14 15  1  0  0  0  0
 15 16  1  0  0  0  0
 15 26  1  0  0  0  0
 16 17  1  0  0  0  0
 17 18  4  0  0  0  0
 17 21  4  0  0  0  0
 18 19  4  0  0  0  0
 19 20  4  0  0  0  0
 19 25  4  0  0  0  0
 20 21  4  0  0  0  0
 20 22  4  0  0  0  0
 22 23  4  0  0  0  0
 23 24  4  0  0  0  0
 24 25  4  0  0  0  0
 26 27  1  0  0  0  0
M  END
>  <Name_Molregno>
402023

>  <HISTAMINE H1>
6.58

$$$$
402026
  Marvin  02231216192D 0   1.00000     0.00000     0

 32 35  0  0  0  0  0  0  0  0999 V2000
   -1.4203   -3.0606    0.0000 S   0  0  0  0  0  0  0  0  0
   -0.7058   -3.4731    0.0000 O   0  0  0  0  0  0  0  0  0
   -1.0078   -2.3461    0.0000 O   0  0  0  0  0  0  0  0  0
   -1.8328   -3.7751    0.0000 N   0  0  0  0  0  0  0  0  0
   -2.1348   -2.6481    0.0000 C   0  0  0  0  0  0  0  0  0
   -2.8492   -3.0606    0.0000 C   0  0  0  0  0  0  0  0  0
   -3.5637   -2.6481    0.0000 C   0  0  0  0  0  0  0  0  0
   -4.3483   -2.9030    0.0000 N   0  0  0  0  0  0  0  0  0
   -4.8332   -2.2356    0.0000 C   0  0  0  0  0  0  0  0  0
   -4.3483   -1.5682    0.0000 O   0  0  0  0  0  0  0  0  0
   -3.5637   -1.8231    0.0000 C   0  0  0  0  0  0  0  0  0
   -2.8492   -1.4106    0.0000 C   0  0  0  0  0  0  0  0  0
   -2.1348   -1.8231    0.0000 C   0  0  0  0  0  0  0  0  0
   -5.6582   -2.2356    0.0000 N   0  0  0  0  0  0  0  0  0
   -6.0707   -1.5211    0.0000 C   0  0  0  0  0  0  0  0  0
   -6.8957   -1.5211    0.0000 C   0  0  0  0  0  0  0  0  0
   -7.3082   -0.8067    0.0000 C   0  0  0  0  0  0  0  0  0
   -6.8957   -0.0922    0.0000 N   0  0  0  0  0  0  0  0  0
   -6.0707   -0.0922    0.0000 C   0  0  0  0  0  0  0  0  0
   -5.6582   -0.8067    0.0000 C   0  0  0  0  0  0  0  0  0
   -7.3082    0.6223    0.0000 C   0  0  0  0  0  0  0  0  0
   -6.8957    1.3368    0.0000 C   0  0  0  0  0  0  0  0  0
   -7.3082    2.0512    0.0000 C   0  0  0  0  0  0  0  0  0
   -6.8957    2.7657    0.0000 C   0  0  0  0  0  0  0  0  0
   -7.3082    3.4802    0.0000 O   0  0  0  0  0  0  0  0  0
   -6.8957    4.1946    0.0000 C   0  0  0  0  0  0  0  0  0
   -7.3082    4.9091    0.0000 C   0  0  0  0  0  0  0  0  0
   -6.0707    2.7657    0.0000 C   0  0  0  0  0  0  0  0  0
   -5.6582    3.4802    0.0000 O   0  0  0  0  0  0  0  0  0
   -4.8332    3.4802    0.0000 C   0  0  0  0  0  0  0  0  0
   -5.6582    2.0512    0.0000 C   0  0  0  0  0  0  0  0  0
   -6.0707    1.3368    0.0000 C   0  0  0  0  0  0  0  0  0
  1  2  2  0  0  0  0
  1  3  2  0  0  0  0
  1  4  1  0  0  0  0
  1  5  1  0  0  0  0
  5  6  4  0  0  0  0
  5 13  4  0  0  0  0
  6  7  4  0  0  0  0
  7  8  4  0  0  0  0
  7 11  4  0  0  0  0
  8  9  4  0  0  0  0
  9 10  4  0  0  0  0
  9 14  1  0  0  0  0
 10 11  4  0  0  0  0
 11 12  4  0  0  0  0
 12 13  4  0  0  0  0
 14 15  1  0  0  0  0
 15 16  1  0  0  0  0
 15 20  1  0  0  0  0
 16 17  1  0  0  0  0
 17 18  1  0  0  0  0
 18 19  1  0  0  0  0
 18 21  1  0  0  0  0
 19 20  1  0  0  0  0
 21 22  1  0  0  0  0
 22 23  4  0  0  0  0
 22 32  4  0  0  0  0
 23 24  4  0  0  0  0
 24 25  1  0  0  0  0
 24 28  4  0  0  0  0
 25 26  1  0  0  0  0
 26 27  1  0  0  0  0
 28 29  1  0  0  0  0
 28 31  4  0  0  0  0
 29 30  1  0  0  0  0
 31 32  4  0  0  0  0
M  END
>  <Name_Molregno>
402026

>  <HISTAMINE H1>
6.28

$$$$
402028
  Marvin  02231216192D 0   1.00000     0.00000     0

 34 37  0  0  0  0  0  0  0  0999 V2000
   -1.2190   -0.8288    0.0000 S   0  0  0  0  0  0  0  0  0
   -0.5046   -1.2413    0.0000 O   0  0  0  0  0  0  0  0  0
   -0.8065   -0.1143    0.0000 O   0  0  0  0  0  0  0  0  0
   -1.6315   -1.5432    0.0000 N   0  0  0  0  0  0  0  0  0
   -1.9335   -0.4163    0.0000 C   0  0  0  0  0  0  0  0  0
   -2.6480   -0.8288    0.0000 C   0  0  0  0  0  0  0  0  0
   -3.3625   -0.4163    0.0000 C   0  0  0  0  0  0  0  0  0
   -4.1471   -0.6712    0.0000 N   0  0  0  0  0  0  0  0  0
   -4.6320   -0.0038    0.0000 C   0  0  0  0  0  0  0  0  0
   -4.1471    0.6637    0.0000 O   0  0  0  0  0  0  0  0  0
   -3.3625    0.4087    0.0000 C   0  0  0  0  0  0  0  0  0
   -2.6480    0.8212    0.0000 C   0  0  0  0  0  0  0  0  0
   -1.9335    0.4087    0.0000 C   0  0  0  0  0  0  0  0  0
   -5.4570   -0.0038    0.0000 N   0  0  0  0  0  0  0  0  0
   -5.8695    0.7107    0.0000 C   0  0  0  0  0  0  0  0  0
   -6.6945    0.7107    0.0000 C   0  0  0  0  0  0  0  0  0
   -7.1070    1.4252    0.0000 C   0  0  0  0  0  0  0  0  0
   -6.6945    2.1396    0.0000 N   0  0  0  0  0  0  0  0  0
   -5.8695    2.1396    0.0000 C   0  0  0  0  0  0  0  0  0
   -5.4570    1.4252    0.0000 C   0  0  0  0  0  0  0  0  0
   -7.1070    2.8541    0.0000 C   0  0  0  0  0  0  0  0  0
   -6.6945    3.5686    0.0000 C   0  0  0  0  0  0  0  0  0
   -7.1070    4.2830    0.0000 C   0  0  0  0  0  0  0  0  0
   -6.6945    4.9975    0.0000 C   0  0  0  0  0  0  0  0  0
   -7.1070    5.7120    0.0000 O   0  0  0  0  0  0  0  0  0
   -6.6945    6.4265    0.0000 C   0  0  0  0  0  0  0  0  0
   -7.1070    7.1409    0.0000 C   0  0  0  0  0  0  0  0  0
   -5.8695    4.9975    0.0000 C   0  0  0  0  0  0  0  0  0
   -5.4570    5.7120    0.0000 N   0  0  0  0  0  0  0  0  0
   -5.4570    4.2830    0.0000 C   0  0  0  0  0  0  0  0  0
   -4.6320    4.2830    0.0000 O   0  0  0  0  0  0  0  0  0
   -4.2195    4.9975    0.0000 C   0  0  0  0  0  0  0  0  0
   -3.3945    4.9975    0.0000 C   0  0  0  0  0  0  0  0  0
   -5.8695    3.5686    0.0000 C   0  0  0  0  0  0  0  0  0
  1  2  2  0  0  0  0
  1  3  2  0  0  0  0
  1  4  1  0  0  0  0
  1  5  1  0  0  0  0
  5  6  4  0  0  0  0
  5 13  4  0  0  0  0
  6  7  4  0  0  0  0
  7  8  4  0  0  0  0
  7 11  4  0  0  0  0
  8  9  4  0  0  0  0
  9 10  4  0  0  0  0
  9 14  1  0  0  0  0
 10 11  4  0  0  0  0
 11 12  4  0  0  0  0
 12 13  4  0  0  0  0
 14 15  1  0  0  0  0
 15 16  1  0  0  0  0
 15 20  1  0  0  0  0
 16 17  1  0  0  0  0
 17 18  1  0  0  0  0
 18 19  1  0  0  0  0
 18 21  1  0  0  0  0
 19 20  1  0  0  0  0
 21 22  1  0  0  0  0
 22 23  4  0  0  0  0
 22 34  4  0  0  0  0
 23 24  4  0  0  0  0
 24 25  1  0  0  0  0
 24 28  4  0  0  0  0
 25 26  1  0  0  0  0
 26 27  1  0  0  0  0
 28 29  1  0  0  0  0
 28 30  4  0  0  0  0
 30 31  1  0  0  0  0
 30 34  4  0  0  0  0
 31 32  1  0  0  0  0
 32 33  1  0  0  0  0
M  END
>  <Name_Molregno>
402028

>  <HISTAMINE H1>
5.59

$$$$
402491
  Marvin  02231216192D 0   1.00000     0.00000     0

 27 29  0  0  0  0  0  0  0  0999 V2000
    2.1709    2.6297    0.0000 Cl  0  0  0  0  0  0  0  0  0
    2.1709    1.8047    0.0000 C   0  0  0  0  0  0  0  0  0
    2.8854    1.3922    0.0000 C   0  0  0  0  0  0  0  0  0
    2.8854    0.5672    0.0000 C   0  0  0  0  0  0  0  0  0
    2.1709    0.1547    0.0000 C   0  0  0  0  0  0  0  0  0
    1.4564    0.5672    0.0000 C   0  0  0  0  0  0  0  0  0
    1.4564    1.3922    0.0000 C   0  0  0  0  0  0  0  0  0
    0.7420    1.8047    0.0000 O   0  0  0  0  0  0  0  0  0
    0.7420    2.6297    0.0000 C   0  0  0  0  0  0  0  0  0
    0.0275    3.0422    0.0000 C   0  0  0  0  0  0  0  0  0
    2.1709   -0.6703    0.0000 C   0  0  0  0  0  0  0  0  0
    2.8854   -1.0828    0.0000 N   0  0  0  0  0  0  0  0  0
    3.5998   -0.6703    0.0000 C   0  0  0  0  0  0  0  0  0
    4.3143   -1.0828    0.0000 C   0  0  0  0  0  0  0  0  0
    4.3143   -1.9078    0.0000 C   0  0  0  0  0  0  0  0  0
    5.0288   -2.3203    0.0000 N   0  0  0  0  0  0  0  0  0
    5.7433   -1.9078    0.0000 C   0  0  0  0  0  0  0  0  0
    5.7433   -1.0828    0.0000 O   0  0  0  0  0  0  0  0  0
    6.4577   -2.3203    0.0000 C   0  0  0  0  0  0  0  0  0
    7.1722   -1.9078    0.0000 C   0  0  0  0  0  0  0  0  0
    7.8867   -2.3203    0.0000 C   0  0  0  0  0  0  0  0  0
    7.8867   -3.1453    0.0000 C   0  0  0  0  0  0  0  0  0
    7.1722   -3.5578    0.0000 N   0  0  0  0  0  0  0  0  0
    6.4577   -3.1453    0.0000 C   0  0  0  0  0  0  0  0  0
    8.6011   -1.9078    0.0000 C   0  0  0  0  0  0  0  0  0
    3.5998   -2.3203    0.0000 C   0  0  0  0  0  0  0  0  0
    2.8854   -1.9078    0.0000 C   0  0  0  0  0  0  0  0  0
  1  2  1  0  0  0  0
  2  3  4  0  0  0  0
  2  7  4  0  0  0  0
  3  4  4  0  0  0  0
  4  5  4  0  0  0  0
  5  6  4  0  0  0  0
  5 11  1  0  0  0  0
  6  7  4  0  0  0  0
  7  8  1  0  0  0  0
  8  9  1  0  0  0  0
  9 10  1  0  0  0  0
 11 12  1  0  0  0  0
 12 13  1  0  0  0  0
 12 27  1  0  0  0  0
 13 14  1  0  0  0  0
 14 15  1  0  0  0  0
 15 16  1  0  0  0  0
 15 26  1  0  0  0  0
 16 17  1  0  0  0  0
 17 18  2  0  0  0  0
 17 19  1  0  0  0  0
 19 20  4  0  0  0  0
 19 24  4  0  0  0  0
 20 21  4  0  0  0  0
 21 22  4  0  0  0  0
 21 25  1  0  0  0  0
 22 23  4  0  0  0  0
 23 24  4  0  0  0  0
 26 27  1  0  0  0  0
M  END
>  <Name_Molregno>
402491

>  <HISTAMINE H1>
6.57

$$$$
402492
  Marvin  02231216192D 0   1.00000     0.00000     0

 30 32  0  0  0  0  0  0  0  0999 V2000
    2.2088    2.7128    0.0000 Cl  0  0  0  0  0  0  0  0  0
    2.2088    1.8878    0.0000 C   0  0  0  0  0  0  0  0  0
    2.9233    1.4753    0.0000 C   0  0  0  0  0  0  0  0  0
    2.9233    0.6503    0.0000 C   0  0  0  0  0  0  0  0  0
    2.2088    0.2378    0.0000 C   0  0  0  0  0  0  0  0  0
    1.4943    0.6503    0.0000 C   0  0  0  0  0  0  0  0  0
    1.4943    1.4753    0.0000 C   0  0  0  0  0  0  0  0  0
    0.7799    1.8878    0.0000 O   0  0  0  0  0  0  0  0  0
    0.7799    2.7128    0.0000 C   0  0  0  0  0  0  0  0  0
    0.0654    3.1253    0.0000 C   0  0  0  0  0  0  0  0  0
    2.2088   -0.5872    0.0000 C   0  0  0  0  0  0  0  0  0
    2.9233   -0.9997    0.0000 N   0  0  0  0  0  0  0  0  0
    3.6378   -0.5872    0.0000 C   0  0  0  0  0  0  0  0  0
    4.3522   -0.9997    0.0000 C   0  0  0  0  0  0  0  0  0
    4.3522   -1.8247    0.0000 C   0  0  0  0  0  0  0  0  0
    5.0667   -2.2372    0.0000 N   0  0  0  0  0  0  0  0  0
    5.7812   -1.8247    0.0000 C   0  0  0  0  0  0  0  0  0
    5.7812   -0.9997    0.0000 O   0  0  0  0  0  0  0  0  0
    6.4956   -2.2372    0.0000 C   0  0  0  0  0  0  0  0  0
    7.2101   -1.8247    0.0000 C   0  0  0  0  0  0  0  0  0
    7.9246   -2.2372    0.0000 C   0  0  0  0  0  0  0  0  0
    8.6391   -1.8247    0.0000 S   0  0  0  0  0  0  0  0  0
    9.3535   -1.4122    0.0000 O   0  0  0  0  0  0  0  0  0
    9.0516   -2.5391    0.0000 O   0  0  0  0  0  0  0  0  0
    8.2266   -1.1102    0.0000 C   0  0  0  0  0  0  0  0  0
    7.9246   -3.0622    0.0000 C   0  0  0  0  0  0  0  0  0
    7.2101   -3.4747    0.0000 C   0  0  0  0  0  0  0  0  0
    6.4956   -3.0622    0.0000 C   0  0  0  0  0  0  0  0  0
    3.6378   -2.2372    0.0000 C   0  0  0  0  0  0  0  0  0
    2.9233   -1.8247    0.0000 C   0  0  0  0  0  0  0  0  0
  1  2  1  0  0  0  0
  2  3  4  0  0  0  0
  2  7  4  0  0  0  0
  3  4  4  0  0  0  0
  4  5  4  0  0  0  0
  5  6  4  0  0  0  0
  5 11  1  0  0  0  0
  6  7  4  0  0  0  0
  7  8  1  0  0  0  0
  8  9  1  0  0  0  0
  9 10  1  0  0  0  0
 11 12  1  0  0  0  0
 12 13  1  0  0  0  0
 12 30  1  0  0  0  0
 13 14  1  0  0  0  0
 14 15  1  0  0  0  0
 15 16  1  0  0  0  0
 15 29  1  0  0  0  0
 16 17  1  0  0  0  0
 17 18  2  0  0  0  0
 17 19  1  0  0  0  0
 19 20  4  0  0  0  0
 19 28  4  0  0  0  0
 20 21  4  0  0  0  0
 21 22  1  0  0  0  0
 21 26  4  0  0  0  0
 22 23  2  0  0  0  0
 22 24  2  0  0  0  0
 22 25  1  0  0  0  0
 26 27  4  0  0  0  0
 27 28  4  0  0  0  0
 29 30  1  0  0  0  0
M  END
>  <Name_Molregno>
402492

>  <HISTAMINE H1>
5.3

$$$$
405680
  Marvin  02231216192D 0   1.00000     0.00000     0

 32 35  0  0  0  0  0  0  0  0999 V2000
   -2.7718    5.0725    0.0000 F   0  0  0  0  0  0  0  0  0
   -2.7718    4.2475    0.0000 C   0  0  0  0  0  0  0  0  0
   -2.0573    3.8350    0.0000 C   0  0  0  0  0  0  0  0  0
   -2.0573    3.0100    0.0000 C   0  0  0  0  0  0  0  0  0
   -2.7718    2.5975    0.0000 C   0  0  0  0  0  0  0  0  0
   -3.4863    3.0100    0.0000 C   0  0  0  0  0  0  0  0  0
   -3.4863    3.8350    0.0000 C   0  0  0  0  0  0  0  0  0
   -2.7718    1.7725    0.0000 C   0  0  0  0  0  0  0  0  0
   -2.0573    1.3600    0.0000 O   0  0  0  0  0  0  0  0  0
   -3.4863    1.3600    0.0000 N   0  0  0  0  0  0  0  0  0
   -3.4863    0.5350    0.0000 C   0  0  0  0  0  0  0  0  0
   -4.2008    0.1225    0.0000 C   0  0  0  0  0  0  0  0  0
   -4.2008   -0.7025    0.0000 O   0  0  0  0  0  0  0  0  0
   -4.9152    0.5350    0.0000 N   0  0  0  0  0  0  0  0  0
   -4.9152    1.3600    0.0000 C   0  0  0  0  0  0  0  0  0
   -4.2008    1.7725    0.0000 C   0  0  0  0  0  0  0  0  0
   -5.6297    0.1225    0.0000 C   0  0  0  0  0  0  0  0  0
   -5.6297   -0.7025    0.0000 C   0  0  0  0  0  0  0  0  0
   -6.3442   -1.1150    0.0000 C   0  0  0  0  0  0  0  0  0
   -7.0586   -0.7025    0.0000 C   0  0  0  0  0  0  0  0  0
   -7.7731   -1.1150    0.0000 O   0  0  0  0  0  0  0  0  0
   -7.7731   -1.9400    0.0000 C   0  0  0  0  0  0  0  0  0
   -8.4876   -2.3525    0.0000 C   0  0  0  0  0  0  0  0  0
   -8.4876   -3.1775    0.0000 C   0  0  0  0  0  0  0  0  0
   -9.2021   -3.5900    0.0000 N   0  0  0  0  0  0  0  0  0
   -9.2021   -4.4150    0.0000 C   0  0  0  0  0  0  0  0  0
   -9.9165   -4.8275    0.0000 C   0  0  0  0  0  0  0  0  0
  -10.6310   -4.4150    0.0000 C   0  0  0  0  0  0  0  0  0
  -10.6310   -3.5900    0.0000 C   0  0  0  0  0  0  0  0  0
   -9.9165   -3.1775    0.0000 C   0  0  0  0  0  0  0  0  0
   -7.0586    0.1225    0.0000 C   0  0  0  0  0  0  0  0  0
   -6.3442    0.5350    0.0000 C   0  0  0  0  0  0  0  0  0
  1  2  1  0  0  0  0
  2  3  4  0  0  0  0
  2  7  4  0  0  0  0
  3  4  4  0  0  0  0
  4  5  4  0  0  0  0
  5  6  4  0  0  0  0
  5  8  1  0  0  0  0
  6  7  4  0  0  0  0
  8  9  2  0  0  0  0
  8 10  1  0  0  0  0
 10 11  1  0  0  0  0
 10 16  1  0  0  0  0
 11 12  1  0  0  0  0
 12 13  2  0  0  0  0
 12 14  1  0  0  0  0
 14 15  1  0  0  0  0
 14 17  1  0  0  0  0
 15 16  1  0  0  0  0
 17 18  4  0  0  0  0
 17 32  4  0  0  0  0
 18 19  4  0  0  0  0
 19 20  4  0  0  0  0
 20 21  1  0  0  0  0
 20 31  4  0  0  0  0
 21 22  1  0  0  0  0
 22 23  1  0  0  0  0
 23 24  1  0  0  0  0
 24 25  1  0  0  0  0
 25 26  1  0  0  0  0
 25 30  1  0  0  0  0
 26 27  1  0  0  0  0
 27 28  1  0  0  0  0
 28 29  1  0  0  0  0
 29 30  1  0  0  0  0
 31 32  4  0  0  0  0
M  END
>  <Name_Molregno>
405680

>  <Alpha-1A>
5.6

>  <Alpha-1B>
5.6

>  <HISTAMINE H1>
5.7

>  <HISTAMINE H3>
8.75

$$$$
405684
  Marvin  02231216192D 0   1.00000     0.00000     0

 35 38  0  0  0  0  0  0  0  0999 V2000
    7.9444    4.6287    0.0000 S   0  0  0  0  0  0  0  0  0
    7.9444    5.4537    0.0000 O   0  0  0  0  0  0  0  0  0
    7.1194    4.6287    0.0000 O   0  0  0  0  0  0  0  0  0
    8.7694    4.6287    0.0000 C   0  0  0  0  0  0  0  0  0
    7.9444    3.8037    0.0000 C   0  0  0  0  0  0  0  0  0
    8.6589    3.3912    0.0000 C   0  0  0  0  0  0  0  0  0
    8.6589    2.5662    0.0000 C   0  0  0  0  0  0  0  0  0
    7.9444    2.1537    0.0000 C   0  0  0  0  0  0  0  0  0
    7.2299    2.5662    0.0000 C   0  0  0  0  0  0  0  0  0
    7.2299    3.3912    0.0000 C   0  0  0  0  0  0  0  0  0
    7.9444    1.3287    0.0000 C   0  0  0  0  0  0  0  0  0
    8.6589    0.9162    0.0000 O   0  0  0  0  0  0  0  0  0
    7.2299    0.9162    0.0000 N   0  0  0  0  0  0  0  0  0
    7.2299    0.0912    0.0000 C   0  0  0  0  0  0  0  0  0
    6.5155   -0.3213    0.0000 C   0  0  0  0  0  0  0  0  0
    6.5155   -1.1463    0.0000 O   0  0  0  0  0  0  0  0  0
    5.8010    0.0912    0.0000 N   0  0  0  0  0  0  0  0  0
    5.8010    0.9162    0.0000 C   0  0  0  0  0  0  0  0  0
    6.5155    1.3287    0.0000 C   0  0  0  0  0  0  0  0  0
    5.0865   -0.3213    0.0000 C   0  0  0  0  0  0  0  0  0
    5.0865   -1.1463    0.0000 C   0  0  0  0  0  0  0  0  0
    4.3721   -1.5588    0.0000 C   0  0  0  0  0  0  0  0  0
    3.6576   -1.1463    0.0000 C   0  0  0  0  0  0  0  0  0
    2.9431   -1.5588    0.0000 O   0  0  0  0  0  0  0  0  0
    2.9431   -2.3838    0.0000 C   0  0  0  0  0  0  0  0  0
    2.2287   -2.7963    0.0000 C   0  0  0  0  0  0  0  0  0
    2.2287   -3.6213    0.0000 C   0  0  0  0  0  0  0  0  0
    1.5142   -4.0338    0.0000 N   0  0  0  0  0  0  0  0  0
    1.5142   -4.8588    0.0000 C   0  0  0  0  0  0  0  0  0
    0.7997   -5.2713    0.0000 C   0  0  0  0  0  0  0  0  0
    0.0852   -4.8588    0.0000 C   0  0  0  0  0  0  0  0  0
    0.0852   -4.0338    0.0000 C   0  0  0  0  0  0  0  0  0
    0.7997   -3.6213    0.0000 C   0  0  0  0  0  0  0  0  0
    3.6576   -0.3213    0.0000 C   0  0  0  0  0  0  0  0  0
    4.3721    0.0912    0.0000 C   0  0  0  0  0  0  0  0  0
  1  2  2  0  0  0  0
  1  3  2  0  0  0  0
  1  4  1  0  0  0  0
  1  5  1  0  0  0  0
  5  6  4  0  0  0  0
  5 10  4  0  0  0  0
  6  7  4  0  0  0  0
  7  8  4  0  0  0  0
  8  9  4  0  0  0  0
  8 11  1  0  0  0  0
  9 10  4  0  0  0  0
 11 12  2  0  0  0  0
 11 13  1  0  0  0  0
 13 14  1  0  0  0  0
 13 19  1  0  0  0  0
 14 15  1  0  0  0  0
 15 16  2  0  0  0  0
 15 17  1  0  0  0  0
 17 18  1  0  0  0  0
 17 20  1  0  0  0  0
 18 19  1  0  0  0  0
 20 21  4  0  0  0  0
 20 35  4  0  0  0  0
 21 22  4  0  0  0  0
 22 23  4  0  0  0  0
 23 24  1  0  0  0  0
 23 34  4  0  0  0  0
 24 25  1  0  0  0  0
 25 26  1  0  0  0  0
 26 27  1  0  0  0  0
 27 28  1  0  0  0  0
 28 29  1  0  0  0  0
 28 33  1  0  0  0  0
 29 30  1  0  0  0  0
 30 31  1  0  0  0  0
 31 32  1  0  0  0  0
 32 33  1  0  0  0  0
 34 35  4  0  0  0  0
M  END
>  <Name_Molregno>
405684

>  <HISTAMINE H1>
5.7

>  <HISTAMINE H3>
8.6

$$$$
405686
  Marvin  02231216192D 0   1.00000     0.00000     0

 35 38  0  0  0  0  0  0  0  0999 V2000
    3.8325    3.9947    0.0000 S   0  0  0  0  0  0  0  0  0
    3.8325    4.8197    0.0000 O   0  0  0  0  0  0  0  0  0
    3.0075    3.9947    0.0000 O   0  0  0  0  0  0  0  0  0
    4.6575    3.9947    0.0000 C   0  0  0  0  0  0  0  0  0
    3.8325    3.1697    0.0000 C   0  0  0  0  0  0  0  0  0
    4.5470    2.7572    0.0000 C   0  0  0  0  0  0  0  0  0
    4.5470    1.9322    0.0000 C   0  0  0  0  0  0  0  0  0
    3.8325    1.5197    0.0000 C   0  0  0  0  0  0  0  0  0
    3.1181    1.9322    0.0000 C   0  0  0  0  0  0  0  0  0
    3.1181    2.7572    0.0000 C   0  0  0  0  0  0  0  0  0
    5.2615    1.5197    0.0000 C   0  0  0  0  0  0  0  0  0
    5.9759    1.9322    0.0000 O   0  0  0  0  0  0  0  0  0
    5.2615    0.6947    0.0000 N   0  0  0  0  0  0  0  0  0
    5.9759    0.2822    0.0000 C   0  0  0  0  0  0  0  0  0
    5.9759   -0.5428    0.0000 C   0  0  0  0  0  0  0  0  0
    6.6904   -0.9553    0.0000 O   0  0  0  0  0  0  0  0  0
    5.2615   -0.9553    0.0000 N   0  0  0  0  0  0  0  0  0
    4.5470   -0.5428    0.0000 C   0  0  0  0  0  0  0  0  0
    4.5470    0.2822    0.0000 C   0  0  0  0  0  0  0  0  0
    5.2615   -1.7803    0.0000 C   0  0  0  0  0  0  0  0  0
    5.9759   -2.1928    0.0000 C   0  0  0  0  0  0  0  0  0
    5.9759   -3.0178    0.0000 C   0  0  0  0  0  0  0  0  0
    5.2615   -3.4303    0.0000 C   0  0  0  0  0  0  0  0  0
    5.2615   -4.2553    0.0000 O   0  0  0  0  0  0  0  0  0
    5.9759   -4.6678    0.0000 C   0  0  0  0  0  0  0  0  0
    5.9759   -5.4928    0.0000 C   0  0  0  0  0  0  0  0  0
    6.6904   -5.9053    0.0000 C   0  0  0  0  0  0  0  0  0
    6.6904   -6.7303    0.0000 N   0  0  0  0  0  0  0  0  0
    7.4049   -7.1428    0.0000 C   0  0  0  0  0  0  0  0  0
    7.4049   -7.9678    0.0000 C   0  0  0  0  0  0  0  0  0
    6.6904   -8.3803    0.0000 C   0  0  0  0  0  0  0  0  0
    5.9759   -7.9678    0.0000 C   0  0  0  0  0  0  0  0  0
    5.9759   -7.1428    0.0000 C   0  0  0  0  0  0  0  0  0
    4.5470   -3.0178    0.0000 C   0  0  0  0  0  0  0  0  0
    4.5470   -2.1928    0.0000 C   0  0  0  0  0  0  0  0  0
  1  2  2  0  0  0  0
  1  3  2  0  0  0  0
  1  4  1  0  0  0  0
  1  5  1  0  0  0  0
  5  6  4  0  0  0  0
  5 10  4  0  0  0  0
  6  7  4  0  0  0  0
  7  8  4  0  0  0  0
  7 11  1  0  0  0  0
  8  9  4  0  0  0  0
  9 10  4  0  0  0  0
 11 12  2  0  0  0  0
 11 13  1  0  0  0  0
 13 14  1  0  0  0  0
 13 19  1  0  0  0  0
 14 15  1  0  0  0  0
 15 16  2  0  0  0  0
 15 17  1  0  0  0  0
 17 18  1  0  0  0  0
 17 20  1  0  0  0  0
 18 19  1  0  0  0  0
 20 21  4  0  0  0  0
 20 35  4  0  0  0  0
 21 22  4  0  0  0  0
 22 23  4  0  0  0  0
 23 24  1  0  0  0  0
 23 34  4  0  0  0  0
 24 25  1  0  0  0  0
 25 26  1  0  0  0  0
 26 27  1  0  0  0  0
 27 28  1  0  0  0  0
 28 29  1  0  0  0  0
 28 33  1  0  0  0  0
 29 30  1  0  0  0  0
 30 31  1  0  0  0  0
 31 32  1  0  0  0  0
 32 33  1  0  0  0  0
 34 35  4  0  0  0  0
M  END
>  <Name_Molregno>
405686

>  <HISTAMINE H1>
5.5

>  <HISTAMINE H3>
8.5

$$$$
405687
  Marvin  02231216192D 0   1.00000     0.00000     0

 33 36  0  0  0  0  0  0  0  0999 V2000
    4.1471    7.4605    0.0000 F   0  0  0  0  0  0  0  0  0
    4.1471    6.6355    0.0000 C   0  0  0  0  0  0  0  0  0
    4.8615    6.2230    0.0000 C   0  0  0  0  0  0  0  0  0
    4.8615    5.3980    0.0000 C   0  0  0  0  0  0  0  0  0
    4.1471    4.9855    0.0000 C   0  0  0  0  0  0  0  0  0
    3.4326    5.3980    0.0000 C   0  0  0  0  0  0  0  0  0
    2.7181    4.9855    0.0000 F   0  0  0  0  0  0  0  0  0
    3.4326    6.2230    0.0000 C   0  0  0  0  0  0  0  0  0
    5.5760    4.9855    0.0000 C   0  0  0  0  0  0  0  0  0
    6.2905    5.3980    0.0000 O   0  0  0  0  0  0  0  0  0
    5.5760    4.1605    0.0000 N   0  0  0  0  0  0  0  0  0
    6.2905    3.7480    0.0000 C   0  0  0  0  0  0  0  0  0
    6.2905    2.9230    0.0000 C   0  0  0  0  0  0  0  0  0
    7.0050    2.5105    0.0000 O   0  0  0  0  0  0  0  0  0
    5.5760    2.5105    0.0000 N   0  0  0  0  0  0  0  0  0
    4.8615    2.9230    0.0000 C   0  0  0  0  0  0  0  0  0
    4.8615    3.7480    0.0000 C   0  0  0  0  0  0  0  0  0
    5.5760    1.6855    0.0000 C   0  0  0  0  0  0  0  0  0
    6.2905    1.2730    0.0000 C   0  0  0  0  0  0  0  0  0
    6.2905    0.4480    0.0000 C   0  0  0  0  0  0  0  0  0
    5.5760    0.0355    0.0000 C   0  0  0  0  0  0  0  0  0
    5.5760   -0.7895    0.0000 O   0  0  0  0  0  0  0  0  0
    6.2905   -1.2020    0.0000 C   0  0  0  0  0  0  0  0  0
    6.2905   -2.0270    0.0000 C   0  0  0  0  0  0  0  0  0
    7.0050   -2.4395    0.0000 C   0  0  0  0  0  0  0  0  0
    7.0050   -3.2645    0.0000 N   0  0  0  0  0  0  0  0  0
    7.7194   -3.6770    0.0000 C   0  0  0  0  0  0  0  0  0
    7.7194   -4.5020    0.0000 C   0  0  0  0  0  0  0  0  0
    7.0050   -4.9145    0.0000 C   0  0  0  0  0  0  0  0  0
    6.2905   -4.5020    0.0000 C   0  0  0  0  0  0  0  0  0
    6.2905   -3.6770    0.0000 C   0  0  0  0  0  0  0  0  0
    4.8615    0.4480    0.0000 C   0  0  0  0  0  0  0  0  0
    4.8615    1.2730    0.0000 C   0  0  0  0  0  0  0  0  0
  1  2  1  0  0  0  0
  2  3  4  0  0  0  0
  2  8  4  0  0  0  0
  3  4  4  0  0  0  0
  4  5  4  0  0  0  0
  4  9  1  0  0  0  0
  5  6  4  0  0  0  0
  6  7  1  0  0  0  0
  6  8  4  0  0  0  0
  9 10  2  0  0  0  0
  9 11  1  0  0  0  0
 11 12  1  0  0  0  0
 11 17  1  0  0  0  0
 12 13  1  0  0  0  0
 13 14  2  0  0  0  0
 13 15  1  0  0  0  0
 15 16  1  0  0  0  0
 15 18  1  0  0  0  0
 16 17  1  0  0  0  0
 18 19  4  0  0  0  0
 18 33  4  0  0  0  0
 19 20  4  0  0  0  0
 20 21  4  0  0  0  0
 21 22  1  0  0  0  0
 21 32  4  0  0  0  0
 22 23  1  0  0  0  0
 23 24  1  0  0  0  0
 24 25  1  0  0  0  0
 25 26  1  0  0  0  0
 26 27  1  0  0  0  0
 26 31  1  0  0  0  0
 27 28  1  0  0  0  0
 28 29  1  0  0  0  0
 29 30  1  0  0  0  0
 30 31  1  0  0  0  0
 32 33  4  0  0  0  0
M  END
>  <Name_Molregno>
405687

>  <HISTAMINE H1>
5.7

>  <HISTAMINE H3>
8.7

$$$$
405688
  Marvin  02231216192D 0   1.00000     0.00000     0

 33 36  0  0  0  0  0  0  0  0999 V2000
   -3.3828   -2.4838    0.0000 F   0  0  0  0  0  0  0  0  0
   -3.3828   -3.3088    0.0000 C   0  0  0  0  0  0  0  0  0
   -2.6683   -3.7213    0.0000 C   0  0  0  0  0  0  0  0  0
   -2.6683   -4.5463    0.0000 C   0  0  0  0  0  0  0  0  0
   -1.9539   -4.9588    0.0000 F   0  0  0  0  0  0  0  0  0
   -3.3828   -4.9588    0.0000 C   0  0  0  0  0  0  0  0  0
   -4.0973   -4.5463    0.0000 C   0  0  0  0  0  0  0  0  0
   -4.0973   -3.7213    0.0000 C   0  0  0  0  0  0  0  0  0
   -4.8117   -3.3088    0.0000 C   0  0  0  0  0  0  0  0  0
   -5.5262   -3.7213    0.0000 O   0  0  0  0  0  0  0  0  0
   -4.8117   -2.4838    0.0000 N   0  0  0  0  0  0  0  0  0
   -5.5262   -2.0713    0.0000 C   0  0  0  0  0  0  0  0  0
   -5.5262   -1.2463    0.0000 C   0  0  0  0  0  0  0  0  0
   -6.2407   -0.8338    0.0000 O   0  0  0  0  0  0  0  0  0
   -4.8117   -0.8338    0.0000 N   0  0  0  0  0  0  0  0  0
   -4.0973   -1.2463    0.0000 C   0  0  0  0  0  0  0  0  0
   -4.0973   -2.0713    0.0000 C   0  0  0  0  0  0  0  0  0
   -4.8117   -0.0088    0.0000 C   0  0  0  0  0  0  0  0  0
   -5.5262    0.4037    0.0000 C   0  0  0  0  0  0  0  0  0
   -5.5262    1.2287    0.0000 C   0  0  0  0  0  0  0  0  0
   -4.8117    1.6412    0.0000 C   0  0  0  0  0  0  0  0  0
   -4.8117    2.4662    0.0000 O   0  0  0  0  0  0  0  0  0
   -5.5262    2.8787    0.0000 C   0  0  0  0  0  0  0  0  0
   -5.5262    3.7037    0.0000 C   0  0  0  0  0  0  0  0  0
   -6.2407    4.1162    0.0000 C   0  0  0  0  0  0  0  0  0
   -6.2407    4.9412    0.0000 N   0  0  0  0  0  0  0  0  0
   -6.9552    5.3537    0.0000 C   0  0  0  0  0  0  0  0  0
   -6.9552    6.1787    0.0000 C   0  0  0  0  0  0  0  0  0
   -6.2407    6.5912    0.0000 C   0  0  0  0  0  0  0  0  0
   -5.5262    6.1787    0.0000 C   0  0  0  0  0  0  0  0  0
   -5.5262    5.3537    0.0000 C   0  0  0  0  0  0  0  0  0
   -4.0973    1.2287    0.0000 C   0  0  0  0  0  0  0  0  0
   -4.0973    0.4037    0.0000 C   0  0  0  0  0  0  0  0  0
  1  2  1  0  0  0  0
  2  3  4  0  0  0  0
  2  8  4  0  0  0  0
  3  4  4  0  0  0  0
  4  5  1  0  0  0  0
  4  6  4  0  0  0  0
  6  7  4  0  0  0  0
  7  8  4  0  0  0  0
  8  9  1  0  0  0  0
  9 10  2  0  0  0  0
  9 11  1  0  0  0  0
 11 12  1  0  0  0  0
 11 17  1  0  0  0  0
 12 13  1  0  0  0  0
 13 14  2  0  0  0  0
 13 15  1  0  0  0  0
 15 16  1  0  0  0  0
 15 18  1  0  0  0  0
 16 17  1  0  0  0  0
 18 19  4  0  0  0  0
 18 33  4  0  0  0  0
 19 20  4  0  0  0  0
 20 21  4  0  0  0  0
 21 22  1  0  0  0  0
 21 32  4  0  0  0  0
 22 23  1  0  0  0  0
 23 24  1  0  0  0  0
 24 25  1  0  0  0  0
 25 26  1  0  0  0  0
 26 27  1  0  0  0  0
 26 31  1  0  0  0  0
 27 28  1  0  0  0  0
 28 29  1  0  0  0  0
 29 30  1  0  0  0  0
 30 31  1  0  0  0  0
 32 33  4  0  0  0  0
M  END
>  <Name_Molregno>
405688

>  <HISTAMINE H1>
5.7

>  <HISTAMINE H3>
8.6

$$$$
405689
  Marvin  02231216192D 0   1.00000     0.00000     0

 37 41  0  0  0  0  0  0  0  0999 V2000
   -2.0170    3.4672    0.0000 O   0  0  0  0  0  0  0  0  0
   -2.7315    3.8797    0.0000 C   0  0  0  0  0  0  0  0  0
   -2.7315    4.7047    0.0000 C   0  0  0  0  0  0  0  0  0
   -3.4460    5.1172    0.0000 C   0  0  0  0  0  0  0  0  0
   -3.4460    5.9422    0.0000 N   0  0  0  0  0  0  0  0  0
   -4.1604    6.3547    0.0000 C   0  0  0  0  0  0  0  0  0
   -4.1604    7.1797    0.0000 C   0  0  0  0  0  0  0  0  0
   -3.4460    7.5922    0.0000 C   0  0  0  0  0  0  0  0  0
   -2.7315    7.1797    0.0000 C   0  0  0  0  0  0  0  0  0
   -2.7315    6.3547    0.0000 C   0  0  0  0  0  0  0  0  0
   -2.0170    2.6422    0.0000 C   0  0  0  0  0  0  0  0  0
   -1.3026    2.2297    0.0000 C   0  0  0  0  0  0  0  0  0
   -1.3026    1.4047    0.0000 C   0  0  0  0  0  0  0  0  0
   -2.0170    0.9922    0.0000 C   0  0  0  0  0  0  0  0  0
   -2.0170    0.1672    0.0000 N   0  0  0  0  0  0  0  0  0
   -1.3026   -0.2453    0.0000 C   0  0  0  0  0  0  0  0  0
   -1.3026   -1.0703    0.0000 C   0  0  0  0  0  0  0  0  0
   -2.0170   -1.4828    0.0000 N   0  0  0  0  0  0  0  0  0
   -2.7315   -1.0703    0.0000 C   0  0  0  0  0  0  0  0  0
   -2.7315   -0.2453    0.0000 C   0  0  0  0  0  0  0  0  0
   -3.4460    0.1672    0.0000 O   0  0  0  0  0  0  0  0  0
   -2.0170   -2.3078    0.0000 C   0  0  0  0  0  0  0  0  0
   -1.3026   -2.7203    0.0000 O   0  0  0  0  0  0  0  0  0
   -2.7315   -2.7203    0.0000 C   0  0  0  0  0  0  0  0  0
   -2.7315   -3.5453    0.0000 C   0  0  0  0  0  0  0  0  0
   -3.4460   -3.9578    0.0000 C   0  0  0  0  0  0  0  0  0
   -4.1604   -3.5453    0.0000 C   0  0  0  0  0  0  0  0  0
   -4.1604   -2.7203    0.0000 C   0  0  0  0  0  0  0  0  0
   -3.4460   -2.3078    0.0000 C   0  0  0  0  0  0  0  0  0
   -4.8749   -3.9578    0.0000 C   0  0  0  0  0  0  0  0  0
   -5.5894   -3.5453    0.0000 O   0  0  0  0  0  0  0  0  0
   -4.8749   -4.7828    0.0000 N   0  0  0  0  0  0  0  0  0
   -4.2915   -5.3662    0.0000 C   0  0  0  0  0  0  0  0  0
   -4.8749   -5.9495    0.0000 C   0  0  0  0  0  0  0  0  0
   -5.4583   -5.3662    0.0000 C   0  0  0  0  0  0  0  0  0
   -2.7315    1.4047    0.0000 C   0  0  0  0  0  0  0  0  0
   -2.7315    2.2297    0.0000 C   0  0  0  0  0  0  0  0  0
  1  2  1  0  0  0  0
  1 11  1  0  0  0  0
  2  3  1  0  0  0  0
  3  4  1  0  0  0  0
  4  5  1  0  0  0  0
  5  6  1  0  0  0  0
  5 10  1  0  0  0  0
  6  7  1  0  0  0  0
  7  8  1  0  0  0  0
  8  9  1  0  0  0  0
  9 10  1  0  0  0  0
 11 12  4  0  0  0  0
 11 37  4  0  0  0  0
 12 13  4  0  0  0  0
 13 14  4  0  0  0  0
 14 15  1  0  0  0  0
 14 36  4  0  0  0  0
 15 16  1  0  0  0  0
 15 20  1  0  0  0  0
 16 17  1  0  0  0  0
 17 18  1  0  0  0  0
 18 19  1  0  0  0  0
 18 22  1  0  0  0  0
 19 20  1  0  0  0  0
 20 21  2  0  0  0  0
 22 23  2  0  0  0  0
 22 24  1  0  0  0  0
 24 25  4  0  0  0  0
 24 29  4  0  0  0  0
 25 26  4  0  0  0  0
 26 27  4  0  0  0  0
 27 28  4  0  0  0  0
 27 30  1  0  0  0  0
 28 29  4  0  0  0  0
 30 31  2  0  0  0  0
 30 32  1  0  0  0  0
 32 33  1  0  0  0  0
 32 35  1  0  0  0  0
 33 34  1  0  0  0  0
 34 35  1  0  0  0  0
 36 37  4  0  0  0  0
M  END
>  <Name_Molregno>
405689

>  <HISTAMINE H1>
5.6

>  <HISTAMINE H3>
9.2

$$$$
405690
  Marvin  02231216192D 0   1.00000     0.00000     0

 31 34  0  0  0  0  0  0  0  0999 V2000
   -2.2432   -2.7214    0.0000 O   0  0  0  0  0  0  0  0  0
   -1.5287   -3.1339    0.0000 C   0  0  0  0  0  0  0  0  0
   -1.5287   -3.9589    0.0000 C   0  0  0  0  0  0  0  0  0
   -0.8142   -4.3714    0.0000 C   0  0  0  0  0  0  0  0  0
   -0.8142   -5.1964    0.0000 N   0  0  0  0  0  0  0  0  0
   -0.0998   -5.6089    0.0000 C   0  0  0  0  0  0  0  0  0
   -0.0998   -6.4339    0.0000 C   0  0  0  0  0  0  0  0  0
   -0.8142   -6.8464    0.0000 C   0  0  0  0  0  0  0  0  0
   -1.5287   -6.4339    0.0000 C   0  0  0  0  0  0  0  0  0
   -1.5287   -5.6089    0.0000 C   0  0  0  0  0  0  0  0  0
   -2.2432   -1.8964    0.0000 C   0  0  0  0  0  0  0  0  0
   -2.9576   -1.4839    0.0000 C   0  0  0  0  0  0  0  0  0
   -2.9576   -0.6589    0.0000 C   0  0  0  0  0  0  0  0  0
   -2.2432   -0.2464    0.0000 C   0  0  0  0  0  0  0  0  0
   -2.2432    0.5786    0.0000 N   0  0  0  0  0  0  0  0  0
   -2.9576    0.9911    0.0000 C   0  0  0  0  0  0  0  0  0
   -2.9576    1.8161    0.0000 C   0  0  0  0  0  0  0  0  0
   -2.2432    2.2286    0.0000 N   0  0  0  0  0  0  0  0  0
   -1.5287    1.8161    0.0000 C   0  0  0  0  0  0  0  0  0
   -1.5287    0.9911    0.0000 C   0  0  0  0  0  0  0  0  0
   -0.8142    0.5786    0.0000 O   0  0  0  0  0  0  0  0  0
   -2.2432    3.0536    0.0000 C   0  0  0  0  0  0  0  0  0
   -1.5287    3.4661    0.0000 O   0  0  0  0  0  0  0  0  0
   -2.9576    3.4661    0.0000 C   0  0  0  0  0  0  0  0  0
   -3.6721    3.0536    0.0000 C   0  0  0  0  0  0  0  0  0
   -4.3866    3.4661    0.0000 C   0  0  0  0  0  0  0  0  0
   -4.3866    4.2911    0.0000 N   0  0  0  0  0  0  0  0  0
   -3.6721    4.7036    0.0000 C   0  0  0  0  0  0  0  0  0
   -2.9576    4.2911    0.0000 C   0  0  0  0  0  0  0  0  0
   -1.5287   -0.6589    0.0000 C   0  0  0  0  0  0  0  0  0
   -1.5287   -1.4839    0.0000 C   0  0  0  0  0  0  0  0  0
  1  2  1  0  0  0  0
  1 11  1  0  0  0  0
  2  3  1  0  0  0  0
  3  4  1  0  0  0  0
  4  5  1  0  0  0  0
  5  6  1  0  0  0  0
  5 10  1  0  0  0  0
  6  7  1  0  0  0  0
  7  8  1  0  0  0  0
  8  9  1  0  0  0  0
  9 10  1  0  0  0  0
 11 12  4  0  0  0  0
 11 31  4  0  0  0  0
 12 13  4  0  0  0  0
 13 14  4  0  0  0  0
 14 15  1  0  0  0  0
 14 30  4  0  0  0  0
 15 16  1  0  0  0  0
 15 20  1  0  0  0  0
 16 17  1  0  0  0  0
 17 18  1  0  0  0  0
 18 19  1  0  0  0  0
 18 22  1  0  0  0  0
 19 20  1  0  0  0  0
 20 21  2  0  0  0  0
 22 23  2  0  0  0  0
 22 24  1  0  0  0  0
 24 25  4  0  0  0  0
 24 29  4  0  0  0  0
 25 26  4  0  0  0  0
 26 27  4  0  0  0  0
 27 28  4  0  0  0  0
 28 29  4  0  0  0  0
 30 31  4  0  0  0  0
M  END
>  <Name_Molregno>
405690

>  <HISTAMINE H1>
5.6

>  <HISTAMINE H3>
8.1

$$$$
405691
  Marvin  02231216192D 0   1.00000     0.00000     0

 34 38  0  0  0  0  0  0  0  0999 V2000
   -5.3021   -1.0568    0.0000 O   0  0  0  0  0  0  0  0  0
   -5.5571   -1.8414    0.0000 C   0  0  0  0  0  0  0  0  0
   -6.3641   -2.0130    0.0000 C   0  0  0  0  0  0  0  0  0
   -6.6190   -2.7976    0.0000 C   0  0  0  0  0  0  0  0  0
   -7.4260   -2.9691    0.0000 N   0  0  0  0  0  0  0  0  0
   -7.6809   -3.7537    0.0000 C   0  0  0  0  0  0  0  0  0
   -8.4879   -3.9253    0.0000 C   0  0  0  0  0  0  0  0  0
   -9.0399   -3.3122    0.0000 C   0  0  0  0  0  0  0  0  0
   -8.7850   -2.5275    0.0000 C   0  0  0  0  0  0  0  0  0
   -7.9780   -2.3560    0.0000 C   0  0  0  0  0  0  0  0  0
   -4.4952   -0.8853    0.0000 C   0  0  0  0  0  0  0  0  0
   -4.2402   -0.1007    0.0000 C   0  0  0  0  0  0  0  0  0
   -3.4333    0.0709    0.0000 C   0  0  0  0  0  0  0  0  0
   -2.8812   -0.5422    0.0000 C   0  0  0  0  0  0  0  0  0
   -2.0743   -0.3707    0.0000 N   0  0  0  0  0  0  0  0  0
   -1.8193    0.4139    0.0000 C   0  0  0  0  0  0  0  0  0
   -1.0123    0.5855    0.0000 C   0  0  0  0  0  0  0  0  0
   -0.4603   -0.0276    0.0000 N   0  0  0  0  0  0  0  0  0
   -0.7152   -0.8123    0.0000 C   0  0  0  0  0  0  0  0  0
   -1.5222   -0.9838    0.0000 C   0  0  0  0  0  0  0  0  0
   -1.7772   -1.7684    0.0000 O   0  0  0  0  0  0  0  0  0
    0.3467    0.1439    0.0000 C   0  0  0  0  0  0  0  0  0
    0.8987   -0.4692    0.0000 O   0  0  0  0  0  0  0  0  0
    0.6016    0.9285    0.0000 C   0  0  0  0  0  0  0  0  0
    1.3862    1.1834    0.0000 C   0  0  0  0  0  0  0  0  0
    1.3862    2.0084    0.0000 N   0  0  0  0  0  0  0  0  0
    0.6016    2.2634    0.0000 N   0  0  0  0  0  0  0  0  0
    0.1167    1.5959    0.0000 C   0  0  0  0  0  0  0  0  0
    2.1007    2.4209    0.0000 C   0  0  0  0  0  0  0  0  0
    2.8152    2.0084    0.0000 C   0  0  0  0  0  0  0  0  0
    2.8152    1.1834    0.0000 C   0  0  0  0  0  0  0  0  0
    2.1007    0.7709    0.0000 N   0  0  0  0  0  0  0  0  0
   -3.1362   -1.3268    0.0000 C   0  0  0  0  0  0  0  0  0
   -3.9431   -1.4984    0.0000 C   0  0  0  0  0  0  0  0  0
  1  2  1  0  0  0  0
  1 11  1  0  0  0  0
  2  3  1  0  0  0  0
  3  4  1  0  0  0  0
  4  5  1  0  0  0  0
  5  6  1  0  0  0  0
  5 10  1  0  0  0  0
  6  7  1  0  0  0  0
  7  8  1  0  0  0  0
  8  9  1  0  0  0  0
  9 10  1  0  0  0  0
 11 12  4  0  0  0  0
 11 34  4  0  0  0  0
 12 13  4  0  0  0  0
 13 14  4  0  0  0  0
 14 15  1  0  0  0  0
 14 33  4  0  0  0  0
 15 16  1  0  0  0  0
 15 20  1  0  0  0  0
 16 17  1  0  0  0  0
 17 18  1  0  0  0  0
 18 19  1  0  0  0  0
 18 22  1  0  0  0  0
 19 20  1  0  0  0  0
 20 21  2  0  0  0  0
 22 23  2  0  0  0  0
 22 24  1  0  0  0  0
 24 25  4  0  0  0  0
 24 28  4  0  0  0  0
 25 26  4  0  0  0  0
 25 32  4  0  0  0  0
 26 27  4  0  0  0  0
 26 29  4  0  0  0  0
 27 28  4  0  0  0  0
 29 30  4  0  0  0  0
 30 31  4  0  0  0  0
 31 32  4  0  0  0  0
 33 34  4  0  0  0  0
M  END
>  <Name_Molregno>
405691

>  <HISTAMINE H1>
5.5

>  <HISTAMINE H3>
8.4

$$$$
405696
  Marvin  02231216192D 0   1.00000     0.00000     0

 31 34  0  0  0  0  0  0  0  0999 V2000
   -8.4312    4.8596    0.0000 F   0  0  0  0  0  0  0  0  0
   -7.7167    4.4471    0.0000 C   0  0  0  0  0  0  0  0  0
   -7.0023    4.8596    0.0000 C   0  0  0  0  0  0  0  0  0
   -6.2878    4.4471    0.0000 C   0  0  0  0  0  0  0  0  0
   -6.2878    3.6221    0.0000 C   0  0  0  0  0  0  0  0  0
   -7.0023    3.2096    0.0000 C   0  0  0  0  0  0  0  0  0
   -7.7167    3.6221    0.0000 C   0  0  0  0  0  0  0  0  0
   -5.5733    3.2096    0.0000 C   0  0  0  0  0  0  0  0  0
   -4.8589    3.6221    0.0000 O   0  0  0  0  0  0  0  0  0
   -5.5733    2.3846    0.0000 N   0  0  0  0  0  0  0  0  0
   -4.8589    1.9721    0.0000 C   0  0  0  0  0  0  0  0  0
   -4.8589    1.1471    0.0000 C   0  0  0  0  0  0  0  0  0
   -4.1444    0.7346    0.0000 O   0  0  0  0  0  0  0  0  0
   -5.5733    0.7346    0.0000 N   0  0  0  0  0  0  0  0  0
   -6.2878    1.1471    0.0000 C   0  0  0  0  0  0  0  0  0
   -6.2878    1.9721    0.0000 C   0  0  0  0  0  0  0  0  0
   -5.5733   -0.0904    0.0000 C   0  0  0  0  0  0  0  0  0
   -4.8589   -0.5029    0.0000 C   0  0  0  0  0  0  0  0  0
   -4.8589   -1.3279    0.0000 C   0  0  0  0  0  0  0  0  0
   -5.5733   -1.7404    0.0000 C   0  0  0  0  0  0  0  0  0
   -5.5733   -2.5654    0.0000 O   0  0  0  0  0  0  0  0  0
   -4.8589   -2.9779    0.0000 C   0  0  0  0  0  0  0  0  0
   -4.8589   -3.8029    0.0000 C   0  0  0  0  0  0  0  0  0
   -4.1444   -4.2154    0.0000 C   0  0  0  0  0  0  0  0  0
   -4.1444   -5.0404    0.0000 N   0  0  0  0  0  0  0  0  0
   -3.4769   -5.5254    0.0000 C   0  0  0  0  0  0  0  0  0
   -3.7319   -6.3100    0.0000 C   0  0  0  0  0  0  0  0  0
   -4.5569   -6.3100    0.0000 C   0  0  0  0  0  0  0  0  0
   -4.8118   -5.5254    0.0000 C   0  0  0  0  0  0  0  0  0
   -6.2878   -1.3279    0.0000 C   0  0  0  0  0  0  0  0  0
   -6.2878   -0.5029    0.0000 C   0  0  0  0  0  0  0  0  0
  1  2  1  0  0  0  0
  2  3  4  0  0  0  0
  2  7  4  0  0  0  0
  3  4  4  0  0  0  0
  4  5  4  0  0  0  0
  5  6  4  0  0  0  0
  5  8  1  0  0  0  0
  6  7  4  0  0  0  0
  8  9  2  0  0  0  0
  8 10  1  0  0  0  0
 10 11  1  0  0  0  0
 10 16  1  0  0  0  0
 11 12  1  0  0  0  0
 12 13  2  0  0  0  0
 12 14  1  0  0  0  0
 14 15  1  0  0  0  0
 14 17  1  0  0  0  0
 15 16  1  0  0  0  0
 17 18  4  0  0  0  0
 17 31  4  0  0  0  0
 18 19  4  0  0  0  0
 19 20  4  0  0  0  0
 20 21  1  0  0  0  0
 20 30  4  0  0  0  0
 21 22  1  0  0  0  0
 22 23  1  0  0  0  0
 23 24  1  0  0  0  0
 24 25  1  0  0  0  0
 25 26  1  0  0  0  0
 25 29  1  0  0  0  0
 26 27  1  0  0  0  0
 27 28  1  0  0  0  0
 28 29  1  0  0  0  0
 30 31  4  0  0  0  0
M  END
>  <Name_Molregno>
405696

>  <HISTAMINE H1>
5.6

>  <HISTAMINE H3>
9.1

$$$$
405697
  Marvin  02231216192D 0   1.00000     0.00000     0

 32 35  0  0  0  0  0  0  0  0999 V2000
   -2.5165   -2.7409    0.0000 O   0  0  0  0  0  0  0  0  0
   -1.8021   -3.1534    0.0000 C   0  0  0  0  0  0  0  0  0
   -1.8021   -3.9784    0.0000 C   0  0  0  0  0  0  0  0  0
   -1.0876   -4.3909    0.0000 C   0  0  0  0  0  0  0  0  0
   -1.0876   -5.2159    0.0000 N   0  0  0  0  0  0  0  0  0
   -0.4201   -5.7008    0.0000 C   0  0  0  0  0  0  0  0  0
   -0.6751   -6.4854    0.0000 C   0  0  0  0  0  0  0  0  0
   -1.5001   -6.4854    0.0000 C   0  0  0  0  0  0  0  0  0
   -1.7550   -5.7008    0.0000 C   0  0  0  0  0  0  0  0  0
   -2.5165   -1.9159    0.0000 C   0  0  0  0  0  0  0  0  0
   -3.2310   -1.5034    0.0000 C   0  0  0  0  0  0  0  0  0
   -3.2310   -0.6784    0.0000 C   0  0  0  0  0  0  0  0  0
   -2.5165   -0.2659    0.0000 C   0  0  0  0  0  0  0  0  0
   -2.5165    0.5591    0.0000 N   0  0  0  0  0  0  0  0  0
   -3.2310    0.9716    0.0000 C   0  0  0  0  0  0  0  0  0
   -3.2310    1.7966    0.0000 C   0  0  0  0  0  0  0  0  0
   -2.5165    2.2091    0.0000 N   0  0  0  0  0  0  0  0  0
   -1.8021    1.7966    0.0000 C   0  0  0  0  0  0  0  0  0
   -1.8021    0.9716    0.0000 C   0  0  0  0  0  0  0  0  0
   -1.0876    0.5591    0.0000 O   0  0  0  0  0  0  0  0  0
   -2.5165    3.0341    0.0000 C   0  0  0  0  0  0  0  0  0
   -1.8021    3.4466    0.0000 O   0  0  0  0  0  0  0  0  0
   -3.2310    3.4466    0.0000 C   0  0  0  0  0  0  0  0  0
   -3.9455    3.0341    0.0000 C   0  0  0  0  0  0  0  0  0
   -4.6599    3.4466    0.0000 C   0  0  0  0  0  0  0  0  0
   -4.6599    4.2716    0.0000 C   0  0  0  0  0  0  0  0  0
   -3.9455    4.6841    0.0000 C   0  0  0  0  0  0  0  0  0
   -3.2310    4.2716    0.0000 C   0  0  0  0  0  0  0  0  0
   -5.3744    4.6841    0.0000 C   0  0  0  0  0  0  0  0  0
   -6.0889    5.0966    0.0000 N   0  0  0  0  0  0  0  0  0
   -1.8021   -0.6784    0.0000 C   0  0  0  0  0  0  0  0  0
   -1.8021   -1.5034    0.0000 C   0  0  0  0  0  0  0  0  0
  1  2  1  0  0  0  0
  1 10  1  0  0  0  0
  2  3  1  0  0  0  0
  3  4  1  0  0  0  0
  4  5  1  0  0  0  0
  5  6  1  0  0  0  0
  5  9  1  0  0  0  0
  6  7  1  0  0  0  0
  7  8  1  0  0  0  0
  8  9  1  0  0  0  0
 10 11  4  0  0  0  0
 10 32  4  0  0  0  0
 11 12  4  0  0  0  0
 12 13  4  0  0  0  0
 13 14  1  0  0  0  0
 13 31  4  0  0  0  0
 14 15  1  0  0  0  0
 14 19  1  0  0  0  0
 15 16  1  0  0  0  0
 16 17  1  0  0  0  0
 17 18  1  0  0  0  0
 17 21  1  0  0  0  0
 18 19  1  0  0  0  0
 19 20  2  0  0  0  0
 21 22  2  0  0  0  0
 21 23  1  0  0  0  0
 23 24  4  0  0  0  0
 23 28  4  0  0  0  0
 24 25  4  0  0  0  0
 25 26  4  0  0  0  0
 26 27  4  0  0  0  0
 26 29  1  0  0  0  0
 27 28  4  0  0  0  0
 29 30  3  0  0  0  0
 31 32  4  0  0  0  0
M  END
>  <Name_Molregno>
405697

>  <HISTAMINE H1>
5.6

>  <HISTAMINE H3>
8.2

$$$$
405698
  Marvin  02231216192D 0   1.00000     0.00000     0

 32 35  0  0  0  0  0  0  0  0999 V2000
    4.0244    7.1243    0.0000 F   0  0  0  0  0  0  0  0  0
    4.0244    6.2993    0.0000 C   0  0  0  0  0  0  0  0  0
    4.7389    5.8868    0.0000 C   0  0  0  0  0  0  0  0  0
    4.7389    5.0618    0.0000 C   0  0  0  0  0  0  0  0  0
    4.0244    4.6493    0.0000 C   0  0  0  0  0  0  0  0  0
    3.3100    5.0618    0.0000 C   0  0  0  0  0  0  0  0  0
    2.5955    4.6493    0.0000 F   0  0  0  0  0  0  0  0  0
    3.3100    5.8868    0.0000 C   0  0  0  0  0  0  0  0  0
    5.4534    4.6493    0.0000 C   0  0  0  0  0  0  0  0  0
    6.1678    5.0618    0.0000 O   0  0  0  0  0  0  0  0  0
    5.4534    3.8243    0.0000 N   0  0  0  0  0  0  0  0  0
    6.1678    3.4118    0.0000 C   0  0  0  0  0  0  0  0  0
    6.1678    2.5868    0.0000 C   0  0  0  0  0  0  0  0  0
    6.8823    2.1743    0.0000 O   0  0  0  0  0  0  0  0  0
    5.4534    2.1743    0.0000 N   0  0  0  0  0  0  0  0  0
    4.7389    2.5868    0.0000 C   0  0  0  0  0  0  0  0  0
    4.7389    3.4118    0.0000 C   0  0  0  0  0  0  0  0  0
    5.4534    1.3493    0.0000 C   0  0  0  0  0  0  0  0  0
    6.1678    0.9368    0.0000 C   0  0  0  0  0  0  0  0  0
    6.1678    0.1118    0.0000 C   0  0  0  0  0  0  0  0  0
    5.4534   -0.3007    0.0000 C   0  0  0  0  0  0  0  0  0
    5.4534   -1.1257    0.0000 O   0  0  0  0  0  0  0  0  0
    6.1678   -1.5382    0.0000 C   0  0  0  0  0  0  0  0  0
    6.1678   -2.3632    0.0000 C   0  0  0  0  0  0  0  0  0
    6.8823   -2.7757    0.0000 C   0  0  0  0  0  0  0  0  0
    6.8823   -3.6007    0.0000 N   0  0  0  0  0  0  0  0  0
    7.5497   -4.0856    0.0000 C   0  0  0  0  0  0  0  0  0
    7.2948   -4.8702    0.0000 C   0  0  0  0  0  0  0  0  0
    6.4698   -4.8702    0.0000 C   0  0  0  0  0  0  0  0  0
    6.2149   -4.0856    0.0000 C   0  0  0  0  0  0  0  0  0
    4.7389    0.1118    0.0000 C   0  0  0  0  0  0  0  0  0
    4.7389    0.9368    0.0000 C   0  0  0  0  0  0  0  0  0
  1  2  1  0  0  0  0
  2  3  4  0  0  0  0
  2  8  4  0  0  0  0
  3  4  4  0  0  0  0
  4  5  4  0  0  0  0
  4  9  1  0  0  0  0
  5  6  4  0  0  0  0
  6  7  1  0  0  0  0
  6  8  4  0  0  0  0
  9 10  2  0  0  0  0
  9 11  1  0  0  0  0
 11 12  1  0  0  0  0
 11 17  1  0  0  0  0
 12 13  1  0  0  0  0
 13 14  2  0  0  0  0
 13 15  1  0  0  0  0
 15 16  1  0  0  0  0
 15 18  1  0  0  0  0
 16 17  1  0  0  0  0
 18 19  4  0  0  0  0
 18 32  4  0  0  0  0
 19 20  4  0  0  0  0
 20 21  4  0  0  0  0
 21 22  1  0  0  0  0
 21 31  4  0  0  0  0
 22 23  1  0  0  0  0
 23 24  1  0  0  0  0
 24 25  1  0  0  0  0
 25 26  1  0  0  0  0
 26 27  1  0  0  0  0
 26 30  1  0  0  0  0
 27 28  1  0  0  0  0
 28 29  1  0  0  0  0
 29 30  1  0  0  0  0
 31 32  4  0  0  0  0
M  END
>  <Name_Molregno>
405698

>  <HISTAMINE H1>
5.7

>  <HISTAMINE H3>
8.7

$$$$
405699
  Marvin  02231216192D 0   1.00000     0.00000     0

 32 35  0  0  0  0  0  0  0  0999 V2000
   -6.0461    2.3882    0.0000 F   0  0  0  0  0  0  0  0  0
   -6.0461    3.2132    0.0000 C   0  0  0  0  0  0  0  0  0
   -6.7605    3.6257    0.0000 C   0  0  0  0  0  0  0  0  0
   -6.7605    4.4507    0.0000 C   0  0  0  0  0  0  0  0  0
   -7.4750    4.8632    0.0000 F   0  0  0  0  0  0  0  0  0
   -6.0461    4.8632    0.0000 C   0  0  0  0  0  0  0  0  0
   -5.3316    4.4507    0.0000 C   0  0  0  0  0  0  0  0  0
   -5.3316    3.6257    0.0000 C   0  0  0  0  0  0  0  0  0
   -4.6171    3.2132    0.0000 C   0  0  0  0  0  0  0  0  0
   -3.9027    3.6257    0.0000 O   0  0  0  0  0  0  0  0  0
   -4.6171    2.3882    0.0000 N   0  0  0  0  0  0  0  0  0
   -3.9027    1.9757    0.0000 C   0  0  0  0  0  0  0  0  0
   -3.9027    1.1507    0.0000 C   0  0  0  0  0  0  0  0  0
   -3.1882    0.7382    0.0000 O   0  0  0  0  0  0  0  0  0
   -4.6171    0.7382    0.0000 N   0  0  0  0  0  0  0  0  0
   -5.3316    1.1507    0.0000 C   0  0  0  0  0  0  0  0  0
   -5.3316    1.9757    0.0000 C   0  0  0  0  0  0  0  0  0
   -4.6171   -0.0868    0.0000 C   0  0  0  0  0  0  0  0  0
   -3.9027   -0.4993    0.0000 C   0  0  0  0  0  0  0  0  0
   -3.9027   -1.3243    0.0000 C   0  0  0  0  0  0  0  0  0
   -4.6171   -1.7368    0.0000 C   0  0  0  0  0  0  0  0  0
   -4.6171   -2.5618    0.0000 O   0  0  0  0  0  0  0  0  0
   -3.9027   -2.9743    0.0000 C   0  0  0  0  0  0  0  0  0
   -3.9027   -3.7993    0.0000 C   0  0  0  0  0  0  0  0  0
   -3.1882   -4.2118    0.0000 C   0  0  0  0  0  0  0  0  0
   -3.1882   -5.0368    0.0000 N   0  0  0  0  0  0  0  0  0
   -2.5207   -5.5217    0.0000 C   0  0  0  0  0  0  0  0  0
   -2.7757   -6.3063    0.0000 C   0  0  0  0  0  0  0  0  0
   -3.6007   -6.3063    0.0000 C   0  0  0  0  0  0  0  0  0
   -3.8556   -5.5217    0.0000 C   0  0  0  0  0  0  0  0  0
   -5.3316   -1.3243    0.0000 C   0  0  0  0  0  0  0  0  0
   -5.3316   -0.4993    0.0000 C   0  0  0  0  0  0  0  0  0
  1  2  1  0  0  0  0
  2  3  4  0  0  0  0
  2  8  4  0  0  0  0
  3  4  4  0  0  0  0
  4  5  1  0  0  0  0
  4  6  4  0  0  0  0
  6  7  4  0  0  0  0
  7  8  4  0  0  0  0
  8  9  1  0  0  0  0
  9 10  2  0  0  0  0
  9 11  1  0  0  0  0
 11 12  1  0  0  0  0
 11 17  1  0  0  0  0
 12 13  1  0  0  0  0
 13 14  2  0  0  0  0
 13 15  1  0  0  0  0
 15 16  1  0  0  0  0
 15 18  1  0  0  0  0
 16 17  1  0  0  0  0
 18 19  4  0  0  0  0
 18 32  4  0  0  0  0
 19 20  4  0  0  0  0
 20 21  4  0  0  0  0
 21 22  1  0  0  0  0
 21 31  4  0  0  0  0
 22 23  1  0  0  0  0
 23 24  1  0  0  0  0
 24 25  1  0  0  0  0
 25 26  1  0  0  0  0
 26 27  1  0  0  0  0
 26 30  1  0  0  0  0
 27 28  1  0  0  0  0
 28 29  1  0  0  0  0
 29 30  1  0  0  0  0
 31 32  4  0  0  0  0
M  END
>  <Name_Molregno>
405699

>  <HISTAMINE H1>
5.7

>  <HISTAMINE H3>
8.4

$$$$
405723
  Marvin  02231216192D 0   1.00000     0.00000     0

 33 36  0  0  0  0  0  0  0  0999 V2000
    9.0457    5.3466    0.0000 F   0  0  0  0  0  0  0  0  0
    9.0457    4.5216    0.0000 C   0  0  0  0  0  0  0  0  0
    9.7602    4.1091    0.0000 C   0  0  0  0  0  0  0  0  0
    9.7602    3.2841    0.0000 C   0  0  0  0  0  0  0  0  0
    9.0457    2.8716    0.0000 C   0  0  0  0  0  0  0  0  0
    8.3313    3.2841    0.0000 C   0  0  0  0  0  0  0  0  0
    8.3313    4.1091    0.0000 C   0  0  0  0  0  0  0  0  0
    9.0457    2.0466    0.0000 C   0  0  0  0  0  0  0  0  0
    9.7602    1.6341    0.0000 O   0  0  0  0  0  0  0  0  0
    8.3313    1.6341    0.0000 N   0  0  0  0  0  0  0  0  0
    8.3313    0.8091    0.0000 C   0  0  0  0  0  0  0  0  0
    7.6168    0.3966    0.0000 C   0  0  0  0  0  0  0  0  0
    7.6168   -0.4284    0.0000 O   0  0  0  0  0  0  0  0  0
    6.9023    0.8091    0.0000 N   0  0  0  0  0  0  0  0  0
    6.9023    1.6341    0.0000 C   0  0  0  0  0  0  0  0  0
    7.6168    2.0466    0.0000 C   0  0  0  0  0  0  0  0  0
    6.1878    0.3966    0.0000 C   0  0  0  0  0  0  0  0  0
    6.1878   -0.4284    0.0000 C   0  0  0  0  0  0  0  0  0
    5.4734   -0.8409    0.0000 C   0  0  0  0  0  0  0  0  0
    4.7589   -0.4284    0.0000 C   0  0  0  0  0  0  0  0  0
    4.0444   -0.8409    0.0000 O   0  0  0  0  0  0  0  0  0
    4.0444   -1.6659    0.0000 C   0  0  0  0  0  0  0  0  0
    3.3300   -2.0784    0.0000 C   0  0  0  0  0  0  0  0  0
    3.3300   -2.9034    0.0000 C   0  0  0  0  0  0  0  0  0
    2.6155   -3.3159    0.0000 N   0  0  0  0  0  0  0  0  0
    2.6771   -4.1385    0.0000 C   0  0  0  0  0  0  0  0  0
    2.0724   -4.6997    0.0000 C   0  0  0  0  0  0  0  0  0
    1.2566   -4.5767    0.0000 C   0  0  0  0  0  0  0  0  0
    0.8441   -3.8623    0.0000 C   0  0  0  0  0  0  0  0  0
    1.1455   -3.0943    0.0000 C   0  0  0  0  0  0  0  0  0
    1.9338   -2.8511    0.0000 C   0  0  0  0  0  0  0  0  0
    4.7589    0.3966    0.0000 C   0  0  0  0  0  0  0  0  0
    5.4734    0.8091    0.0000 C   0  0  0  0  0  0  0  0  0
  1  2  1  0  0  0  0
  2  3  4  0  0  0  0
  2  7  4  0  0  0  0
  3  4  4  0  0  0  0
  4  5  4  0  0  0  0
  5  6  4  0  0  0  0
  5  8  1  0  0  0  0
  6  7  4  0  0  0  0
  8  9  2  0  0  0  0
  8 10  1  0  0  0  0
 10 11  1  0  0  0  0
 10 16  1  0  0  0  0
 11 12  1  0  0  0  0
 12 13  2  0  0  0  0
 12 14  1  0  0  0  0
 14 15  1  0  0  0  0
 14 17  1  0  0  0  0
 15 16  1  0  0  0  0
 17 18  4  0  0  0  0
 17 33  4  0  0  0  0
 18 19  4  0  0  0  0
 19 20  4  0  0  0  0
 20 21  1  0  0  0  0
 20 32  4  0  0  0  0
 21 22  1  0  0  0  0
 22 23  1  0  0  0  0
 23 24  1  0  0  0  0
 24 25  1  0  0  0  0
 25 26  1  0  0  0  0
 25 31  1  0  0  0  0
 26 27  1  0  0  0  0
 27 28  1  0  0  0  0
 28 29  1  0  0  0  0
 29 30  1  0  0  0  0
 30 31  1  0  0  0  0
 32 33  4  0  0  0  0
M  END
>  <Name_Molregno>
405723

>  <HISTAMINE H1>
5.6

>  <HISTAMINE H3>
8.4

$$$$
405724
  Marvin  02231216192D 0   1.00000     0.00000     0

 34 37  0  0  0  0  0  0  0  0999 V2000
   -2.2200    2.2852    0.0000 O   0  0  0  0  0  0  0  0  0
   -2.9345    2.6977    0.0000 C   0  0  0  0  0  0  0  0  0
   -2.9345    3.5227    0.0000 C   0  0  0  0  0  0  0  0  0
   -3.6490    3.9352    0.0000 C   0  0  0  0  0  0  0  0  0
   -3.6490    4.7602    0.0000 N   0  0  0  0  0  0  0  0  0
   -4.3923    5.1181    0.0000 C   0  0  0  0  0  0  0  0  0
   -4.5759    5.9225    0.0000 C   0  0  0  0  0  0  0  0  0
   -4.0615    6.5675    0.0000 C   0  0  0  0  0  0  0  0  0
   -3.2365    6.5675    0.0000 C   0  0  0  0  0  0  0  0  0
   -2.7221    5.9225    0.0000 C   0  0  0  0  0  0  0  0  0
   -2.9057    5.1181    0.0000 C   0  0  0  0  0  0  0  0  0
   -2.2200    1.4602    0.0000 C   0  0  0  0  0  0  0  0  0
   -1.5056    1.0477    0.0000 C   0  0  0  0  0  0  0  0  0
   -1.5056    0.2227    0.0000 C   0  0  0  0  0  0  0  0  0
   -2.2200   -0.1898    0.0000 C   0  0  0  0  0  0  0  0  0
   -2.2200   -1.0148    0.0000 N   0  0  0  0  0  0  0  0  0
   -1.5056   -1.4273    0.0000 C   0  0  0  0  0  0  0  0  0
   -1.5056   -2.2523    0.0000 C   0  0  0  0  0  0  0  0  0
   -2.2200   -2.6648    0.0000 N   0  0  0  0  0  0  0  0  0
   -2.9345   -2.2523    0.0000 C   0  0  0  0  0  0  0  0  0
   -2.9345   -1.4273    0.0000 C   0  0  0  0  0  0  0  0  0
   -3.6490   -1.0148    0.0000 O   0  0  0  0  0  0  0  0  0
   -2.2200   -3.4898    0.0000 C   0  0  0  0  0  0  0  0  0
   -2.9345   -3.9023    0.0000 O   0  0  0  0  0  0  0  0  0
   -1.5056   -3.9023    0.0000 C   0  0  0  0  0  0  0  0  0
   -0.7911   -3.4898    0.0000 C   0  0  0  0  0  0  0  0  0
   -0.0766   -3.9023    0.0000 C   0  0  0  0  0  0  0  0  0
   -0.0766   -4.7273    0.0000 C   0  0  0  0  0  0  0  0  0
   -0.7911   -5.1398    0.0000 C   0  0  0  0  0  0  0  0  0
   -1.5056   -4.7273    0.0000 C   0  0  0  0  0  0  0  0  0
    0.6378   -5.1398    0.0000 C   0  0  0  0  0  0  0  0  0
    1.3523   -5.5523    0.0000 N   0  0  0  0  0  0  0  0  0
   -2.9345    0.2227    0.0000 C   0  0  0  0  0  0  0  0  0
   -2.9345    1.0477    0.0000 C   0  0  0  0  0  0  0  0  0
  1  2  1  0  0  0  0
  1 12  1  0  0  0  0
  2  3  1  0  0  0  0
  3  4  1  0  0  0  0
  4  5  1  0  0  0  0
  5  6  1  0  0  0  0
  5 11  1  0  0  0  0
  6  7  1  0  0  0  0
  7  8  1  0  0  0  0
  8  9  1  0  0  0  0
  9 10  1  0  0  0  0
 10 11  1  0  0  0  0
 12 13  4  0  0  0  0
 12 34  4  0  0  0  0
 13 14  4  0  0  0  0
 14 15  4  0  0  0  0
 15 16  1  0  0  0  0
 15 33  4  0  0  0  0
 16 17  1  0  0  0  0
 16 21  1  0  0  0  0
 17 18  1  0  0  0  0
 18 19  1  0  0  0  0
 19 20  1  0  0  0  0
 19 23  1  0  0  0  0
 20 21  1  0  0  0  0
 21 22  2  0  0  0  0
 23 24  2  0  0  0  0
 23 25  1  0  0  0  0
 25 26  4  0  0  0  0
 25 30  4  0  0  0  0
 26 27  4  0  0  0  0
 27 28  4  0  0  0  0
 28 29  4  0  0  0  0
 28 31  1  0  0  0  0
 29 30  4  0  0  0  0
 31 32  3  0  0  0  0
 33 34  4  0  0  0  0
M  END
>  <Name_Molregno>
405724

>  <HISTAMINE H1>
5.6

>  <HISTAMINE H3>
8.5

$$$$
405725
  Marvin  02231216192D 0   1.00000     0.00000     0

 34 37  0  0  0  0  0  0  0  0999 V2000
    4.2953    4.3177    0.0000 F   0  0  0  0  0  0  0  0  0
    4.2953    3.4927    0.0000 C   0  0  0  0  0  0  0  0  0
    5.0097    3.0802    0.0000 C   0  0  0  0  0  0  0  0  0
    5.0097    2.2552    0.0000 C   0  0  0  0  0  0  0  0  0
    4.2953    1.8427    0.0000 C   0  0  0  0  0  0  0  0  0
    3.5808    2.2552    0.0000 C   0  0  0  0  0  0  0  0  0
    2.8663    1.8427    0.0000 F   0  0  0  0  0  0  0  0  0
    3.5808    3.0802    0.0000 C   0  0  0  0  0  0  0  0  0
    5.7242    1.8427    0.0000 C   0  0  0  0  0  0  0  0  0
    6.4387    2.2552    0.0000 O   0  0  0  0  0  0  0  0  0
    5.7242    1.0177    0.0000 N   0  0  0  0  0  0  0  0  0
    6.4387    0.6052    0.0000 C   0  0  0  0  0  0  0  0  0
    6.4387   -0.2198    0.0000 C   0  0  0  0  0  0  0  0  0
    7.1532   -0.6323    0.0000 O   0  0  0  0  0  0  0  0  0
    5.7242   -0.6323    0.0000 N   0  0  0  0  0  0  0  0  0
    5.0097   -0.2198    0.0000 C   0  0  0  0  0  0  0  0  0
    5.0097    0.6052    0.0000 C   0  0  0  0  0  0  0  0  0
    5.7242   -1.4573    0.0000 C   0  0  0  0  0  0  0  0  0
    6.4387   -1.8698    0.0000 C   0  0  0  0  0  0  0  0  0
    6.4387   -2.6948    0.0000 C   0  0  0  0  0  0  0  0  0
    5.7242   -3.1073    0.0000 C   0  0  0  0  0  0  0  0  0
    5.7242   -3.9323    0.0000 O   0  0  0  0  0  0  0  0  0
    6.4387   -4.3448    0.0000 C   0  0  0  0  0  0  0  0  0
    6.4387   -5.1698    0.0000 C   0  0  0  0  0  0  0  0  0
    7.1532   -5.5823    0.0000 C   0  0  0  0  0  0  0  0  0
    7.1532   -6.4073    0.0000 N   0  0  0  0  0  0  0  0  0
    7.8965   -6.7652    0.0000 C   0  0  0  0  0  0  0  0  0
    8.0800   -7.5696    0.0000 C   0  0  0  0  0  0  0  0  0
    7.5657   -8.2146    0.0000 C   0  0  0  0  0  0  0  0  0
    6.7407   -8.2146    0.0000 C   0  0  0  0  0  0  0  0  0
    6.2263   -7.5696    0.0000 C   0  0  0  0  0  0  0  0  0
    6.4099   -6.7652    0.0000 C   0  0  0  0  0  0  0  0  0
    5.0097   -2.6948    0.0000 C   0  0  0  0  0  0  0  0  0
    5.0097   -1.8698    0.0000 C   0  0  0  0  0  0  0  0  0
  1  2  1  0  0  0  0
  2  3  4  0  0  0  0
  2  8  4  0  0  0  0
  3  4  4  0  0  0  0
  4  5  4  0  0  0  0
  4  9  1  0  0  0  0
  5  6  4  0  0  0  0
  6  7  1  0  0  0  0
  6  8  4  0  0  0  0
  9 10  2  0  0  0  0
  9 11  1  0  0  0  0
 11 12  1  0  0  0  0
 11 17  1  0  0  0  0
 12 13  1  0  0  0  0
 13 14  2  0  0  0  0
 13 15  1  0  0  0  0
 15 16  1  0  0  0  0
 15 18  1  0  0  0  0
 16 17  1  0  0  0  0
 18 19  4  0  0  0  0
 18 34  4  0  0  0  0
 19 20  4  0  0  0  0
 20 21  4  0  0  0  0
 21 22  1  0  0  0  0
 21 33  4  0  0  0  0
 22 23  1  0  0  0  0
 23 24  1  0  0  0  0
 24 25  1  0  0  0  0
 25 26  1  0  0  0  0
 26 27  1  0  0  0  0
 26 32  1  0  0  0  0
 27 28  1  0  0  0  0
 28 29  1  0  0  0  0
 29 30  1  0  0  0  0
 30 31  1  0  0  0  0
 31 32  1  0  0  0  0
 33 34  4  0  0  0  0
M  END
>  <Name_Molregno>
405725

>  <HISTAMINE H1>
5.6

>  <HISTAMINE H3>
8.3

$$$$
405726
  Marvin  02231216192D 0   1.00000     0.00000     0

 34 37  0  0  0  0  0  0  0  0999 V2000
    6.5151   -2.6216    0.0000 F   0  0  0  0  0  0  0  0  0
    6.5151   -3.4466    0.0000 C   0  0  0  0  0  0  0  0  0
    7.2296   -3.8591    0.0000 C   0  0  0  0  0  0  0  0  0
    7.2296   -4.6841    0.0000 C   0  0  0  0  0  0  0  0  0
    7.9441   -5.0966    0.0000 F   0  0  0  0  0  0  0  0  0
    6.5151   -5.0966    0.0000 C   0  0  0  0  0  0  0  0  0
    5.8006   -4.6841    0.0000 C   0  0  0  0  0  0  0  0  0
    5.8006   -3.8591    0.0000 C   0  0  0  0  0  0  0  0  0
    5.0862   -3.4466    0.0000 C   0  0  0  0  0  0  0  0  0
    4.3717   -3.8591    0.0000 O   0  0  0  0  0  0  0  0  0
    5.0862   -2.6216    0.0000 N   0  0  0  0  0  0  0  0  0
    4.3717   -2.2091    0.0000 C   0  0  0  0  0  0  0  0  0
    4.3717   -1.3841    0.0000 C   0  0  0  0  0  0  0  0  0
    3.6572   -0.9716    0.0000 O   0  0  0  0  0  0  0  0  0
    5.0862   -0.9716    0.0000 N   0  0  0  0  0  0  0  0  0
    5.8006   -1.3841    0.0000 C   0  0  0  0  0  0  0  0  0
    5.8006   -2.2091    0.0000 C   0  0  0  0  0  0  0  0  0
    5.0862   -0.1466    0.0000 C   0  0  0  0  0  0  0  0  0
    4.3717    0.2659    0.0000 C   0  0  0  0  0  0  0  0  0
    4.3717    1.0909    0.0000 C   0  0  0  0  0  0  0  0  0
    5.0862    1.5034    0.0000 C   0  0  0  0  0  0  0  0  0
    5.0862    2.3284    0.0000 O   0  0  0  0  0  0  0  0  0
    4.3717    2.7409    0.0000 C   0  0  0  0  0  0  0  0  0
    4.3717    3.5659    0.0000 C   0  0  0  0  0  0  0  0  0
    3.6572    3.9784    0.0000 C   0  0  0  0  0  0  0  0  0
    3.6572    4.8034    0.0000 N   0  0  0  0  0  0  0  0  0
    2.9139    5.1613    0.0000 C   0  0  0  0  0  0  0  0  0
    2.7303    5.9656    0.0000 C   0  0  0  0  0  0  0  0  0
    3.2447    6.6107    0.0000 C   0  0  0  0  0  0  0  0  0
    4.0697    6.6107    0.0000 C   0  0  0  0  0  0  0  0  0
    4.5841    5.9656    0.0000 C   0  0  0  0  0  0  0  0  0
    4.4005    5.1613    0.0000 C   0  0  0  0  0  0  0  0  0
    5.8006    1.0909    0.0000 C   0  0  0  0  0  0  0  0  0
    5.8006    0.2659    0.0000 C   0  0  0  0  0  0  0  0  0
  1  2  1  0  0  0  0
  2  3  4  0  0  0  0
  2  8  4  0  0  0  0
  3  4  4  0  0  0  0
  4  5  1  0  0  0  0
  4  6  4  0  0  0  0
  6  7  4  0  0  0  0
  7  8  4  0  0  0  0
  8  9  1  0  0  0  0
  9 10  2  0  0  0  0
  9 11  1  0  0  0  0
 11 12  1  0  0  0  0
 11 17  1  0  0  0  0
 12 13  1  0  0  0  0
 13 14  2  0  0  0  0
 13 15  1  0  0  0  0
 15 16  1  0  0  0  0
 15 18  1  0  0  0  0
 16 17  1  0  0  0  0
 18 19  4  0  0  0  0
 18 34  4  0  0  0  0
 19 20  4  0  0  0  0
 20 21  4  0  0  0  0
 21 22  1  0  0  0  0
 21 33  4  0  0  0  0
 22 23  1  0  0  0  0
 23 24  1  0  0  0  0
 24 25  1  0  0  0  0
 25 26  1  0  0  0  0
 26 27  1  0  0  0  0
 26 32  1  0  0  0  0
 27 28  1  0  0  0  0
 28 29  1  0  0  0  0
 29 30  1  0  0  0  0
 30 31  1  0  0  0  0
 31 32  1  0  0  0  0
 33 34  4  0  0  0  0
M  END
>  <Name_Molregno>
405726

>  <HISTAMINE H1>
5.6

>  <HISTAMINE H3>
8.1

$$$$
405732
  Marvin  02231216192D 0   1.00000     0.00000     0

 32 35  0  0  1  0  0  0  0  0999 V2000
    2.8519    5.0344    0.0000 F   0  0  0  0  0  0  0  0  0
    3.5663    4.6219    0.0000 C   0  0  0  0  0  0  0  0  0
    4.2808    5.0344    0.0000 C   0  0  0  0  0  0  0  0  0
    4.9953    4.6219    0.0000 C   0  0  0  0  0  0  0  0  0
    4.9953    3.7969    0.0000 C   0  0  0  0  0  0  0  0  0
    4.2808    3.3844    0.0000 C   0  0  0  0  0  0  0  0  0
    3.5663    3.7969    0.0000 C   0  0  0  0  0  0  0  0  0
    5.7098    3.3844    0.0000 C   0  0  0  0  0  0  0  0  0
    6.4242    3.7969    0.0000 O   0  0  0  0  0  0  0  0  0
    5.7098    2.5594    0.0000 N   0  0  0  0  0  0  0  0  0
    6.4242    2.1469    0.0000 C   0  0  0  0  0  0  0  0  0
    6.4242    1.3219    0.0000 C   0  0  0  0  0  0  0  0  0
    7.1387    0.9094    0.0000 O   0  0  0  0  0  0  0  0  0
    5.7098    0.9094    0.0000 N   0  0  0  0  0  0  0  0  0
    4.9953    1.3219    0.0000 C   0  0  0  0  0  0  0  0  0
    4.9953    2.1469    0.0000 C   0  0  0  0  0  0  0  0  0
    5.7098    0.0844    0.0000 C   0  0  0  0  0  0  0  0  0
    6.4242   -0.3281    0.0000 C   0  0  0  0  0  0  0  0  0
    6.4242   -1.1531    0.0000 C   0  0  0  0  0  0  0  0  0
    5.7098   -1.5656    0.0000 C   0  0  0  0  0  0  0  0  0
    5.7098   -2.3906    0.0000 O   0  0  0  0  0  0  0  0  0
    6.4242   -2.8031    0.0000 C   0  0  0  0  0  0  0  0  0
    6.4242   -3.6281    0.0000 C   0  0  0  0  0  0  0  0  0
    7.1387   -4.0406    0.0000 C   0  0  0  0  0  0  0  0  0
    7.1387   -4.8656    0.0000 N   0  0  0  0  0  0  0  0  0
    7.8061   -5.3505    0.0000 C   0  0  0  0  0  0  0  0  0
    7.5512   -6.1351    0.0000 C   0  0  0  0  0  0  0  0  0
    6.7262   -6.1351    0.0000 C   0  0  0  0  0  0  0  0  0
    6.4713   -5.3505    0.0000 C   0  0  0  0  0  0  0  0  0
    5.6866   -5.0956    0.0000 C   0  0  0  0  0  0  0  0  0
    4.9953   -1.1531    0.0000 C   0  0  0  0  0  0  0  0  0
    4.9953   -0.3281    0.0000 C   0  0  0  0  0  0  0  0  0
  1  2  1  0  0  0  0
  2  3  4  0  0  0  0
  2  7  4  0  0  0  0
  3  4  4  0  0  0  0
  4  5  4  0  0  0  0
  5  6  4  0  0  0  0
  5  8  1  0  0  0  0
  6  7  4  0  0  0  0
  8  9  2  0  0  0  0
  8 10  1  0  0  0  0
 10 11  1  0  0  0  0
 10 16  1  0  0  0  0
 11 12  1  0  0  0  0
 12 13  2  0  0  0  0
 12 14  1  0  0  0  0
 14 15  1  0  0  0  0
 14 17  1  0  0  0  0
 15 16  1  0  0  0  0
 17 18  4  0  0  0  0
 17 32  4  0  0  0  0
 18 19  4  0  0  0  0
 19 20  4  0  0  0  0
 20 21  1  0  0  0  0
 20 31  4  0  0  0  0
 21 22  1  0  0  0  0
 22 23  1  0  0  0  0
 23 24  1  0  0  0  0
 24 25  1  0  0  0  0
 25 26  1  0  0  0  0
 25 29  1  0  0  0  0
 26 27  1  0  0  0  0
 27 28  1  0  0  0  0
 28 29  1  0  0  0  0
 29 30  1  0  0  0  0
 31 32  4  0  0  0  0
M  END
>  <Name_Molregno>
405732

>  <Alpha-1A>
5.8

>  <Alpha-1B>
5.8

>  <HISTAMINE H1>
5.7

>  <HISTAMINE H3>
8.85

$$$$
405733
  Marvin  02231216192D 0   1.00000     0.00000     0

 33 36  0  0  1  0  0  0  0  0999 V2000
   -2.3591   -2.5305    0.0000 O   0  0  0  0  0  0  0  0  0
   -1.6446   -2.9430    0.0000 C   0  0  0  0  0  0  0  0  0
   -1.6446   -3.7680    0.0000 C   0  0  0  0  0  0  0  0  0
   -0.9301   -4.1805    0.0000 C   0  0  0  0  0  0  0  0  0
   -0.9301   -5.0055    0.0000 N   0  0  0  0  0  0  0  0  0
   -0.2627   -5.4904    0.0000 C   0  0  0  0  0  0  0  0  0
   -0.5176   -6.2750    0.0000 C   0  0  0  0  0  0  0  0  0
   -1.3426   -6.2750    0.0000 C   0  0  0  0  0  0  0  0  0
   -1.5976   -5.4904    0.0000 C   0  0  0  0  0  0  0  0  0
   -2.3822   -5.2355    0.0000 C   0  0  0  0  0  0  0  0  0
   -2.3591   -1.7055    0.0000 C   0  0  0  0  0  0  0  0  0
   -3.0735   -1.2930    0.0000 C   0  0  0  0  0  0  0  0  0
   -3.0735   -0.4680    0.0000 C   0  0  0  0  0  0  0  0  0
   -2.3591   -0.0555    0.0000 C   0  0  0  0  0  0  0  0  0
   -2.3591    0.7695    0.0000 N   0  0  0  0  0  0  0  0  0
   -3.0735    1.1820    0.0000 C   0  0  0  0  0  0  0  0  0
   -3.0735    2.0070    0.0000 C   0  0  0  0  0  0  0  0  0
   -2.3591    2.4195    0.0000 N   0  0  0  0  0  0  0  0  0
   -1.6446    2.0070    0.0000 C   0  0  0  0  0  0  0  0  0
   -1.6446    1.1820    0.0000 C   0  0  0  0  0  0  0  0  0
   -0.9301    0.7695    0.0000 O   0  0  0  0  0  0  0  0  0
   -2.3591    3.2445    0.0000 C   0  0  0  0  0  0  0  0  0
   -1.6446    3.6570    0.0000 O   0  0  0  0  0  0  0  0  0
   -3.0735    3.6570    0.0000 C   0  0  0  0  0  0  0  0  0
   -3.7880    3.2445    0.0000 C   0  0  0  0  0  0  0  0  0
   -4.5025    3.6570    0.0000 C   0  0  0  0  0  0  0  0  0
   -4.5025    4.4820    0.0000 C   0  0  0  0  0  0  0  0  0
   -3.7880    4.8945    0.0000 C   0  0  0  0  0  0  0  0  0
   -3.0735    4.4820    0.0000 C   0  0  0  0  0  0  0  0  0
   -5.2169    4.8945    0.0000 C   0  0  0  0  0  0  0  0  0
   -5.9314    5.3070    0.0000 N   0  0  0  0  0  0  0  0  0
   -1.6446   -0.4680    0.0000 C   0  0  0  0  0  0  0  0  0
   -1.6446   -1.2930    0.0000 C   0  0  0  0  0  0  0  0  0
  1  2  1  0  0  0  0
  1 11  1  0  0  0  0
  2  3  1  0  0  0  0
  3  4  1  0  0  0  0
  4  5  1  0  0  0  0
  5  6  1  0  0  0  0
  5  9  1  0  0  0  0
  6  7  1  0  0  0  0
  7  8  1  0  0  0  0
  8  9  1  0  0  0  0
  9 10  1  0  0  0  0
 11 12  4  0  0  0  0
 11 33  4  0  0  0  0
 12 13  4  0  0  0  0
 13 14  4  0  0  0  0
 14 15  1  0  0  0  0
 14 32  4  0  0  0  0
 15 16  1  0  0  0  0
 15 20  1  0  0  0  0
 16 17  1  0  0  0  0
 17 18  1  0  0  0  0
 18 19  1  0  0  0  0
 18 22  1  0  0  0  0
 19 20  1  0  0  0  0
 20 21  2  0  0  0  0
 22 23  2  0  0  0  0
 22 24  1  0  0  0  0
 24 25  4  0  0  0  0
 24 29  4  0  0  0  0
 25 26  4  0  0  0  0
 26 27  4  0  0  0  0
 27 28  4  0  0  0  0
 27 30  1  0  0  0  0
 28 29  4  0  0  0  0
 30 31  3  0  0  0  0
 32 33  4  0  0  0  0
M  END
>  <Name_Molregno>
405733

>  <Alpha-1A>
5.7

>  <Alpha-1B>
6.1

>  <HISTAMINE H1>
5.65

>  <HISTAMINE H3>
9.05

$$$$
405735
  Marvin  02231216192D 0   1.00000     0.00000     0

 33 36  0  0  1  0  0  0  0  0999 V2000
    4.2015    7.2978    0.0000 F   0  0  0  0  0  0  0  0  0
    4.2015    6.4728    0.0000 C   0  0  0  0  0  0  0  0  0
    4.9160    6.0603    0.0000 C   0  0  0  0  0  0  0  0  0
    4.9160    5.2353    0.0000 C   0  0  0  0  0  0  0  0  0
    4.2015    4.8228    0.0000 C   0  0  0  0  0  0  0  0  0
    3.4871    5.2353    0.0000 C   0  0  0  0  0  0  0  0  0
    2.7726    4.8228    0.0000 F   0  0  0  0  0  0  0  0  0
    3.4871    6.0603    0.0000 C   0  0  0  0  0  0  0  0  0
    5.6305    4.8228    0.0000 C   0  0  0  0  0  0  0  0  0
    6.3450    5.2353    0.0000 O   0  0  0  0  0  0  0  0  0
    5.6305    3.9978    0.0000 N   0  0  0  0  0  0  0  0  0
    6.3450    3.5853    0.0000 C   0  0  0  0  0  0  0  0  0
    6.3450    2.7603    0.0000 C   0  0  0  0  0  0  0  0  0
    7.0594    2.3478    0.0000 O   0  0  0  0  0  0  0  0  0
    5.6305    2.3478    0.0000 N   0  0  0  0  0  0  0  0  0
    4.9160    2.7603    0.0000 C   0  0  0  0  0  0  0  0  0
    4.9160    3.5853    0.0000 C   0  0  0  0  0  0  0  0  0
    5.6305    1.5228    0.0000 C   0  0  0  0  0  0  0  0  0
    6.3450    1.1103    0.0000 C   0  0  0  0  0  0  0  0  0
    6.3450    0.2853    0.0000 C   0  0  0  0  0  0  0  0  0
    5.6305   -0.1272    0.0000 C   0  0  0  0  0  0  0  0  0
    5.6305   -0.9522    0.0000 O   0  0  0  0  0  0  0  0  0
    6.3450   -1.3647    0.0000 C   0  0  0  0  0  0  0  0  0
    6.3450   -2.1897    0.0000 C   0  0  0  0  0  0  0  0  0
    7.0594   -2.6022    0.0000 C   0  0  0  0  0  0  0  0  0
    7.0594   -3.4272    0.0000 N   0  0  0  0  0  0  0  0  0
    7.7269   -3.9121    0.0000 C   0  0  0  0  0  0  0  0  0
    7.4719   -4.6967    0.0000 C   0  0  0  0  0  0  0  0  0
    6.6469   -4.6967    0.0000 C   0  0  0  0  0  0  0  0  0
    6.3920   -3.9121    0.0000 C   0  0  0  0  0  0  0  0  0
    5.6074   -3.6572    0.0000 C   0  0  0  0  0  0  0  0  0
    4.9160    0.2853    0.0000 C   0  0  0  0  0  0  0  0  0
    4.9160    1.1103    0.0000 C   0  0  0  0  0  0  0  0  0
  1  2  1  0  0  0  0
  2  3  4  0  0  0  0
  2  8  4  0  0  0  0
  3  4  4  0  0  0  0
  4  5  4  0  0  0  0
  4  9  1  0  0  0  0
  5  6  4  0  0  0  0
  6  7  1  0  0  0  0
  6  8  4  0  0  0  0
  9 10  2  0  0  0  0
  9 11  1  0  0  0  0
 11 12  1  0  0  0  0
 11 17  1  0  0  0  0
 12 13  1  0  0  0  0
 13 14  2  0  0  0  0
 13 15  1  0  0  0  0
 15 16  1  0  0  0  0
 15 18  1  0  0  0  0
 16 17  1  0  0  0  0
 18 19  4  0  0  0  0
 18 33  4  0  0  0  0
 19 20  4  0  0  0  0
 20 21  4  0  0  0  0
 21 22  1  0  0  0  0
 21 32  4  0  0  0  0
 22 23  1  0  0  0  0
 23 24  1  0  0  0  0
 24 25  1  0  0  0  0
 25 26  1  0  0  0  0
 26 27  1  0  0  0  0
 26 30  1  0  0  0  0
 27 28  1  0  0  0  0
 28 29  1  0  0  0  0
 29 30  1  0  0  0  0
 30 31  1  0  0  0  0
 32 33  4  0  0  0  0
M  END
>  <Name_Molregno>
405735

>  <Alpha-1A>
5

>  <Alpha-1B>
5.8

>  <HISTAMINE H1>
5.65

>  <HISTAMINE H3>
8.75

$$$$
405736
  Marvin  02231216192D 0   1.00000     0.00000     0

 33 36  0  0  1  0  0  0  0  0999 V2000
    3.3914    2.6255    0.0000 F   0  0  0  0  0  0  0  0  0
    3.3914    3.4505    0.0000 C   0  0  0  0  0  0  0  0  0
    2.6770    3.8630    0.0000 C   0  0  0  0  0  0  0  0  0
    2.6770    4.6880    0.0000 C   0  0  0  0  0  0  0  0  0
    1.9625    5.1005    0.0000 F   0  0  0  0  0  0  0  0  0
    3.3914    5.1005    0.0000 C   0  0  0  0  0  0  0  0  0
    4.1059    4.6880    0.0000 C   0  0  0  0  0  0  0  0  0
    4.1059    3.8630    0.0000 C   0  0  0  0  0  0  0  0  0
    4.8204    3.4505    0.0000 C   0  0  0  0  0  0  0  0  0
    5.5348    3.8630    0.0000 O   0  0  0  0  0  0  0  0  0
    4.8204    2.6255    0.0000 N   0  0  0  0  0  0  0  0  0
    5.5348    2.2130    0.0000 C   0  0  0  0  0  0  0  0  0
    5.5348    1.3880    0.0000 C   0  0  0  0  0  0  0  0  0
    6.2493    0.9755    0.0000 O   0  0  0  0  0  0  0  0  0
    4.8204    0.9755    0.0000 N   0  0  0  0  0  0  0  0  0
    4.1059    1.3880    0.0000 C   0  0  0  0  0  0  0  0  0
    4.1059    2.2130    0.0000 C   0  0  0  0  0  0  0  0  0
    4.8204    0.1505    0.0000 C   0  0  0  0  0  0  0  0  0
    5.5348   -0.2620    0.0000 C   0  0  0  0  0  0  0  0  0
    5.5348   -1.0870    0.0000 C   0  0  0  0  0  0  0  0  0
    4.8204   -1.4995    0.0000 C   0  0  0  0  0  0  0  0  0
    4.8204   -2.3245    0.0000 O   0  0  0  0  0  0  0  0  0
    5.5348   -2.7370    0.0000 C   0  0  0  0  0  0  0  0  0
    5.5348   -3.5620    0.0000 C   0  0  0  0  0  0  0  0  0
    6.2493   -3.9745    0.0000 C   0  0  0  0  0  0  0  0  0
    6.2493   -4.7995    0.0000 N   0  0  0  0  0  0  0  0  0
    6.9168   -5.2844    0.0000 C   0  0  0  0  0  0  0  0  0
    6.6618   -6.0690    0.0000 C   0  0  0  0  0  0  0  0  0
    5.8368   -6.0690    0.0000 C   0  0  0  0  0  0  0  0  0
    5.5819   -5.2844    0.0000 C   0  0  0  0  0  0  0  0  0
    4.7973   -5.0295    0.0000 C   0  0  0  0  0  0  0  0  0
    4.1059   -1.0870    0.0000 C   0  0  0  0  0  0  0  0  0
    4.1059   -0.2620    0.0000 C   0  0  0  0  0  0  0  0  0
  1  2  1  0  0  0  0
  2  3  4  0  0  0  0
  2  8  4  0  0  0  0
  3  4  4  0  0  0  0
  4  5  1  0  0  0  0
  4  6  4  0  0  0  0
  6  7  4  0  0  0  0
  7  8  4  0  0  0  0
  8  9  1  0  0  0  0
  9 10  2  0  0  0  0
  9 11  1  0  0  0  0
 11 12  1  0  0  0  0
 11 17  1  0  0  0  0
 12 13  1  0  0  0  0
 13 14  2  0  0  0  0
 13 15  1  0  0  0  0
 15 16  1  0  0  0  0
 15 18  1  0  0  0  0
 16 17  1  0  0  0  0
 18 19  4  0  0  0  0
 18 33  4  0  0  0  0
 19 20  4  0  0  0  0
 20 21  4  0  0  0  0
 21 22  1  0  0  0  0
 21 32  4  0  0  0  0
 22 23  1  0  0  0  0
 23 24  1  0  0  0  0
 24 25  1  0  0  0  0
 25 26  1  0  0  0  0
 26 27  1  0  0  0  0
 26 30  1  0  0  0  0
 27 28  1  0  0  0  0
 28 29  1  0  0  0  0
 29 30  1  0  0  0  0
 30 31  1  0  0  0  0
 32 33  4  0  0  0  0
M  END
>  <Name_Molregno>
405736

>  <Alpha-1A>
5.7

>  <Alpha-1B>
6.1

>  <HISTAMINE H1>
5.65

>  <HISTAMINE H3>
8.85

$$$$
405749
  Marvin  02231216192D 0   1.00000     0.00000     0

 33 36  0  0  0  0  0  0  0  0999 V2000
   -5.7766   -0.6840    0.0000 O   0  0  0  0  0  0  0  0  0
   -5.7766   -1.5090    0.0000 C   0  0  0  0  0  0  0  0  0
   -5.0622   -1.9215    0.0000 C   0  0  0  0  0  0  0  0  0
   -5.0622   -2.7465    0.0000 C   0  0  0  0  0  0  0  0  0
   -5.7766   -3.1590    0.0000 N   0  0  0  0  0  0  0  0  0
   -6.4911   -2.7465    0.0000 C   0  0  0  0  0  0  0  0  0
   -6.4911   -1.9215    0.0000 C   0  0  0  0  0  0  0  0  0
   -5.7766   -3.9840    0.0000 C   0  0  0  0  0  0  0  0  0
   -6.4911   -4.3965    0.0000 C   0  0  0  0  0  0  0  0  0
   -5.0622   -4.3965    0.0000 C   0  0  0  0  0  0  0  0  0
   -5.0622   -0.2715    0.0000 C   0  0  0  0  0  0  0  0  0
   -5.0622    0.5535    0.0000 C   0  0  0  0  0  0  0  0  0
   -4.3477    0.9660    0.0000 C   0  0  0  0  0  0  0  0  0
   -3.6332    0.5535    0.0000 C   0  0  0  0  0  0  0  0  0
   -2.9188    0.9660    0.0000 N   0  0  0  0  0  0  0  0  0
   -2.9188    1.7910    0.0000 C   0  0  0  0  0  0  0  0  0
   -2.2043    2.2035    0.0000 C   0  0  0  0  0  0  0  0  0
   -1.4898    1.7910    0.0000 N   0  0  0  0  0  0  0  0  0
   -1.4898    0.9660    0.0000 C   0  0  0  0  0  0  0  0  0
   -2.2043    0.5535    0.0000 C   0  0  0  0  0  0  0  0  0
   -2.2043   -0.2715    0.0000 O   0  0  0  0  0  0  0  0  0
   -0.7753    2.2035    0.0000 C   0  0  0  0  0  0  0  0  0
   -0.7753    3.0285    0.0000 O   0  0  0  0  0  0  0  0  0
   -0.0609    1.7910    0.0000 C   0  0  0  0  0  0  0  0  0
    0.6536    2.2035    0.0000 C   0  0  0  0  0  0  0  0  0
    1.3681    1.7910    0.0000 C   0  0  0  0  0  0  0  0  0
    1.3681    0.9660    0.0000 C   0  0  0  0  0  0  0  0  0
    0.6536    0.5535    0.0000 C   0  0  0  0  0  0  0  0  0
   -0.0609    0.9660    0.0000 C   0  0  0  0  0  0  0  0  0
    2.0825    0.5535    0.0000 C   0  0  0  0  0  0  0  0  0
    2.7970    0.1410    0.0000 N   0  0  0  0  0  0  0  0  0
   -3.6332   -0.2715    0.0000 C   0  0  0  0  0  0  0  0  0
   -4.3477   -0.6840    0.0000 C   0  0  0  0  0  0  0  0  0
  1  2  1  0  0  0  0
  1 11  1  0  0  0  0
  2  3  1  0  0  0  0
  2  7  1  0  0  0  0
  3  4  1  0  0  0  0
  4  5  1  0  0  0  0
  5  6  1  0  0  0  0
  5  8  1  0  0  0  0
  6  7  1  0  0  0  0
  8  9  1  0  0  0  0
  8 10  1  0  0  0  0
 11 12  4  0  0  0  0
 11 33  4  0  0  0  0
 12 13  4  0  0  0  0
 13 14  4  0  0  0  0
 14 15  1  0  0  0  0
 14 32  4  0  0  0  0
 15 16  1  0  0  0  0
 15 20  1  0  0  0  0
 16 17  1  0  0  0  0
 17 18  1  0  0  0  0
 18 19  1  0  0  0  0
 18 22  1  0  0  0  0
 19 20  1  0  0  0  0
 20 21  2  0  0  0  0
 22 23  2  0  0  0  0
 22 24  1  0  0  0  0
 24 25  4  0  0  0  0
 24 29  4  0  0  0  0
 25 26  4  0  0  0  0
 26 27  4  0  0  0  0
 27 28  4  0  0  0  0
 27 30  1  0  0  0  0
 28 29  4  0  0  0  0
 30 31  3  0  0  0  0
 32 33  4  0  0  0  0
M  END
>  <Name_Molregno>
405749

>  <HISTAMINE H1>
5.5

>  <HISTAMINE H3>
9.1

$$$$
405750
  Marvin  02231216192D 0   1.00000     0.00000     0

 33 36  0  0  0  0  0  0  0  0999 V2000
    4.8185    4.1878    0.0000 F   0  0  0  0  0  0  0  0  0
    4.8185    3.3628    0.0000 C   0  0  0  0  0  0  0  0  0
    5.5330    2.9503    0.0000 C   0  0  0  0  0  0  0  0  0
    5.5330    2.1253    0.0000 C   0  0  0  0  0  0  0  0  0
    4.8185    1.7128    0.0000 C   0  0  0  0  0  0  0  0  0
    4.1040    2.1253    0.0000 C   0  0  0  0  0  0  0  0  0
    3.3896    1.7128    0.0000 F   0  0  0  0  0  0  0  0  0
    4.1040    2.9503    0.0000 C   0  0  0  0  0  0  0  0  0
    6.2474    1.7128    0.0000 C   0  0  0  0  0  0  0  0  0
    6.9619    2.1253    0.0000 O   0  0  0  0  0  0  0  0  0
    6.2474    0.8878    0.0000 N   0  0  0  0  0  0  0  0  0
    6.9619    0.4753    0.0000 C   0  0  0  0  0  0  0  0  0
    6.9619   -0.3497    0.0000 C   0  0  0  0  0  0  0  0  0
    7.6764   -0.7622    0.0000 O   0  0  0  0  0  0  0  0  0
    6.2474   -0.7622    0.0000 N   0  0  0  0  0  0  0  0  0
    5.5330   -0.3497    0.0000 C   0  0  0  0  0  0  0  0  0
    5.5330    0.4753    0.0000 C   0  0  0  0  0  0  0  0  0
    6.2474   -1.5872    0.0000 C   0  0  0  0  0  0  0  0  0
    6.9619   -1.9997    0.0000 C   0  0  0  0  0  0  0  0  0
    6.9619   -2.8247    0.0000 C   0  0  0  0  0  0  0  0  0
    6.2474   -3.2372    0.0000 C   0  0  0  0  0  0  0  0  0
    6.2474   -4.0622    0.0000 O   0  0  0  0  0  0  0  0  0
    5.5330   -4.4747    0.0000 C   0  0  0  0  0  0  0  0  0
    5.5330   -5.2997    0.0000 C   0  0  0  0  0  0  0  0  0
    4.8185   -5.7122    0.0000 C   0  0  0  0  0  0  0  0  0
    4.1040   -5.2997    0.0000 N   0  0  0  0  0  0  0  0  0
    4.1040   -4.4747    0.0000 C   0  0  0  0  0  0  0  0  0
    4.8185   -4.0622    0.0000 C   0  0  0  0  0  0  0  0  0
    3.3896   -5.7122    0.0000 C   0  0  0  0  0  0  0  0  0
    3.3896   -6.5372    0.0000 C   0  0  0  0  0  0  0  0  0
    2.6751   -5.2997    0.0000 C   0  0  0  0  0  0  0  0  0
    5.5330   -2.8247    0.0000 C   0  0  0  0  0  0  0  0  0
    5.5330   -1.9997    0.0000 C   0  0  0  0  0  0  0  0  0
  1  2  1  0  0  0  0
  2  3  4  0  0  0  0
  2  8  4  0  0  0  0
  3  4  4  0  0  0  0
  4  5  4  0  0  0  0
  4  9  1  0  0  0  0
  5  6  4  0  0  0  0
  6  7  1  0  0  0  0
  6  8  4  0  0  0  0
  9 10  2  0  0  0  0
  9 11  1  0  0  0  0
 11 12  1  0  0  0  0
 11 17  1  0  0  0  0
 12 13  1  0  0  0  0
 13 14  2  0  0  0  0
 13 15  1  0  0  0  0
 15 16  1  0  0  0  0
 15 18  1  0  0  0  0
 16 17  1  0  0  0  0
 18 19  4  0  0  0  0
 18 33  4  0  0  0  0
 19 20  4  0  0  0  0
 20 21  4  0  0  0  0
 21 22  1  0  0  0  0
 21 32  4  0  0  0  0
 22 23  1  0  0  0  0
 23 24  1  0  0  0  0
 23 28  1  0  0  0  0
 24 25  1  0  0  0  0
 25 26  1  0  0  0  0
 26 27  1  0  0  0  0
 26 29  1  0  0  0  0
 27 28  1  0  0  0  0
 29 30  1  0  0  0  0
 29 31  1  0  0  0  0
 32 33  4  0  0  0  0
M  END
>  <Name_Molregno>
405750

>  <HISTAMINE H1>
5.6

>  <HISTAMINE H3>
8.7

$$$$
405751
  Marvin  02231216192D 0   1.00000     0.00000     0

 33 36  0  0  0  0  0  0  0  0999 V2000
   -3.8861   -3.0150    0.0000 F   0  0  0  0  0  0  0  0  0
   -3.8861   -3.8400    0.0000 C   0  0  0  0  0  0  0  0  0
   -3.1717   -4.2525    0.0000 C   0  0  0  0  0  0  0  0  0
   -3.1717   -5.0775    0.0000 C   0  0  0  0  0  0  0  0  0
   -2.4572   -5.4900    0.0000 F   0  0  0  0  0  0  0  0  0
   -3.8861   -5.4900    0.0000 C   0  0  0  0  0  0  0  0  0
   -4.6006   -5.0775    0.0000 C   0  0  0  0  0  0  0  0  0
   -4.6006   -4.2525    0.0000 C   0  0  0  0  0  0  0  0  0
   -5.3151   -3.8400    0.0000 C   0  0  0  0  0  0  0  0  0
   -6.0295   -4.2525    0.0000 O   0  0  0  0  0  0  0  0  0
   -5.3151   -3.0150    0.0000 N   0  0  0  0  0  0  0  0  0
   -6.0295   -2.6025    0.0000 C   0  0  0  0  0  0  0  0  0
   -6.0295   -1.7775    0.0000 C   0  0  0  0  0  0  0  0  0
   -6.7440   -1.3650    0.0000 O   0  0  0  0  0  0  0  0  0
   -5.3151   -1.3650    0.0000 N   0  0  0  0  0  0  0  0  0
   -4.6006   -1.7775    0.0000 C   0  0  0  0  0  0  0  0  0
   -4.6006   -2.6025    0.0000 C   0  0  0  0  0  0  0  0  0
   -5.3151   -0.5400    0.0000 C   0  0  0  0  0  0  0  0  0
   -6.0295   -0.1275    0.0000 C   0  0  0  0  0  0  0  0  0
   -6.0295    0.6975    0.0000 C   0  0  0  0  0  0  0  0  0
   -5.3151    1.1100    0.0000 C   0  0  0  0  0  0  0  0  0
   -5.3151    1.9350    0.0000 O   0  0  0  0  0  0  0  0  0
   -4.6006    2.3475    0.0000 C   0  0  0  0  0  0  0  0  0
   -4.6006    3.1725    0.0000 C   0  0  0  0  0  0  0  0  0
   -3.8861    3.5850    0.0000 C   0  0  0  0  0  0  0  0  0
   -3.1717    3.1725    0.0000 N   0  0  0  0  0  0  0  0  0
   -3.1717    2.3475    0.0000 C   0  0  0  0  0  0  0  0  0
   -3.8861    1.9350    0.0000 C   0  0  0  0  0  0  0  0  0
   -2.4572    3.5850    0.0000 C   0  0  0  0  0  0  0  0  0
   -2.4572    4.4100    0.0000 C   0  0  0  0  0  0  0  0  0
   -1.7427    3.1725    0.0000 C   0  0  0  0  0  0  0  0  0
   -4.6006    0.6975    0.0000 C   0  0  0  0  0  0  0  0  0
   -4.6006   -0.1275    0.0000 C   0  0  0  0  0  0  0  0  0
  1  2  1  0  0  0  0
  2  3  4  0  0  0  0
  2  8  4  0  0  0  0
  3  4  4  0  0  0  0
  4  5  1  0  0  0  0
  4  6  4  0  0  0  0
  6  7  4  0  0  0  0
  7  8  4  0  0  0  0
  8  9  1  0  0  0  0
  9 10  2  0  0  0  0
  9 11  1  0  0  0  0
 11 12  1  0  0  0  0
 11 17  1  0  0  0  0
 12 13  1  0  0  0  0
 13 14  2  0  0  0  0
 13 15  1  0  0  0  0
 15 16  1  0  0  0  0
 15 18  1  0  0  0  0
 16 17  1  0  0  0  0
 18 19  4  0  0  0  0
 18 33  4  0  0  0  0
 19 20  4  0  0  0  0
 20 21  4  0  0  0  0
 21 22  1  0  0  0  0
 21 32  4  0  0  0  0
 22 23  1  0  0  0  0
 23 24  1  0  0  0  0
 23 28  1  0  0  0  0
 24 25  1  0  0  0  0
 25 26  1  0  0  0  0
 26 27  1  0  0  0  0
 26 29  1  0  0  0  0
 27 28  1  0  0  0  0
 29 30  1  0  0  0  0
 29 31  1  0  0  0  0
 32 33  4  0  0  0  0
M  END
>  <Name_Molregno>
405751

>  <HISTAMINE H1>
5.6

>  <HISTAMINE H3>
8.4

$$$$
405758
  Marvin  02231216192D 0   1.00000     0.00000     0

 34 38  0  0  0  0  0  0  0  0999 V2000
   -5.5368   -0.1259    0.0000 O   0  0  0  0  0  0  0  0  0
   -5.5368   -0.9509    0.0000 C   0  0  0  0  0  0  0  0  0
   -4.8223   -1.3634    0.0000 C   0  0  0  0  0  0  0  0  0
   -4.8223   -2.1884    0.0000 C   0  0  0  0  0  0  0  0  0
   -5.5368   -2.6009    0.0000 N   0  0  0  0  0  0  0  0  0
   -6.2513   -2.1884    0.0000 C   0  0  0  0  0  0  0  0  0
   -6.2513   -1.3634    0.0000 C   0  0  0  0  0  0  0  0  0
   -5.5368   -3.4259    0.0000 C   0  0  0  0  0  0  0  0  0
   -4.9534   -4.0092    0.0000 C   0  0  0  0  0  0  0  0  0
   -5.5368   -4.5926    0.0000 C   0  0  0  0  0  0  0  0  0
   -6.1202   -4.0092    0.0000 C   0  0  0  0  0  0  0  0  0
   -4.8223    0.2866    0.0000 C   0  0  0  0  0  0  0  0  0
   -4.8223    1.1116    0.0000 C   0  0  0  0  0  0  0  0  0
   -4.1078    1.5241    0.0000 C   0  0  0  0  0  0  0  0  0
   -3.3934    1.1116    0.0000 C   0  0  0  0  0  0  0  0  0
   -2.6789    1.5241    0.0000 N   0  0  0  0  0  0  0  0  0
   -2.6789    2.3491    0.0000 C   0  0  0  0  0  0  0  0  0
   -1.9644    2.7616    0.0000 C   0  0  0  0  0  0  0  0  0
   -1.2500    2.3491    0.0000 N   0  0  0  0  0  0  0  0  0
   -1.2500    1.5241    0.0000 C   0  0  0  0  0  0  0  0  0
   -1.9644    1.1116    0.0000 C   0  0  0  0  0  0  0  0  0
   -1.9644    0.2866    0.0000 O   0  0  0  0  0  0  0  0  0
   -0.5355    2.7616    0.0000 C   0  0  0  0  0  0  0  0  0
   -0.5355    3.5866    0.0000 O   0  0  0  0  0  0  0  0  0
    0.1790    2.3491    0.0000 C   0  0  0  0  0  0  0  0  0
    0.8934    2.7616    0.0000 C   0  0  0  0  0  0  0  0  0
    1.6079    2.3491    0.0000 C   0  0  0  0  0  0  0  0  0
    1.6079    1.5241    0.0000 C   0  0  0  0  0  0  0  0  0
    0.8934    1.1116    0.0000 C   0  0  0  0  0  0  0  0  0
    0.1790    1.5241    0.0000 C   0  0  0  0  0  0  0  0  0
    2.3224    1.1116    0.0000 C   0  0  0  0  0  0  0  0  0
    3.0369    0.6991    0.0000 N   0  0  0  0  0  0  0  0  0
   -3.3934    0.2866    0.0000 C   0  0  0  0  0  0  0  0  0
   -4.1078   -0.1259    0.0000 C   0  0  0  0  0  0  0  0  0
  1  2  1  0  0  0  0
  1 12  1  0  0  0  0
  2  3  1  0  0  0  0
  2  7  1  0  0  0  0
  3  4  1  0  0  0  0
  4  5  1  0  0  0  0
  5  6  1  0  0  0  0
  5  8  1  0  0  0  0
  6  7  1  0  0  0  0
  8  9  1  0  0  0  0
  8 11  1  0  0  0  0
  9 10  1  0  0  0  0
 10 11  1  0  0  0  0
 12 13  4  0  0  0  0
 12 34  4  0  0  0  0
 13 14  4  0  0  0  0
 14 15  4  0  0  0  0
 15 16  1  0  0  0  0
 15 33  4  0  0  0  0
 16 17  1  0  0  0  0
 16 21  1  0  0  0  0
 17 18  1  0  0  0  0
 18 19  1  0  0  0  0
 19 20  1  0  0  0  0
 19 23  1  0  0  0  0
 20 21  1  0  0  0  0
 21 22  2  0  0  0  0
 23 24  2  0  0  0  0
 23 25  1  0  0  0  0
 25 26  4  0  0  0  0
 25 30  4  0  0  0  0
 26 27  4  0  0  0  0
 27 28  4  0  0  0  0
 28 29  4  0  0  0  0
 28 31  1  0  0  0  0
 29 30  4  0  0  0  0
 31 32  3  0  0  0  0
 33 34  4  0  0  0  0
M  END
>  <Name_Molregno>
405758

>  <Alpha-1A>
5.7

>  <Alpha-1B>
6.1

>  <HISTAMINE H1>
5.6

>  <HISTAMINE H3>
9

$$$$
405759
  Marvin  02231216192D 0   1.00000     0.00000     0

 36 40  0  0  0  0  0  0  0  0999 V2000
    0.4738    1.0420    0.0000 S   0  0  0  0  0  0  0  0  0
   -0.2407    0.6295    0.0000 O   0  0  0  0  0  0  0  0  0
    0.8863    0.3275    0.0000 O   0  0  0  0  0  0  0  0  0
    0.0613    1.7565    0.0000 C   0  0  0  0  0  0  0  0  0
    1.1883    1.4545    0.0000 C   0  0  0  0  0  0  0  0  0
    1.1883    2.2795    0.0000 C   0  0  0  0  0  0  0  0  0
    1.9027    2.6920    0.0000 C   0  0  0  0  0  0  0  0  0
    2.6172    2.2795    0.0000 C   0  0  0  0  0  0  0  0  0
    2.6172    1.4545    0.0000 C   0  0  0  0  0  0  0  0  0
    1.9027    1.0420    0.0000 C   0  0  0  0  0  0  0  0  0
    3.3317    2.6920    0.0000 C   0  0  0  0  0  0  0  0  0
    3.3317    3.5170    0.0000 O   0  0  0  0  0  0  0  0  0
    4.0462    2.2795    0.0000 N   0  0  0  0  0  0  0  0  0
    4.7606    2.6920    0.0000 C   0  0  0  0  0  0  0  0  0
    5.4751    2.2795    0.0000 C   0  0  0  0  0  0  0  0  0
    6.1896    2.6920    0.0000 O   0  0  0  0  0  0  0  0  0
    5.4751    1.4545    0.0000 N   0  0  0  0  0  0  0  0  0
    4.7606    1.0420    0.0000 C   0  0  0  0  0  0  0  0  0
    4.0462    1.4545    0.0000 C   0  0  0  0  0  0  0  0  0
    6.1896    1.0420    0.0000 C   0  0  0  0  0  0  0  0  0
    6.9040    1.4545    0.0000 C   0  0  0  0  0  0  0  0  0
    7.6185    1.0420    0.0000 C   0  0  0  0  0  0  0  0  0
    7.6185    0.2170    0.0000 C   0  0  0  0  0  0  0  0  0
    8.3330   -0.1955    0.0000 O   0  0  0  0  0  0  0  0  0
    8.3330   -1.0205    0.0000 C   0  0  0  0  0  0  0  0  0
    9.0475   -1.4330    0.0000 C   0  0  0  0  0  0  0  0  0
    9.0475   -2.2580    0.0000 C   0  0  0  0  0  0  0  0  0
    8.3330   -2.6705    0.0000 N   0  0  0  0  0  0  0  0  0
    7.6185   -2.2580    0.0000 C   0  0  0  0  0  0  0  0  0
    7.6185   -1.4330    0.0000 C   0  0  0  0  0  0  0  0  0
    8.3330   -3.4955    0.0000 C   0  0  0  0  0  0  0  0  0
    8.9163   -4.0789    0.0000 C   0  0  0  0  0  0  0  0  0
    8.3330   -4.6622    0.0000 C   0  0  0  0  0  0  0  0  0
    7.7496   -4.0789    0.0000 C   0  0  0  0  0  0  0  0  0
    6.9040   -0.1955    0.0000 C   0  0  0  0  0  0  0  0  0
    6.1896    0.2170    0.0000 C   0  0  0  0  0  0  0  0  0
  1  2  2  0  0  0  0
  1  3  2  0  0  0  0
  1  4  1  0  0  0  0
  1  5  1  0  0  0  0
  5  6  4  0  0  0  0
  5 10  4  0  0  0  0
  6  7  4  0  0  0  0
  7  8  4  0  0  0  0
  8  9  4  0  0  0  0
  8 11  1  0  0  0  0
  9 10  4  0  0  0  0
 11 12  2  0  0  0  0
 11 13  1  0  0  0  0
 13 14  1  0  0  0  0
 13 19  1  0  0  0  0
 14 15  1  0  0  0  0
 15 16  2  0  0  0  0
 15 17  1  0  0  0  0
 17 18  1  0  0  0  0
 17 20  1  0  0  0  0
 18 19  1  0  0  0  0
 20 21  4  0  0  0  0
 20 36  4  0  0  0  0
 21 22  4  0  0  0  0
 22 23  4  0  0  0  0
 23 24  1  0  0  0  0
 23 35  4  0  0  0  0
 24 25  1  0  0  0  0
 25 26  1  0  0  0  0
 25 30  1  0  0  0  0
 26 27  1  0  0  0  0
 27 28  1  0  0  0  0
 28 29  1  0  0  0  0
 28 31  1  0  0  0  0
 29 30  1  0  0  0  0
 31 32  1  0  0  0  0
 31 34  1  0  0  0  0
 32 33  1  0  0  0  0
 33 34  1  0  0  0  0
 35 36  4  0  0  0  0
M  END
>  <Name_Molregno>
405759

>  <HISTAMINE H1>
5.6

>  <HISTAMINE H3>
8.9

$$$$
405761
  Marvin  02231216192D 0   1.00000     0.00000     0

 34 38  0  0  0  0  0  0  0  0999 V2000
    0.4911    3.6546    0.0000 F   0  0  0  0  0  0  0  0  0
    1.2056    3.2421    0.0000 C   0  0  0  0  0  0  0  0  0
    1.9200    3.6546    0.0000 C   0  0  0  0  0  0  0  0  0
    2.6345    3.2421    0.0000 C   0  0  0  0  0  0  0  0  0
    2.6345    2.4171    0.0000 C   0  0  0  0  0  0  0  0  0
    1.9200    2.0046    0.0000 C   0  0  0  0  0  0  0  0  0
    1.9200    1.1796    0.0000 F   0  0  0  0  0  0  0  0  0
    1.2056    2.4171    0.0000 C   0  0  0  0  0  0  0  0  0
    3.3490    3.6546    0.0000 C   0  0  0  0  0  0  0  0  0
    3.3490    4.4796    0.0000 O   0  0  0  0  0  0  0  0  0
    4.0634    3.2421    0.0000 N   0  0  0  0  0  0  0  0  0
    4.7779    3.6546    0.0000 C   0  0  0  0  0  0  0  0  0
    5.4924    3.2421    0.0000 C   0  0  0  0  0  0  0  0  0
    6.2068    3.6546    0.0000 O   0  0  0  0  0  0  0  0  0
    5.4924    2.4171    0.0000 N   0  0  0  0  0  0  0  0  0
    4.7779    2.0046    0.0000 C   0  0  0  0  0  0  0  0  0
    4.0634    2.4171    0.0000 C   0  0  0  0  0  0  0  0  0
    6.2068    2.0046    0.0000 C   0  0  0  0  0  0  0  0  0
    6.9213    2.4171    0.0000 C   0  0  0  0  0  0  0  0  0
    7.6358    2.0046    0.0000 C   0  0  0  0  0  0  0  0  0
    7.6358    1.1796    0.0000 C   0  0  0  0  0  0  0  0  0
    8.3503    0.7671    0.0000 O   0  0  0  0  0  0  0  0  0
    8.3503   -0.0579    0.0000 C   0  0  0  0  0  0  0  0  0
    9.0647   -0.4704    0.0000 C   0  0  0  0  0  0  0  0  0
    9.0647   -1.2954    0.0000 C   0  0  0  0  0  0  0  0  0
    8.3503   -1.7079    0.0000 N   0  0  0  0  0  0  0  0  0
    7.6358   -1.2954    0.0000 C   0  0  0  0  0  0  0  0  0
    7.6358   -0.4704    0.0000 C   0  0  0  0  0  0  0  0  0
    8.3503   -2.5329    0.0000 C   0  0  0  0  0  0  0  0  0
    8.9336   -3.1163    0.0000 C   0  0  0  0  0  0  0  0  0
    8.3503   -3.6996    0.0000 C   0  0  0  0  0  0  0  0  0
    7.7669   -3.1163    0.0000 C   0  0  0  0  0  0  0  0  0
    6.9213    0.7671    0.0000 C   0  0  0  0  0  0  0  0  0
    6.2068    1.1796    0.0000 C   0  0  0  0  0  0  0  0  0
  1  2  1  0  0  0  0
  2  3  4  0  0  0  0
  2  8  4  0  0  0  0
  3  4  4  0  0  0  0
  4  5  4  0  0  0  0
  4  9  1  0  0  0  0
  5  6  4  0  0  0  0
  6  7  1  0  0  0  0
  6  8  4  0  0  0  0
  9 10  2  0  0  0  0
  9 11  1  0  0  0  0
 11 12  1  0  0  0  0
 11 17  1  0  0  0  0
 12 13  1  0  0  0  0
 13 14  2  0  0  0  0
 13 15  1  0  0  0  0
 15 16  1  0  0  0  0
 15 18  1  0  0  0  0
 16 17  1  0  0  0  0
 18 19  4  0  0  0  0
 18 34  4  0  0  0  0
 19 20  4  0  0  0  0
 20 21  4  0  0  0  0
 21 22  1  0  0  0  0
 21 33  4  0  0  0  0
 22 23  1  0  0  0  0
 23 24  1  0  0  0  0
 23 28  1  0  0  0  0
 24 25  1  0  0  0  0
 25 26  1  0  0  0  0
 26 27  1  0  0  0  0
 26 29  1  0  0  0  0
 27 28  1  0  0  0  0
 29 30  1  0  0  0  0
 29 32  1  0  0  0  0
 30 31  1  0  0  0  0
 31 32  1  0  0  0  0
 33 34  4  0  0  0  0
M  END
>  <Name_Molregno>
405761

>  <Alpha-1A>
5.7

>  <Alpha-1B>
6.1

>  <HISTAMINE H1>
5.8

>  <HISTAMINE H3>
9.1

$$$$
405765
  Marvin  02231216192D 0   1.00000     0.00000     0

 34 38  0  0  0  0  0  0  0  0999 V2000
   -6.8588   -0.1183    0.0000 F   0  0  0  0  0  0  0  0  0
   -7.5732    0.2942    0.0000 C   0  0  0  0  0  0  0  0  0
   -8.2877   -0.1183    0.0000 C   0  0  0  0  0  0  0  0  0
   -9.0022    0.2942    0.0000 C   0  0  0  0  0  0  0  0  0
   -9.7167   -0.1183    0.0000 F   0  0  0  0  0  0  0  0  0
   -9.0022    1.1192    0.0000 C   0  0  0  0  0  0  0  0  0
   -8.2877    1.5317    0.0000 C   0  0  0  0  0  0  0  0  0
   -7.5732    1.1192    0.0000 C   0  0  0  0  0  0  0  0  0
   -6.8588    1.5317    0.0000 C   0  0  0  0  0  0  0  0  0
   -6.8588    2.3567    0.0000 O   0  0  0  0  0  0  0  0  0
   -6.1443    1.1192    0.0000 N   0  0  0  0  0  0  0  0  0
   -5.4298    1.5317    0.0000 C   0  0  0  0  0  0  0  0  0
   -4.7154    1.1192    0.0000 C   0  0  0  0  0  0  0  0  0
   -4.0009    1.5317    0.0000 O   0  0  0  0  0  0  0  0  0
   -4.7154    0.2942    0.0000 N   0  0  0  0  0  0  0  0  0
   -5.4298   -0.1183    0.0000 C   0  0  0  0  0  0  0  0  0
   -6.1443    0.2942    0.0000 C   0  0  0  0  0  0  0  0  0
   -4.0009   -0.1183    0.0000 C   0  0  0  0  0  0  0  0  0
   -3.2864    0.2942    0.0000 C   0  0  0  0  0  0  0  0  0
   -2.5720   -0.1183    0.0000 C   0  0  0  0  0  0  0  0  0
   -2.5720   -0.9433    0.0000 C   0  0  0  0  0  0  0  0  0
   -1.8575   -1.3558    0.0000 O   0  0  0  0  0  0  0  0  0
   -1.8575   -2.1808    0.0000 C   0  0  0  0  0  0  0  0  0
   -1.1430   -2.5933    0.0000 C   0  0  0  0  0  0  0  0  0
   -1.1430   -3.4183    0.0000 C   0  0  0  0  0  0  0  0  0
   -1.8575   -3.8308    0.0000 N   0  0  0  0  0  0  0  0  0
   -2.5720   -3.4183    0.0000 C   0  0  0  0  0  0  0  0  0
   -2.5720   -2.5933    0.0000 C   0  0  0  0  0  0  0  0  0
   -1.8575   -4.6558    0.0000 C   0  0  0  0  0  0  0  0  0
   -1.2741   -5.2391    0.0000 C   0  0  0  0  0  0  0  0  0
   -1.8575   -5.8225    0.0000 C   0  0  0  0  0  0  0  0  0
   -2.4408   -5.2391    0.0000 C   0  0  0  0  0  0  0  0  0
   -3.2864   -1.3558    0.0000 C   0  0  0  0  0  0  0  0  0
   -4.0009   -0.9433    0.0000 C   0  0  0  0  0  0  0  0  0
  1  2  1  0  0  0  0
  2  3  4  0  0  0  0
  2  8  4  0  0  0  0
  3  4  4  0  0  0  0
  4  5  1  0  0  0  0
  4  6  4  0  0  0  0
  6  7  4  0  0  0  0
  7  8  4  0  0  0  0
  8  9  1  0  0  0  0
  9 10  2  0  0  0  0
  9 11  1  0  0  0  0
 11 12  1  0  0  0  0
 11 17  1  0  0  0  0
 12 13  1  0  0  0  0
 13 14  2  0  0  0  0
 13 15  1  0  0  0  0
 15 16  1  0  0  0  0
 15 18  1  0  0  0  0
 16 17  1  0  0  0  0
 18 19  4  0  0  0  0
 18 34  4  0  0  0  0
 19 20  4  0  0  0  0
 20 21  4  0  0  0  0
 21 22  1  0  0  0  0
 21 33  4  0  0  0  0
 22 23  1  0  0  0  0
 23 24  1  0  0  0  0
 23 28  1  0  0  0  0
 24 25  1  0  0  0  0
 25 26  1  0  0  0  0
 26 27  1  0  0  0  0
 26 29  1  0  0  0  0
 27 28  1  0  0  0  0
 29 30  1  0  0  0  0
 29 32  1  0  0  0  0
 30 31  1  0  0  0  0
 31 32  1  0  0  0  0
 33 34  4  0  0  0  0
M  END
>  <Name_Molregno>
405765

>  <HISTAMINE H1>
5.6

>  <HISTAMINE H3>
8.8

$$$$
405767
  Marvin  02231216192D 0   1.00000     0.00000     0

 38 43  0  0  0  0  0  0  0  0999 V2000
   -6.6658   -0.2825    0.0000 O   0  0  0  0  0  0  0  0  0
   -6.6658   -1.1075    0.0000 C   0  0  0  0  0  0  0  0  0
   -5.9513   -1.5200    0.0000 C   0  0  0  0  0  0  0  0  0
   -5.9513   -2.3450    0.0000 C   0  0  0  0  0  0  0  0  0
   -6.6658   -2.7575    0.0000 N   0  0  0  0  0  0  0  0  0
   -7.3803   -2.3450    0.0000 C   0  0  0  0  0  0  0  0  0
   -7.3803   -1.5200    0.0000 C   0  0  0  0  0  0  0  0  0
   -6.6658   -3.5825    0.0000 C   0  0  0  0  0  0  0  0  0
   -6.0825   -4.1659    0.0000 C   0  0  0  0  0  0  0  0  0
   -6.6658   -4.7492    0.0000 C   0  0  0  0  0  0  0  0  0
   -7.2492   -4.1659    0.0000 C   0  0  0  0  0  0  0  0  0
   -5.9513    0.1300    0.0000 C   0  0  0  0  0  0  0  0  0
   -5.9513    0.9550    0.0000 C   0  0  0  0  0  0  0  0  0
   -5.2369    1.3675    0.0000 C   0  0  0  0  0  0  0  0  0
   -4.5224    0.9550    0.0000 C   0  0  0  0  0  0  0  0  0
   -3.8079    1.3675    0.0000 N   0  0  0  0  0  0  0  0  0
   -3.8079    2.1925    0.0000 C   0  0  0  0  0  0  0  0  0
   -3.0935    2.6050    0.0000 C   0  0  0  0  0  0  0  0  0
   -2.3790    2.1925    0.0000 N   0  0  0  0  0  0  0  0  0
   -2.3790    1.3675    0.0000 C   0  0  0  0  0  0  0  0  0
   -3.0935    0.9550    0.0000 C   0  0  0  0  0  0  0  0  0
   -3.0935    0.1300    0.0000 O   0  0  0  0  0  0  0  0  0
   -1.6645    2.6050    0.0000 C   0  0  0  0  0  0  0  0  0
   -1.6645    3.4300    0.0000 O   0  0  0  0  0  0  0  0  0
   -0.9500    2.1925    0.0000 C   0  0  0  0  0  0  0  0  0
   -0.2356    2.6050    0.0000 C   0  0  0  0  0  0  0  0  0
    0.4789    2.1925    0.0000 C   0  0  0  0  0  0  0  0  0
    0.4789    1.3675    0.0000 C   0  0  0  0  0  0  0  0  0
   -0.2356    0.9550    0.0000 C   0  0  0  0  0  0  0  0  0
   -0.9500    1.3675    0.0000 C   0  0  0  0  0  0  0  0  0
    1.1934    0.9550    0.0000 C   0  0  0  0  0  0  0  0  0
    1.9078    1.3675    0.0000 O   0  0  0  0  0  0  0  0  0
    1.1934    0.1300    0.0000 N   0  0  0  0  0  0  0  0  0
    1.7767   -0.4534    0.0000 C   0  0  0  0  0  0  0  0  0
    1.1934   -1.0367    0.0000 C   0  0  0  0  0  0  0  0  0
    0.6100   -0.4534    0.0000 C   0  0  0  0  0  0  0  0  0
   -4.5224    0.1300    0.0000 C   0  0  0  0  0  0  0  0  0
   -5.2369   -0.2825    0.0000 C   0  0  0  0  0  0  0  0  0
  1  2  1  0  0  0  0
  1 12  1  0  0  0  0
  2  3  1  0  0  0  0
  2  7  1  0  0  0  0
  3  4  1  0  0  0  0
  4  5  1  0  0  0  0
  5  6  1  0  0  0  0
  5  8  1  0  0  0  0
  6  7  1  0  0  0  0
  8  9  1  0  0  0  0
  8 11  1  0  0  0  0
  9 10  1  0  0  0  0
 10 11  1  0  0  0  0
 12 13  4  0  0  0  0
 12 38  4  0  0  0  0
 13 14  4  0  0  0  0
 14 15  4  0  0  0  0
 15 16  1  0  0  0  0
 15 37  4  0  0  0  0
 16 17  1  0  0  0  0
 16 21  1  0  0  0  0
 17 18  1  0  0  0  0
 18 19  1  0  0  0  0
 19 20  1  0  0  0  0
 19 23  1  0  0  0  0
 20 21  1  0  0  0  0
 21 22  2  0  0  0  0
 23 24  2  0  0  0  0
 23 25  1  0  0  0  0
 25 26  4  0  0  0  0
 25 30  4  0  0  0  0
 26 27  4  0  0  0  0
 27 28  4  0  0  0  0
 28 29  4  0  0  0  0
 28 31  1  0  0  0  0
 29 30  4  0  0  0  0
 31 32  2  0  0  0  0
 31 33  1  0  0  0  0
 33 34  1  0  0  0  0
 33 36  1  0  0  0  0
 34 35  1  0  0  0  0
 35 36  1  0  0  0  0
 37 38  4  0  0  0  0
M  END
>  <Name_Molregno>
405767

>  <HISTAMINE H1>
5.6

>  <HISTAMINE H3>
9.5

$$$$
405771
  Marvin  02231216192D 0   1.00000     0.00000     0

 34 38  0  0  0  0  0  0  0  0999 V2000
    0.6039    1.3331    0.0000 Cl  0  0  0  0  0  0  0  0  0
    1.3184    1.7456    0.0000 C   0  0  0  0  0  0  0  0  0
    1.3184    2.5706    0.0000 C   0  0  0  0  0  0  0  0  0
    2.0328    2.9831    0.0000 C   0  0  0  0  0  0  0  0  0
    2.7473    2.5706    0.0000 C   0  0  0  0  0  0  0  0  0
    2.7473    1.7456    0.0000 C   0  0  0  0  0  0  0  0  0
    2.0328    1.3331    0.0000 C   0  0  0  0  0  0  0  0  0
    3.4618    2.9831    0.0000 C   0  0  0  0  0  0  0  0  0
    3.4618    3.8081    0.0000 O   0  0  0  0  0  0  0  0  0
    4.1763    2.5706    0.0000 N   0  0  0  0  0  0  0  0  0
    4.8907    2.9831    0.0000 C   0  0  0  0  0  0  0  0  0
    5.6052    2.5706    0.0000 C   0  0  0  0  0  0  0  0  0
    6.3197    2.9831    0.0000 O   0  0  0  0  0  0  0  0  0
    5.6052    1.7456    0.0000 N   0  0  0  0  0  0  0  0  0
    4.8907    1.3331    0.0000 C   0  0  0  0  0  0  0  0  0
    4.1763    1.7456    0.0000 C   0  0  0  0  0  0  0  0  0
    6.3197    1.3331    0.0000 C   0  0  0  0  0  0  0  0  0
    7.0341    1.7456    0.0000 C   0  0  0  0  0  0  0  0  0
    7.7486    1.3331    0.0000 C   0  0  0  0  0  0  0  0  0
    7.7486    0.5081    0.0000 C   0  0  0  0  0  0  0  0  0
    8.4631    0.0956    0.0000 O   0  0  0  0  0  0  0  0  0
    8.4631   -0.7294    0.0000 C   0  0  0  0  0  0  0  0  0
    9.1775   -1.1419    0.0000 C   0  0  0  0  0  0  0  0  0
    9.1775   -1.9669    0.0000 C   0  0  0  0  0  0  0  0  0
    8.4631   -2.3794    0.0000 N   0  0  0  0  0  0  0  0  0
    7.7486   -1.9669    0.0000 C   0  0  0  0  0  0  0  0  0
    7.7486   -1.1419    0.0000 C   0  0  0  0  0  0  0  0  0
    8.4631   -3.2044    0.0000 C   0  0  0  0  0  0  0  0  0
    9.1305   -3.6894    0.0000 C   0  0  0  0  0  0  0  0  0
    8.8756   -4.4740    0.0000 C   0  0  0  0  0  0  0  0  0
    8.0506   -4.4740    0.0000 C   0  0  0  0  0  0  0  0  0
    7.7956   -3.6894    0.0000 C   0  0  0  0  0  0  0  0  0
    7.0341    0.0956    0.0000 C   0  0  0  0  0  0  0  0  0
    6.3197    0.5081    0.0000 C   0  0  0  0  0  0  0  0  0
  1  2  1  0  0  0  0
  2  3  4  0  0  0  0
  2  7  4  0  0  0  0
  3  4  4  0  0  0  0
  4  5  4  0  0  0  0
  5  6  4  0  0  0  0
  5  8  1  0  0  0  0
  6  7  4  0  0  0  0
  8  9  2  0  0  0  0
  8 10  1  0  0  0  0
 10 11  1  0  0  0  0
 10 16  1  0  0  0  0
 11 12  1  0  0  0  0
 12 13  2  0  0  0  0
 12 14  1  0  0  0  0
 14 15  1  0  0  0  0
 14 17  1  0  0  0  0
 15 16  1  0  0  0  0
 17 18  4  0  0  0  0
 17 34  4  0  0  0  0
 18 19  4  0  0  0  0
 19 20  4  0  0  0  0
 20 21  1  0  0  0  0
 20 33  4  0  0  0  0
 21 22  1  0  0  0  0
 22 23  1  0  0  0  0
 22 27  1  0  0  0  0
 23 24  1  0  0  0  0
 24 25  1  0  0  0  0
 25 26  1  0  0  0  0
 25 28  1  0  0  0  0
 26 27  1  0  0  0  0
 28 29  1  0  0  0  0
 28 32  1  0  0  0  0
 29 30  1  0  0  0  0
 30 31  1  0  0  0  0
 31 32  1  0  0  0  0
 33 34  4  0  0  0  0
M  END
>  <Name_Molregno>
405771

>  <HISTAMINE H1>
5.8

>  <HISTAMINE H3>
8.5

$$$$
405775
  Marvin  02231216192D 0   1.00000     0.00000     0

 34 38  0  0  0  0  0  0  0  0999 V2000
    0.6039    1.3331    0.0000 F   0  0  0  0  0  0  0  0  0
    1.3184    1.7456    0.0000 C   0  0  0  0  0  0  0  0  0
    1.3184    2.5706    0.0000 C   0  0  0  0  0  0  0  0  0
    2.0328    2.9831    0.0000 C   0  0  0  0  0  0  0  0  0
    2.7473    2.5706    0.0000 C   0  0  0  0  0  0  0  0  0
    2.7473    1.7456    0.0000 C   0  0  0  0  0  0  0  0  0
    2.0328    1.3331    0.0000 C   0  0  0  0  0  0  0  0  0
    3.4618    2.9831    0.0000 C   0  0  0  0  0  0  0  0  0
    3.4618    3.8081    0.0000 O   0  0  0  0  0  0  0  0  0
    4.1763    2.5706    0.0000 N   0  0  0  0  0  0  0  0  0
    4.8907    2.9831    0.0000 C   0  0  0  0  0  0  0  0  0
    5.6052    2.5706    0.0000 C   0  0  0  0  0  0  0  0  0
    6.3197    2.9831    0.0000 O   0  0  0  0  0  0  0  0  0
    5.6052    1.7456    0.0000 N   0  0  0  0  0  0  0  0  0
    4.8907    1.3331    0.0000 C   0  0  0  0  0  0  0  0  0
    4.1763    1.7456    0.0000 C   0  0  0  0  0  0  0  0  0
    6.3197    1.3331    0.0000 C   0  0  0  0  0  0  0  0  0
    7.0341    1.7456    0.0000 C   0  0  0  0  0  0  0  0  0
    7.7486    1.3331    0.0000 C   0  0  0  0  0  0  0  0  0
    7.7486    0.5081    0.0000 C   0  0  0  0  0  0  0  0  0
    8.4631    0.0956    0.0000 O   0  0  0  0  0  0  0  0  0
    8.4631   -0.7294    0.0000 C   0  0  0  0  0  0  0  0  0
    9.1775   -1.1419    0.0000 C   0  0  0  0  0  0  0  0  0
    9.1775   -1.9669    0.0000 C   0  0  0  0  0  0  0  0  0
    8.4631   -2.3794    0.0000 N   0  0  0  0  0  0  0  0  0
    7.7486   -1.9669    0.0000 C   0  0  0  0  0  0  0  0  0
    7.7486   -1.1419    0.0000 C   0  0  0  0  0  0  0  0  0
    8.4631   -3.2044    0.0000 C   0  0  0  0  0  0  0  0  0
    9.1305   -3.6894    0.0000 C   0  0  0  0  0  0  0  0  0
    8.8756   -4.4740    0.0000 C   0  0  0  0  0  0  0  0  0
    8.0506   -4.4740    0.0000 C   0  0  0  0  0  0  0  0  0
    7.7956   -3.6894    0.0000 C   0  0  0  0  0  0  0  0  0
    7.0341    0.0956    0.0000 C   0  0  0  0  0  0  0  0  0
    6.3197    0.5081    0.0000 C   0  0  0  0  0  0  0  0  0
  1  2  1  0  0  0  0
  2  3  4  0  0  0  0
  2  7  4  0  0  0  0
  3  4  4  0  0  0  0
  4  5  4  0  0  0  0
  5  6  4  0  0  0  0
  5  8  1  0  0  0  0
  6  7  4  0  0  0  0
  8  9  2  0  0  0  0
  8 10  1  0  0  0  0
 10 11  1  0  0  0  0
 10 16  1  0  0  0  0
 11 12  1  0  0  0  0
 12 13  2  0  0  0  0
 12 14  1  0  0  0  0
 14 15  1  0  0  0  0
 14 17  1  0  0  0  0
 15 16  1  0  0  0  0
 17 18  4  0  0  0  0
 17 34  4  0  0  0  0
 18 19  4  0  0  0  0
 19 20  4  0  0  0  0
 20 21  1  0  0  0  0
 20 33  4  0  0  0  0
 21 22  1  0  0  0  0
 22 23  1  0  0  0  0
 22 27  1  0  0  0  0
 23 24  1  0  0  0  0
 24 25  1  0  0  0  0
 25 26  1  0  0  0  0
 25 28  1  0  0  0  0
 26 27  1  0  0  0  0
 28 29  1  0  0  0  0
 28 32  1  0  0  0  0
 29 30  1  0  0  0  0
 30 31  1  0  0  0  0
 31 32  1  0  0  0  0
 33 34  4  0  0  0  0
M  END
>  <Name_Molregno>
405775

>  <HISTAMINE H1>
5.6

>  <HISTAMINE H3>
8.6

$$$$
405776
  Marvin  02231216192D 0   1.00000     0.00000     0

 35 39  0  0  0  0  0  0  0  0999 V2000
   -5.3169    0.1081    0.0000 O   0  0  0  0  0  0  0  0  0
   -5.3169   -0.7169    0.0000 C   0  0  0  0  0  0  0  0  0
   -4.6025   -1.1294    0.0000 C   0  0  0  0  0  0  0  0  0
   -4.6025   -1.9544    0.0000 C   0  0  0  0  0  0  0  0  0
   -5.3169   -2.3669    0.0000 N   0  0  0  0  0  0  0  0  0
   -6.0314   -1.9544    0.0000 C   0  0  0  0  0  0  0  0  0
   -6.0314   -1.1294    0.0000 C   0  0  0  0  0  0  0  0  0
   -5.3169   -3.1919    0.0000 C   0  0  0  0  0  0  0  0  0
   -4.6495   -3.6769    0.0000 C   0  0  0  0  0  0  0  0  0
   -4.9044   -4.4615    0.0000 C   0  0  0  0  0  0  0  0  0
   -5.7294   -4.4615    0.0000 C   0  0  0  0  0  0  0  0  0
   -5.9844   -3.6769    0.0000 C   0  0  0  0  0  0  0  0  0
   -4.6025    0.5206    0.0000 C   0  0  0  0  0  0  0  0  0
   -4.6025    1.3456    0.0000 C   0  0  0  0  0  0  0  0  0
   -3.8880    1.7581    0.0000 C   0  0  0  0  0  0  0  0  0
   -3.1735    1.3456    0.0000 C   0  0  0  0  0  0  0  0  0
   -2.4591    1.7581    0.0000 N   0  0  0  0  0  0  0  0  0
   -2.4591    2.5831    0.0000 C   0  0  0  0  0  0  0  0  0
   -1.7446    2.9956    0.0000 C   0  0  0  0  0  0  0  0  0
   -1.0301    2.5831    0.0000 N   0  0  0  0  0  0  0  0  0
   -1.0301    1.7581    0.0000 C   0  0  0  0  0  0  0  0  0
   -1.7446    1.3456    0.0000 C   0  0  0  0  0  0  0  0  0
   -1.7446    0.5206    0.0000 O   0  0  0  0  0  0  0  0  0
   -0.3156    2.9956    0.0000 C   0  0  0  0  0  0  0  0  0
   -0.3156    3.8206    0.0000 O   0  0  0  0  0  0  0  0  0
    0.3988    2.5831    0.0000 C   0  0  0  0  0  0  0  0  0
    1.1133    2.9956    0.0000 C   0  0  0  0  0  0  0  0  0
    1.8278    2.5831    0.0000 C   0  0  0  0  0  0  0  0  0
    1.8278    1.7581    0.0000 C   0  0  0  0  0  0  0  0  0
    1.1133    1.3456    0.0000 C   0  0  0  0  0  0  0  0  0
    0.3988    1.7581    0.0000 C   0  0  0  0  0  0  0  0  0
    2.5422    1.3456    0.0000 C   0  0  0  0  0  0  0  0  0
    3.2567    0.9331    0.0000 N   0  0  0  0  0  0  0  0  0
   -3.1735    0.5206    0.0000 C   0  0  0  0  0  0  0  0  0
   -3.8880    0.1081    0.0000 C   0  0  0  0  0  0  0  0  0
  1  2  1  0  0  0  0
  1 13  1  0  0  0  0
  2  3  1  0  0  0  0
  2  7  1  0  0  0  0
  3  4  1  0  0  0  0
  4  5  1  0  0  0  0
  5  6  1  0  0  0  0
  5  8  1  0  0  0  0
  6  7  1  0  0  0  0
  8  9  1  0  0  0  0
  8 12  1  0  0  0  0
  9 10  1  0  0  0  0
 10 11  1  0  0  0  0
 11 12  1  0  0  0  0
 13 14  4  0  0  0  0
 13 35  4  0  0  0  0
 14 15  4  0  0  0  0
 15 16  4  0  0  0  0
 16 17  1  0  0  0  0
 16 34  4  0  0  0  0
 17 18  1  0  0  0  0
 17 22  1  0  0  0  0
 18 19  1  0  0  0  0
 19 20  1  0  0  0  0
 20 21  1  0  0  0  0
 20 24  1  0  0  0  0
 21 22  1  0  0  0  0
 22 23  2  0  0  0  0
 24 25  2  0  0  0  0
 24 26  1  0  0  0  0
 26 27  4  0  0  0  0
 26 31  4  0  0  0  0
 27 28  4  0  0  0  0
 28 29  4  0  0  0  0
 29 30  4  0  0  0  0
 29 32  1  0  0  0  0
 30 31  4  0  0  0  0
 32 33  3  0  0  0  0
 34 35  4  0  0  0  0
M  END
>  <Name_Molregno>
405776

>  <HISTAMINE H1>
5.6

>  <HISTAMINE H3>
9.1

$$$$
405778
  Marvin  02231216192D 0   1.00000     0.00000     0

 37 41  0  0  0  0  0  0  0  0999 V2000
    0.5562    1.2159    0.0000 S   0  0  0  0  0  0  0  0  0
   -0.1583    0.8034    0.0000 O   0  0  0  0  0  0  0  0  0
    0.9687    0.5014    0.0000 O   0  0  0  0  0  0  0  0  0
    0.1437    1.9303    0.0000 C   0  0  0  0  0  0  0  0  0
    1.2707    1.6284    0.0000 C   0  0  0  0  0  0  0  0  0
    1.2707    2.4534    0.0000 C   0  0  0  0  0  0  0  0  0
    1.9851    2.8659    0.0000 C   0  0  0  0  0  0  0  0  0
    2.6996    2.4534    0.0000 C   0  0  0  0  0  0  0  0  0
    2.6996    1.6284    0.0000 C   0  0  0  0  0  0  0  0  0
    1.9851    1.2159    0.0000 C   0  0  0  0  0  0  0  0  0
    3.4141    2.8659    0.0000 C   0  0  0  0  0  0  0  0  0
    3.4141    3.6909    0.0000 O   0  0  0  0  0  0  0  0  0
    4.1285    2.4534    0.0000 N   0  0  0  0  0  0  0  0  0
    4.8430    2.8659    0.0000 C   0  0  0  0  0  0  0  0  0
    5.5575    2.4534    0.0000 C   0  0  0  0  0  0  0  0  0
    6.2720    2.8659    0.0000 O   0  0  0  0  0  0  0  0  0
    5.5575    1.6284    0.0000 N   0  0  0  0  0  0  0  0  0
    4.8430    1.2159    0.0000 C   0  0  0  0  0  0  0  0  0
    4.1285    1.6284    0.0000 C   0  0  0  0  0  0  0  0  0
    6.2720    1.2159    0.0000 C   0  0  0  0  0  0  0  0  0
    6.9864    1.6284    0.0000 C   0  0  0  0  0  0  0  0  0
    7.7009    1.2159    0.0000 C   0  0  0  0  0  0  0  0  0
    7.7009    0.3909    0.0000 C   0  0  0  0  0  0  0  0  0
    8.4154   -0.0216    0.0000 O   0  0  0  0  0  0  0  0  0
    8.4154   -0.8466    0.0000 C   0  0  0  0  0  0  0  0  0
    9.1298   -1.2591    0.0000 C   0  0  0  0  0  0  0  0  0
    9.1298   -2.0841    0.0000 C   0  0  0  0  0  0  0  0  0
    8.4154   -2.4966    0.0000 N   0  0  0  0  0  0  0  0  0
    7.7009   -2.0841    0.0000 C   0  0  0  0  0  0  0  0  0
    7.7009   -1.2591    0.0000 C   0  0  0  0  0  0  0  0  0
    8.4154   -3.3216    0.0000 C   0  0  0  0  0  0  0  0  0
    9.0828   -3.8066    0.0000 C   0  0  0  0  0  0  0  0  0
    8.8279   -4.5912    0.0000 C   0  0  0  0  0  0  0  0  0
    8.0029   -4.5912    0.0000 C   0  0  0  0  0  0  0  0  0
    7.7479   -3.8066    0.0000 C   0  0  0  0  0  0  0  0  0
    6.9864   -0.0216    0.0000 C   0  0  0  0  0  0  0  0  0
    6.2720    0.3909    0.0000 C   0  0  0  0  0  0  0  0  0
  1  2  2  0  0  0  0
  1  3  2  0  0  0  0
  1  4  1  0  0  0  0
  1  5  1  0  0  0  0
  5  6  4  0  0  0  0
  5 10  4  0  0  0  0
  6  7  4  0  0  0  0
  7  8  4  0  0  0  0
  8  9  4  0  0  0  0
  8 11  1  0  0  0  0
  9 10  4  0  0  0  0
 11 12  2  0  0  0  0
 11 13  1  0  0  0  0
 13 14  1  0  0  0  0
 13 19  1  0  0  0  0
 14 15  1  0  0  0  0
 15 16  2  0  0  0  0
 15 17  1  0  0  0  0
 17 18  1  0  0  0  0
 17 20  1  0  0  0  0
 18 19  1  0  0  0  0
 20 21  4  0  0  0  0
 20 37  4  0  0  0  0
 21 22  4  0  0  0  0
 22 23  4  0  0  0  0
 23 24  1  0  0  0  0
 23 36  4  0  0  0  0
 24 25  1  0  0  0  0
 25 26  1  0  0  0  0
 25 30  1  0  0  0  0
 26 27  1  0  0  0  0
 27 28  1  0  0  0  0
 28 29  1  0  0  0  0
 28 31  1  0  0  0  0
 29 30  1  0  0  0  0
 31 32  1  0  0  0  0
 31 35  1  0  0  0  0
 32 33  1  0  0  0  0
 33 34  1  0  0  0  0
 34 35  1  0  0  0  0
 36 37  4  0  0  0  0
M  END
>  <Name_Molregno>
405778

>  <HISTAMINE H1>
5.6

>  <HISTAMINE H3>
9.1

$$$$
405780
  Marvin  02231216192D 0   1.00000     0.00000     0

 37 41  0  0  0  0  0  0  0  0999 V2000
    0.5538    1.2252    0.0000 S   0  0  0  0  0  0  0  0  0
   -0.1607    1.6377    0.0000 O   0  0  0  0  0  0  0  0  0
    0.1413    0.5108    0.0000 O   0  0  0  0  0  0  0  0  0
    0.9663    1.9397    0.0000 C   0  0  0  0  0  0  0  0  0
    1.2683    0.8127    0.0000 C   0  0  0  0  0  0  0  0  0
    1.9827    1.2252    0.0000 C   0  0  0  0  0  0  0  0  0
    2.6972    0.8127    0.0000 C   0  0  0  0  0  0  0  0  0
    2.6972   -0.0123    0.0000 C   0  0  0  0  0  0  0  0  0
    1.9827   -0.4248    0.0000 C   0  0  0  0  0  0  0  0  0
    1.2683   -0.0123    0.0000 C   0  0  0  0  0  0  0  0  0
    3.4117    1.2252    0.0000 C   0  0  0  0  0  0  0  0  0
    3.4117    2.0502    0.0000 O   0  0  0  0  0  0  0  0  0
    4.1261    0.8127    0.0000 N   0  0  0  0  0  0  0  0  0
    4.8406    1.2252    0.0000 C   0  0  0  0  0  0  0  0  0
    5.5551    0.8127    0.0000 C   0  0  0  0  0  0  0  0  0
    6.2695    1.2252    0.0000 O   0  0  0  0  0  0  0  0  0
    5.5551   -0.0123    0.0000 N   0  0  0  0  0  0  0  0  0
    4.8406   -0.4248    0.0000 C   0  0  0  0  0  0  0  0  0
    4.1261   -0.0123    0.0000 C   0  0  0  0  0  0  0  0  0
    6.2695   -0.4248    0.0000 C   0  0  0  0  0  0  0  0  0
    6.9840   -0.0123    0.0000 C   0  0  0  0  0  0  0  0  0
    7.6985   -0.4248    0.0000 C   0  0  0  0  0  0  0  0  0
    7.6985   -1.2498    0.0000 C   0  0  0  0  0  0  0  0  0
    8.4130   -1.6623    0.0000 O   0  0  0  0  0  0  0  0  0
    8.4130   -2.4873    0.0000 C   0  0  0  0  0  0  0  0  0
    9.1274   -2.8998    0.0000 C   0  0  0  0  0  0  0  0  0
    9.1274   -3.7248    0.0000 C   0  0  0  0  0  0  0  0  0
    8.4130   -4.1373    0.0000 N   0  0  0  0  0  0  0  0  0
    7.6985   -3.7248    0.0000 C   0  0  0  0  0  0  0  0  0
    7.6985   -2.8998    0.0000 C   0  0  0  0  0  0  0  0  0
    8.4130   -4.9623    0.0000 C   0  0  0  0  0  0  0  0  0
    9.0804   -5.4472    0.0000 C   0  0  0  0  0  0  0  0  0
    8.8255   -6.2318    0.0000 C   0  0  0  0  0  0  0  0  0
    8.0005   -6.2318    0.0000 C   0  0  0  0  0  0  0  0  0
    7.7455   -5.4472    0.0000 C   0  0  0  0  0  0  0  0  0
    6.9840   -1.6623    0.0000 C   0  0  0  0  0  0  0  0  0
    6.2695   -1.2498    0.0000 C   0  0  0  0  0  0  0  0  0
  1  2  2  0  0  0  0
  1  3  2  0  0  0  0
  1  4  1  0  0  0  0
  1  5  1  0  0  0  0
  5  6  4  0  0  0  0
  5 10  4  0  0  0  0
  6  7  4  0  0  0  0
  7  8  4  0  0  0  0
  7 11  1  0  0  0  0
  8  9  4  0  0  0  0
  9 10  4  0  0  0  0
 11 12  2  0  0  0  0
 11 13  1  0  0  0  0
 13 14  1  0  0  0  0
 13 19  1  0  0  0  0
 14 15  1  0  0  0  0
 15 16  2  0  0  0  0
 15 17  1  0  0  0  0
 17 18  1  0  0  0  0
 17 20  1  0  0  0  0
 18 19  1  0  0  0  0
 20 21  4  0  0  0  0
 20 37  4  0  0  0  0
 21 22  4  0  0  0  0
 22 23  4  0  0  0  0
 23 24  1  0  0  0  0
 23 36  4  0  0  0  0
 24 25  1  0  0  0  0
 25 26  1  0  0  0  0
 25 30  1  0  0  0  0
 26 27  1  0  0  0  0
 27 28  1  0  0  0  0
 28 29  1  0  0  0  0
 28 31  1  0  0  0  0
 29 30  1  0  0  0  0
 31 32  1  0  0  0  0
 31 35  1  0  0  0  0
 32 33  1  0  0  0  0
 33 34  1  0  0  0  0
 34 35  1  0  0  0  0
 36 37  4  0  0  0  0
M  END
>  <Name_Molregno>
405780

>  <HISTAMINE H1>
5.6

>  <HISTAMINE H3>
8

$$$$
405784
  Marvin  02231216192D 0   1.00000     0.00000     0

 35 39  0  0  0  0  0  0  0  0999 V2000
    0.5785    1.2737    0.0000 F   0  0  0  0  0  0  0  0  0
    1.2930    0.8612    0.0000 C   0  0  0  0  0  0  0  0  0
    2.0074    1.2737    0.0000 C   0  0  0  0  0  0  0  0  0
    2.7219    0.8612    0.0000 C   0  0  0  0  0  0  0  0  0
    2.7219    0.0362    0.0000 C   0  0  0  0  0  0  0  0  0
    2.0074   -0.3763    0.0000 C   0  0  0  0  0  0  0  0  0
    2.0074   -1.2013    0.0000 F   0  0  0  0  0  0  0  0  0
    1.2930    0.0362    0.0000 C   0  0  0  0  0  0  0  0  0
    3.4364    1.2737    0.0000 C   0  0  0  0  0  0  0  0  0
    3.4364    2.0987    0.0000 O   0  0  0  0  0  0  0  0  0
    4.1509    0.8612    0.0000 N   0  0  0  0  0  0  0  0  0
    4.8653    1.2737    0.0000 C   0  0  0  0  0  0  0  0  0
    5.5798    0.8612    0.0000 C   0  0  0  0  0  0  0  0  0
    6.2943    1.2737    0.0000 O   0  0  0  0  0  0  0  0  0
    5.5798    0.0362    0.0000 N   0  0  0  0  0  0  0  0  0
    4.8653   -0.3763    0.0000 C   0  0  0  0  0  0  0  0  0
    4.1509    0.0362    0.0000 C   0  0  0  0  0  0  0  0  0
    6.2943   -0.3763    0.0000 C   0  0  0  0  0  0  0  0  0
    7.0087    0.0362    0.0000 C   0  0  0  0  0  0  0  0  0
    7.7232   -0.3763    0.0000 C   0  0  0  0  0  0  0  0  0
    7.7232   -1.2013    0.0000 C   0  0  0  0  0  0  0  0  0
    8.4377   -1.6138    0.0000 O   0  0  0  0  0  0  0  0  0
    8.4377   -2.4388    0.0000 C   0  0  0  0  0  0  0  0  0
    9.1522   -2.8513    0.0000 C   0  0  0  0  0  0  0  0  0
    9.1522   -3.6763    0.0000 C   0  0  0  0  0  0  0  0  0
    8.4377   -4.0888    0.0000 N   0  0  0  0  0  0  0  0  0
    7.7232   -3.6763    0.0000 C   0  0  0  0  0  0  0  0  0
    7.7232   -2.8513    0.0000 C   0  0  0  0  0  0  0  0  0
    8.4377   -4.9138    0.0000 C   0  0  0  0  0  0  0  0  0
    9.1051   -5.3987    0.0000 C   0  0  0  0  0  0  0  0  0
    8.8502   -6.1833    0.0000 C   0  0  0  0  0  0  0  0  0
    8.0252   -6.1833    0.0000 C   0  0  0  0  0  0  0  0  0
    7.7702   -5.3987    0.0000 C   0  0  0  0  0  0  0  0  0
    7.0087   -1.6138    0.0000 C   0  0  0  0  0  0  0  0  0
    6.2943   -1.2013    0.0000 C   0  0  0  0  0  0  0  0  0
  1  2  1  0  0  0  0
  2  3  4  0  0  0  0
  2  8  4  0  0  0  0
  3  4  4  0  0  0  0
  4  5  4  0  0  0  0
  4  9  1  0  0  0  0
  5  6  4  0  0  0  0
  6  7  1  0  0  0  0
  6  8  4  0  0  0  0
  9 10  2  0  0  0  0
  9 11  1  0  0  0  0
 11 12  1  0  0  0  0
 11 17  1  0  0  0  0
 12 13  1  0  0  0  0
 13 14  2  0  0  0  0
 13 15  1  0  0  0  0
 15 16  1  0  0  0  0
 15 18  1  0  0  0  0
 16 17  1  0  0  0  0
 18 19  4  0  0  0  0
 18 35  4  0  0  0  0
 19 20  4  0  0  0  0
 20 21  4  0  0  0  0
 21 22  1  0  0  0  0
 21 34  4  0  0  0  0
 22 23  1  0  0  0  0
 23 24  1  0  0  0  0
 23 28  1  0  0  0  0
 24 25  1  0  0  0  0
 25 26  1  0  0  0  0
 26 27  1  0  0  0  0
 26 29  1  0  0  0  0
 27 28  1  0  0  0  0
 29 30  1  0  0  0  0
 29 33  1  0  0  0  0
 30 31  1  0  0  0  0
 31 32  1  0  0  0  0
 32 33  1  0  0  0  0
 34 35  4  0  0  0  0
M  END
>  <Name_Molregno>
405784

>  <HISTAMINE H1>
5.6

>  <HISTAMINE H3>
8.6

$$$$
405785
  Marvin  02231216192D 0   1.00000     0.00000     0

 35 39  0  0  0  0  0  0  0  0999 V2000
    2.4144    1.3879    0.0000 F   0  0  0  0  0  0  0  0  0
    1.7000    1.8004    0.0000 C   0  0  0  0  0  0  0  0  0
    0.9855    1.3879    0.0000 C   0  0  0  0  0  0  0  0  0
    0.2710    1.8004    0.0000 C   0  0  0  0  0  0  0  0  0
   -0.4434    1.3879    0.0000 F   0  0  0  0  0  0  0  0  0
    0.2710    2.6254    0.0000 C   0  0  0  0  0  0  0  0  0
    0.9855    3.0379    0.0000 C   0  0  0  0  0  0  0  0  0
    1.7000    2.6254    0.0000 C   0  0  0  0  0  0  0  0  0
    2.4144    3.0379    0.0000 C   0  0  0  0  0  0  0  0  0
    2.4144    3.8629    0.0000 O   0  0  0  0  0  0  0  0  0
    3.1289    2.6254    0.0000 N   0  0  0  0  0  0  0  0  0
    3.8434    3.0379    0.0000 C   0  0  0  0  0  0  0  0  0
    4.5579    2.6254    0.0000 C   0  0  0  0  0  0  0  0  0
    5.2723    3.0379    0.0000 O   0  0  0  0  0  0  0  0  0
    4.5579    1.8004    0.0000 N   0  0  0  0  0  0  0  0  0
    3.8434    1.3879    0.0000 C   0  0  0  0  0  0  0  0  0
    3.1289    1.8004    0.0000 C   0  0  0  0  0  0  0  0  0
    5.2723    1.3879    0.0000 C   0  0  0  0  0  0  0  0  0
    5.9868    1.8004    0.0000 C   0  0  0  0  0  0  0  0  0
    6.7013    1.3879    0.0000 C   0  0  0  0  0  0  0  0  0
    6.7013    0.5629    0.0000 C   0  0  0  0  0  0  0  0  0
    7.4157    0.1504    0.0000 O   0  0  0  0  0  0  0  0  0
    7.4157   -0.6746    0.0000 C   0  0  0  0  0  0  0  0  0
    8.1302   -1.0871    0.0000 C   0  0  0  0  0  0  0  0  0
    8.1302   -1.9121    0.0000 C   0  0  0  0  0  0  0  0  0
    7.4157   -2.3246    0.0000 N   0  0  0  0  0  0  0  0  0
    6.7013   -1.9121    0.0000 C   0  0  0  0  0  0  0  0  0
    6.7013   -1.0871    0.0000 C   0  0  0  0  0  0  0  0  0
    7.4157   -3.1496    0.0000 C   0  0  0  0  0  0  0  0  0
    8.0832   -3.6345    0.0000 C   0  0  0  0  0  0  0  0  0
    7.8282   -4.4191    0.0000 C   0  0  0  0  0  0  0  0  0
    7.0032   -4.4191    0.0000 C   0  0  0  0  0  0  0  0  0
    6.7483   -3.6345    0.0000 C   0  0  0  0  0  0  0  0  0
    5.9868    0.1504    0.0000 C   0  0  0  0  0  0  0  0  0
    5.2723    0.5629    0.0000 C   0  0  0  0  0  0  0  0  0
  1  2  1  0  0  0  0
  2  3  4  0  0  0  0
  2  8  4  0  0  0  0
  3  4  4  0  0  0  0
  4  5  1  0  0  0  0
  4  6  4  0  0  0  0
  6  7  4  0  0  0  0
  7  8  4  0  0  0  0
  8  9  1  0  0  0  0
  9 10  2  0  0  0  0
  9 11  1  0  0  0  0
 11 12  1  0  0  0  0
 11 17  1  0  0  0  0
 12 13  1  0  0  0  0
 13 14  2  0  0  0  0
 13 15  1  0  0  0  0
 15 16  1  0  0  0  0
 15 18  1  0  0  0  0
 16 17  1  0  0  0  0
 18 19  4  0  0  0  0
 18 35  4  0  0  0  0
 19 20  4  0  0  0  0
 20 21  4  0  0  0  0
 21 22  1  0  0  0  0
 21 34  4  0  0  0  0
 22 23  1  0  0  0  0
 23 24  1  0  0  0  0
 23 28  1  0  0  0  0
 24 25  1  0  0  0  0
 25 26  1  0  0  0  0
 26 27  1  0  0  0  0
 26 29  1  0  0  0  0
 27 28  1  0  0  0  0
 29 30  1  0  0  0  0
 29 33  1  0  0  0  0
 30 31  1  0  0  0  0
 31 32  1  0  0  0  0
 32 33  1  0  0  0  0
 34 35  4  0  0  0  0
M  END
>  <Name_Molregno>
405785

>  <HISTAMINE H1>
5.6

>  <HISTAMINE H3>
8.4

$$$$
416886
  Marvin  02231216192D 0   1.00000     0.00000     0

 16 17  0  0  1  0  0  0  0  0999 V2000
    1.6253   -1.5097    0.0000 O   0  0  0  0  0  0  0  0  0
    1.6253   -2.3347    0.0000 C   0  0  0  0  0  0  0  0  0
    0.9108   -2.7472    0.0000 C   0  0  0  0  0  0  0  0  0
    0.1963   -2.3347    0.0000 N   0  0  0  0  0  0  0  0  0
    0.1963   -1.5097    0.0000 C   0  0  0  0  0  0  0  0  0
    0.9108   -1.0972    0.0000 C   0  0  0  0  0  0  0  0  0
    0.9108   -0.2722    0.0000 C   0  0  0  0  0  0  0  0  0
    0.1963    0.1403    0.0000 C   0  0  0  0  0  0  0  0  0
    0.1963    0.9653    0.0000 C   0  0  0  0  0  0  0  0  0
   -0.5181    1.3778    0.0000 O   0  0  0  0  0  0  0  0  0
    0.9108    1.3778    0.0000 C   0  0  0  0  0  0  0  0  0
    1.6253    0.9653    0.0000 C   0  0  0  0  0  0  0  0  0
    1.6253    0.1403    0.0000 C   0  0  0  0  0  0  0  0  0
   -0.5181   -2.7472    0.0000 C   0  0  0  0  0  0  0  0  0
   -1.2326   -2.3347    0.0000 C   0  0  0  0  0  0  0  0  0
   -1.9471   -2.7472    0.0000 C   0  0  0  0  0  0  0  0  0
  1  2  1  0  0  0  0
  1  6  1  0  0  0  0
  2  3  1  0  0  0  0
  3  4  1  0  0  0  0
  4  5  1  0  0  0  0
  4 14  1  0  0  0  0
  5  6  1  0  0  0  0
  6  7  1  0  0  0  0
  7  8  4  0  0  0  0
  7 13  4  0  0  0  0
  8  9  4  0  0  0  0
  9 10  1  0  0  0  0
  9 11  4  0  0  0  0
 11 12  4  0  0  0  0
 12 13  4  0  0  0  0
 14 15  1  0  0  0  0
 15 16  1  0  0  0  0
M  END
>  <Name_Molregno>
416886

>  <Alpha-2A>
6

>  <HISTAMINE H1>
5.7

>  <Muscarinic acetylcholine receptor M1>
6

$$$$
429617
  Marvin  02231216192D 0   1.00000     0.00000     0

 24 27  0  0  0  0  0  0  0  0999 V2000
   -0.1498   -0.4732    0.0000 N   0  0  0  0  0  0  0  0  0
    0.5647   -0.0607    0.0000 C   0  0  0  0  0  0  0  0  0
    0.5647    0.7643    0.0000 C   0  0  0  0  0  0  0  0  0
   -0.1498    1.1768    0.0000 N   0  0  0  0  0  0  0  0  0
   -0.8643    0.7643    0.0000 C   0  0  0  0  0  0  0  0  0
   -1.5787    1.1768    0.0000 N   0  0  0  0  0  0  0  0  0
   -2.2932    0.7643    0.0000 C   0  0  0  0  0  0  0  0  0
   -3.0077    1.1768    0.0000 C   0  0  0  0  0  0  0  0  0
   -3.0077    2.0018    0.0000 N   0  0  0  0  0  0  0  0  0
   -2.2932    2.4143    0.0000 C   0  0  0  0  0  0  0  0  0
   -1.5787    2.0018    0.0000 C   0  0  0  0  0  0  0  0  0
   -3.7221    2.4143    0.0000 C   0  0  0  0  0  0  0  0  0
   -0.8643   -0.0607    0.0000 C   0  0  0  0  0  0  0  0  0
   -1.5787   -0.4732    0.0000 C   0  0  0  0  0  0  0  0  0
   -1.5787   -1.2982    0.0000 C   0  0  0  0  0  0  0  0  0
   -0.8643   -1.7107    0.0000 C   0  0  0  0  0  0  0  0  0
   -0.8643   -2.5357    0.0000 C   0  0  0  0  0  0  0  0  0
   -1.5787   -2.9482    0.0000 C   0  0  0  0  0  0  0  0  0
   -2.2932   -2.5357    0.0000 C   0  0  0  0  0  0  0  0  0
   -2.2932   -1.7107    0.0000 C   0  0  0  0  0  0  0  0  0
    1.2792    1.1768    0.0000 C   0  0  0  0  0  0  0  0  0
    1.9936    0.7643    0.0000 C   0  0  0  0  0  0  0  0  0
    1.9936   -0.0607    0.0000 C   0  0  0  0  0  0  0  0  0
    1.2792   -0.4732    0.0000 C   0  0  0  0  0  0  0  0  0
  1  2  4  0  0  0  0
  1 13  4  0  0  0  0
  2  3  4  0  0  0  0
  2 24  4  0  0  0  0
  3  4  4  0  0  0  0
  3 21  4  0  0  0  0
  4  5  4  0  0  0  0
  5  6  1  0  0  0  0
  5 13  4  0  0  0  0
  6  7  1  0  0  0  0
  6 11  1  0  0  0  0
  7  8  1  0  0  0  0
  8  9  1  0  0  0  0
  9 10  1  0  0  0  0
  9 12  1  0  0  0  0
 10 11  1  0  0  0  0
 13 14  1  0  0  0  0
 14 15  1  0  0  0  0
 15 16  4  0  0  0  0
 15 20  4  0  0  0  0
 16 17  4  0  0  0  0
 17 18  4  0  0  0  0
 18 19  4  0  0  0  0
 19 20  4  0  0  0  0
 21 22  4  0  0  0  0
 22 23  4  0  0  0  0
 23 24  4  0  0  0  0
M  END
>  <Name_Molregno>
429617

>  <HISTAMINE H1>
6.13

>  <HISTAMINE H4>
7.4

$$$$
429662
  Marvin  02231216192D 0   1.00000     0.00000     0

 20 22  0  0  0  0  0  0  0  0999 V2000
    2.1499    0.3508    0.0000 S   0  0  0  0  0  0  0  0  0
    1.4354   -0.0617    0.0000 C   0  0  0  0  0  0  0  0  0
    0.7210    0.3508    0.0000 N   0  0  0  0  0  0  0  0  0
    0.7210    1.1758    0.0000 C   0  0  0  0  0  0  0  0  0
    0.0065    1.5883    0.0000 C   0  0  0  0  0  0  0  0  0
    0.0065    2.4133    0.0000 C   0  0  0  0  0  0  0  0  0
    0.7210    2.8258    0.0000 C   0  0  0  0  0  0  0  0  0
    1.4354    2.4133    0.0000 C   0  0  0  0  0  0  0  0  0
    1.4354    1.5883    0.0000 C   0  0  0  0  0  0  0  0  0
    1.4354   -0.8867    0.0000 N   0  0  0  0  0  0  0  0  0
    2.1499   -1.2992    0.0000 C   0  0  0  0  0  0  0  0  0
    2.1499   -2.1242    0.0000 C   0  0  0  0  0  0  0  0  0
    1.4354   -2.5367    0.0000 C   0  0  0  0  0  0  0  0  0
    0.7210   -2.1242    0.0000 C   0  0  0  0  0  0  0  0  0
    0.7210   -1.2992    0.0000 C   0  0  0  0  0  0  0  0  0
    1.4354   -3.3617    0.0000 C   0  0  0  0  0  0  0  0  0
    2.1029   -3.8467    0.0000 N   0  0  0  0  0  0  0  0  0
    1.8479   -4.6313    0.0000 C   0  0  0  0  0  0  0  0  0
    1.0229   -4.6313    0.0000 N   0  0  0  0  0  0  0  0  0
    0.7680   -3.8467    0.0000 C   0  0  0  0  0  0  0  0  0
  1  2  2  0  0  0  0
  2  3  1  0  0  0  0
  2 10  1  0  0  0  0
  3  4  1  0  0  0  0
  4  5  1  0  0  0  0
  4  9  1  0  0  0  0
  5  6  1  0  0  0  0
  6  7  1  0  0  0  0
  7  8  1  0  0  0  0
  8  9  1  0  0  0  0
 10 11  1  0  0  0  0
 10 15  1  0  0  0  0
 11 12  1  0  0  0  0
 12 13  1  0  0  0  0
 13 14  1  0  0  0  0
 13 16  1  0  0  0  0
 14 15  1  0  0  0  0
 16 17  4  0  0  0  0
 16 20  4  0  0  0  0
 17 18  4  0  0  0  0
 18 19  4  0  0  0  0
 19 20  4  0  0  0  0
M  STY  1   1 DAT
M  SAL   1  1  17
M  SDT   1 MRV_IMPLICIT_H                                        
M  SDD   1     0.0000    0.0000    DR    ALL  0       0  
M  SED   1 IMPL_H1
M  END
>  <Name_Molregno>
429662

>  <Alpha-2A>
6.9

>  <Alpha-2C>
6.46

>  <HISTAMINE H1>
5

>  <HISTAMINE H2>
5

>  <HISTAMINE H3>
7.2

>  <HISTAMINE H4>
7.22

>  <Muscarinic acetylcholine receptor M3>
5

$$$$
437622
  Marvin  02231216192D 0   1.00000     0.00000     0

 29 31  0  0  1  0  0  0  0  0999 V2000
    4.6273    6.8992    0.0000 F   0  0  0  0  0  0  0  0  0
    4.6273    6.0742    0.0000 C   0  0  0  0  0  0  0  0  0
    5.3417    5.6617    0.0000 C   0  0  0  0  0  0  0  0  0
    5.3417    4.8367    0.0000 C   0  0  0  0  0  0  0  0  0
    4.6273    4.4242    0.0000 C   0  0  0  0  0  0  0  0  0
    3.9128    4.8367    0.0000 C   0  0  0  0  0  0  0  0  0
    3.9128    5.6617    0.0000 C   0  0  0  0  0  0  0  0  0
    4.6273    3.5992    0.0000 C   0  0  0  0  0  0  0  0  0
    5.3417    3.1867    0.0000 C   0  0  0  0  0  0  0  0  0
    5.3417    2.3617    0.0000 N   0  0  0  0  0  0  0  0  0
    6.0562    1.9492    0.0000 C   0  0  0  0  0  0  0  0  0
    6.0562    1.1242    0.0000 C   0  0  0  0  0  0  0  0  0
    5.3417    0.7117    0.0000 C   0  0  0  0  0  0  0  0  0
    4.6273    1.1242    0.0000 C   0  0  0  0  0  0  0  0  0
    4.6273    1.9492    0.0000 C   0  0  0  0  0  0  0  0  0
    5.3417   -0.1133    0.0000 C   0  0  0  0  0  0  0  0  0
    4.6273   -0.5258    0.0000 O   0  0  0  0  0  0  0  0  0
    6.0562   -0.5258    0.0000 C   0  0  0  0  0  0  0  0  0
    6.7707   -0.1133    0.0000 C   0  0  0  0  0  0  0  0  0
    7.4851   -0.5258    0.0000 C   0  0  0  0  0  0  0  0  0
    7.4851   -1.3508    0.0000 C   0  0  0  0  0  0  0  0  0
    6.7707   -1.7633    0.0000 C   0  0  0  0  0  0  0  0  0
    6.7707   -2.5883    0.0000 O   0  0  0  0  0  0  0  0  0
    7.4851   -3.0008    0.0000 C   0  0  0  0  0  0  0  0  0
    7.4851   -3.8258    0.0000 C   0  0  0  0  0  0  0  0  0
    8.1996   -4.2383    0.0000 F   0  0  0  0  0  0  0  0  0
    6.0562   -1.3508    0.0000 C   0  0  0  0  0  0  0  0  0
    5.3417   -1.7633    0.0000 O   0  0  0  0  0  0  0  0  0
    5.3417   -2.5883    0.0000 C   0  0  0  0  0  0  0  0  0
  1  2  1  0  0  0  0
  2  3  4  0  0  0  0
  2  7  4  0  0  0  0
  3  4  4  0  0  0  0
  4  5  4  0  0  0  0
  5  6  4  0  0  0  0
  5  8  1  0  0  0  0
  6  7  4  0  0  0  0
  8  9  1  0  0  0  0
  9 10  1  0  0  0  0
 10 11  1  0  0  0  0
 10 15  1  0  0  0  0
 11 12  1  0  0  0  0
 12 13  1  0  0  0  0
 13 14  1  0  0  0  0
 13 16  1  0  0  0  0
 14 15  1  0  0  0  0
 16 17  1  0  0  0  0
 16 18  1  0  0  0  0
 18 19  4  0  0  0  0
 18 27  4  0  0  0  0
 19 20  4  0  0  0  0
 20 21  4  0  0  0  0
 21 22  4  0  0  0  0
 22 23  1  0  0  0  0
 22 27  4  0  0  0  0
 23 24  1  0  0  0  0
 24 25  1  0  0  0  0
 25 26  1  0  0  0  0
 27 28  1  0  0  0  0
 28 29  1  0  0  0  0
M  END
>  <Name_Molregno>
437622

>  <5-HT1A>
5

>  <5-HT1B>
5.89

>  <5-HT1D>
6.06

>  <5-HT1E>
5

>  <5-HT2C>
7.22

>  <5-HT3>
5

>  <5-HT5>
5.09

>  <5-HT6>
5.41

>  <5-HT7>
7.09

>  <Alpha-1A>
6.47

>  <Alpha-1B>
6.4

>  <Alpha-2A>
5

>  <Alpha-2C>
6.83

>  <DOPAMINE D1>
5.74

>  <DOPAMINE D2>
5.29

>  <DOPAMINE D4>
6.31

>  <DOPAMINE D5>
5.13

>  <Dopamine transporter>
5

>  <HISTAMINE H1>
6.36

>  <HISTAMINE H2>
5.56

>  <HISTAMINE H3>
5

>  <Serotonin transporter>
5.55

$$$$
451337
  Marvin  02231216192D 0   1.00000     0.00000     0

 33 37  0  0  1  0  0  0  0  0999 V2000
    4.7376   -1.4397    0.0000 O   0  0  0  0  0  0  0  0  0
    5.2341   -0.7809    0.0000 C   0  0  0  0  0  0  0  0  0
    4.9119   -0.0215    0.0000 N   0  0  0  0  0  0  0  0  0
    5.4084    0.6374    0.0000 C   0  0  0  0  0  0  0  0  0
    4.0930    0.0792    0.0000 C   0  0  0  0  0  0  0  0  0
    3.7707    0.8386    0.0000 C   0  0  0  0  0  0  0  0  0
    2.9519    0.9392    0.0000 C   0  0  0  0  0  0  0  0  0
    2.6296    1.6987    0.0000 C   0  0  0  0  0  0  0  0  0
    1.8108    1.7993    0.0000 C   0  0  0  0  0  0  0  0  0
    1.3142    1.1405    0.0000 C   0  0  0  0  0  0  0  0  0
    1.6365    0.3810    0.0000 C   0  0  0  0  0  0  0  0  0
    1.1399   -0.2778    0.0000 C   0  0  0  0  0  0  0  0  0
    0.3211   -0.1772    0.0000 C   0  0  0  0  0  0  0  0  0
   -0.0012    0.5823    0.0000 C   0  0  0  0  0  0  0  0  0
   -0.7812    0.8509    0.0000 C   0  0  0  0  0  0  0  0  0
   -0.7667    1.6758    0.0000 C   0  0  0  0  0  0  0  0  0
    0.0222    1.9169    0.0000 C   0  0  0  0  0  0  0  0  0
    0.4954    1.2411    0.0000 C   0  0  0  0  0  0  0  0  0
   -1.2778    0.1921    0.0000 C   0  0  0  0  0  0  0  0  0
   -0.8046   -0.4837    0.0000 N   0  0  0  0  0  0  0  0  0
   -0.0157   -0.2426    0.0000 C   0  0  0  0  0  0  0  0  0
   -1.0733   -1.2638    0.0000 C   0  0  0  0  0  0  0  0  0
   -2.1026    0.2066    0.0000 C   0  0  0  0  0  0  0  0  0
    2.4553    0.2804    0.0000 C   0  0  0  0  0  0  0  0  0
    2.7776   -0.4790    0.0000 C   0  0  0  0  0  0  0  0  0
    3.5965   -0.5797    0.0000 C   0  0  0  0  0  0  0  0  0
    1.9588   -0.3784    0.0000 C   0  0  0  0  0  0  0  0  0
    6.0530   -0.8815    0.0000 C   0  0  0  0  0  0  0  0  0
    6.3753   -1.6410    0.0000 N   0  0  0  0  0  0  0  0  0
    7.1941   -1.7416    0.0000 C   0  0  0  0  0  0  0  0  0
    6.5495   -0.2227    0.0000 C   0  0  0  0  0  0  0  0  0
    6.2273    0.5368    0.0000 C   0  0  0  0  0  0  0  0  0
    7.3684   -0.3233    0.0000 C   0  0  0  0  0  0  0  0  0
  1  2  2  0  0  0  0
  2  3  1  0  0  0  0
  2 28  1  0  0  0  0
  3  4  1  0  0  0  0
  3  5  1  0  0  0  0
  5  6  1  0  0  0  0
  5 26  1  0  0  0  0
  6  7  1  0  0  0  0
  7  8  2  0  0  0  0
  7 24  1  0  0  0  0
  8  9  1  0  0  0  0
  9 10  1  0  0  0  0
 10 11  1  0  0  0  0
 10 18  1  0  0  0  0
 11 12  1  0  0  0  0
 11 24  1  0  0  0  0
 12 13  1  0  0  0  0
 13 14  1  0  0  0  0
 14 15  1  0  0  0  0
 14 18  1  0  0  0  0
 14 21  1  0  0  0  0
 15 16  1  0  0  0  0
 15 19  1  0  0  0  0
 16 17  1  0  0  0  0
 17 18  1  0  0  0  0
 19 20  1  0  0  0  0
 19 23  1  0  0  0  0
 20 21  1  0  0  0  0
 20 22  1  0  0  0  0
 24 25  1  0  0  0  0
 24 27  1  0  0  0  0
 25 26  1  0  0  0  0
 28 29  1  0  0  0  0
 28 31  1  0  0  0  0
 29 30  1  0  0  0  0
 31 32  1  0  0  0  0
 31 33  1  0  0  0  0
M  END
>  <Name_Molregno>
451337

>  <Alpha-2C>
7.11

>  <HISTAMINE H1>
5

>  <HISTAMINE H2>
5

>  <HISTAMINE H3>
9.68

>  <HISTAMINE H4>
5

$$$$
454150
  Marvin  02231216192D 0   1.00000     0.00000     0

 25 28  0  0  0  0  0  0  0  0999 V2000
   -1.1056   -2.9429    0.0000 Cl  0  0  0  0  0  0  0  0  0
   -0.3912   -2.5304    0.0000 C   0  0  0  0  0  0  0  0  0
    0.3233   -2.9429    0.0000 C   0  0  0  0  0  0  0  0  0
    1.0378   -2.5304    0.0000 C   0  0  0  0  0  0  0  0  0
    1.0378   -1.7054    0.0000 C   0  0  0  0  0  0  0  0  0
    1.7523   -1.2929    0.0000 N   0  0  0  0  0  0  0  0  0
    2.4667   -1.7054    0.0000 C   0  0  0  0  0  0  0  0  0
    2.4667   -2.5304    0.0000 N   0  0  0  0  0  0  0  0  0
    1.7523   -2.9429    0.0000 C   0  0  0  0  0  0  0  0  0
    1.7523   -3.7679    0.0000 N   0  0  0  0  0  0  0  0  0
    1.0378   -4.1804    0.0000 C   0  0  0  0  0  0  0  0  0
    1.0378   -5.0054    0.0000 C   0  0  0  0  0  0  0  0  0
    1.7052   -5.4903    0.0000 C   0  0  0  0  0  0  0  0  0
    1.4503   -6.2750    0.0000 C   0  0  0  0  0  0  0  0  0
    0.6253   -6.2750    0.0000 O   0  0  0  0  0  0  0  0  0
    0.3703   -5.4903    0.0000 C   0  0  0  0  0  0  0  0  0
    3.1812   -1.2929    0.0000 N   0  0  0  0  0  0  0  0  0
    3.1812   -0.4679    0.0000 C   0  0  0  0  0  0  0  0  0
    3.8957   -0.0554    0.0000 C   0  0  0  0  0  0  0  0  0
    4.6101   -0.4679    0.0000 N   0  0  0  0  0  0  0  0  0
    4.6101   -1.2929    0.0000 C   0  0  0  0  0  0  0  0  0
    3.8957   -1.7054    0.0000 C   0  0  0  0  0  0  0  0  0
    5.3246   -0.0554    0.0000 C   0  0  0  0  0  0  0  0  0
    0.3233   -1.2929    0.0000 C   0  0  0  0  0  0  0  0  0
   -0.3912   -1.7054    0.0000 C   0  0  0  0  0  0  0  0  0
  1  2  1  0  0  0  0
  2  3  4  0  0  0  0
  2 25  4  0  0  0  0
  3  4  4  0  0  0  0
  4  5  4  0  0  0  0
  4  9  4  0  0  0  0
  5  6  4  0  0  0  0
  5 24  4  0  0  0  0
  6  7  4  0  0  0  0
  7  8  4  0  0  0  0
  7 17  1  0  0  0  0
  8  9  4  0  0  0  0
  9 10  1  0  0  0  0
 10 11  1  0  0  0  0
 11 12  1  0  0  0  0
 12 13  4  0  0  0  0
 12 16  4  0  0  0  0
 13 14  4  0  0  0  0
 14 15  4  0  0  0  0
 15 16  4  0  0  0  0
 17 18  1  0  0  0  0
 17 22  1  0  0  0  0
 18 19  1  0  0  0  0
 19 20  1  0  0  0  0
 20 21  1  0  0  0  0
 20 23  1  0  0  0  0
 21 22  1  0  0  0  0
 24 25  4  0  0  0  0
M  END
>  <Name_Molregno>
454150

>  <HISTAMINE H1>
7.01

>  <HISTAMINE H4>
7.31

$$$$
454151
  Marvin  02231216192D 0   1.00000     0.00000     0

 25 28  0  0  0  0  0  0  0  0999 V2000
   -1.1056   -2.9429    0.0000 Cl  0  0  0  0  0  0  0  0  0
   -0.3912   -2.5304    0.0000 C   0  0  0  0  0  0  0  0  0
    0.3233   -2.9429    0.0000 C   0  0  0  0  0  0  0  0  0
    1.0378   -2.5304    0.0000 C   0  0  0  0  0  0  0  0  0
    1.0378   -1.7054    0.0000 C   0  0  0  0  0  0  0  0  0
    1.7523   -1.2929    0.0000 N   0  0  0  0  0  0  0  0  0
    2.4667   -1.7054    0.0000 C   0  0  0  0  0  0  0  0  0
    2.4667   -2.5304    0.0000 N   0  0  0  0  0  0  0  0  0
    1.7523   -2.9429    0.0000 C   0  0  0  0  0  0  0  0  0
    1.7523   -3.7679    0.0000 N   0  0  0  0  0  0  0  0  0
    1.0378   -4.1804    0.0000 C   0  0  0  0  0  0  0  0  0
    1.0378   -5.0054    0.0000 C   0  0  0  0  0  0  0  0  0
    1.7052   -5.4903    0.0000 S   0  0  0  0  0  0  0  0  0
    1.4503   -6.2750    0.0000 C   0  0  0  0  0  0  0  0  0
    0.6253   -6.2750    0.0000 C   0  0  0  0  0  0  0  0  0
    0.3703   -5.4903    0.0000 C   0  0  0  0  0  0  0  0  0
    3.1812   -1.2929    0.0000 N   0  0  0  0  0  0  0  0  0
    3.1812   -0.4679    0.0000 C   0  0  0  0  0  0  0  0  0
    3.8957   -0.0554    0.0000 C   0  0  0  0  0  0  0  0  0
    4.6101   -0.4679    0.0000 N   0  0  0  0  0  0  0  0  0
    4.6101   -1.2929    0.0000 C   0  0  0  0  0  0  0  0  0
    3.8957   -1.7054    0.0000 C   0  0  0  0  0  0  0  0  0
    5.3246   -0.0554    0.0000 C   0  0  0  0  0  0  0  0  0
    0.3233   -1.2929    0.0000 C   0  0  0  0  0  0  0  0  0
   -0.3912   -1.7054    0.0000 C   0  0  0  0  0  0  0  0  0
  1  2  1  0  0  0  0
  2  3  4  0  0  0  0
  2 25  4  0  0  0  0
  3  4  4  0  0  0  0
  4  5  4  0  0  0  0
  4  9  4  0  0  0  0
  5  6  4  0  0  0  0
  5 24  4  0  0  0  0
  6  7  4  0  0  0  0
  7  8  4  0  0  0  0
  7 17  1  0  0  0  0
  8  9  4  0  0  0  0
  9 10  1  0  0  0  0
 10 11  1  0  0  0  0
 11 12  1  0  0  0  0
 12 13  4  0  0  0  0
 12 16  4  0  0  0  0
 13 14  4  0  0  0  0
 14 15  4  0  0  0  0
 15 16  4  0  0  0  0
 17 18  1  0  0  0  0
 17 22  1  0  0  0  0
 18 19  1  0  0  0  0
 19 20  1  0  0  0  0
 20 21  1  0  0  0  0
 20 23  1  0  0  0  0
 21 22  1  0  0  0  0
 24 25  4  0  0  0  0
M  END
>  <Name_Molregno>
454151

>  <HISTAMINE H1>
7.7

>  <HISTAMINE H4>
8.12

$$$$
470836
  Marvin  02231216192D 0   1.00000     0.00000     0

 33 36  0  0  0  0  0  0  0  0999 V2000
    0.2813   -0.6889    0.0000 Cl  0  0  0  0  0  0  0  0  0
    1.0290   -1.0375    0.0000 C   0  0  0  0  0  0  0  0  0
    1.7048   -0.5643    0.0000 C   0  0  0  0  0  0  0  0  0
    2.4525   -0.9130    0.0000 C   0  0  0  0  0  0  0  0  0
    2.5244   -1.7348    0.0000 C   0  0  0  0  0  0  0  0  0
    1.8486   -2.2080    0.0000 C   0  0  0  0  0  0  0  0  0
    1.1009   -1.8594    0.0000 C   0  0  0  0  0  0  0  0  0
    3.2721   -2.0835    0.0000 C   0  0  0  0  0  0  0  0  0
    2.7989   -2.7593    0.0000 O   0  0  0  0  0  0  0  0  0
    3.4856   -1.2866    0.0000 C   0  0  0  0  0  0  0  0  0
    4.2825   -1.0731    0.0000 C   0  0  0  0  0  0  0  0  0
    4.8659   -1.6564    0.0000 N   0  0  0  0  0  0  0  0  0
    4.6523   -2.4533    0.0000 C   0  0  0  0  0  0  0  0  0
    3.8555   -2.6669    0.0000 C   0  0  0  0  0  0  0  0  0
    5.6628   -1.4429    0.0000 C   0  0  0  0  0  0  0  0  0
    5.8763   -0.6460    0.0000 C   0  0  0  0  0  0  0  0  0
    6.6732   -0.4325    0.0000 C   0  0  0  0  0  0  0  0  0
    6.8867   -1.2294    0.0000 C   0  0  0  0  0  0  0  0  0
    6.3033   -1.8128    0.0000 O   0  0  0  0  0  0  0  0  0
    7.6836   -1.4429    0.0000 N   0  0  0  0  0  0  0  0  0
    7.8971   -2.2398    0.0000 C   0  0  0  0  0  0  0  0  0
    7.4701   -0.2190    0.0000 C   0  0  0  0  0  0  0  0  0
    7.6836    0.5779    0.0000 C   0  0  0  0  0  0  0  0  0
    8.4805    0.7914    0.0000 C   0  0  0  0  0  0  0  0  0
    9.0638    0.2081    0.0000 C   0  0  0  0  0  0  0  0  0
    8.8503   -0.5888    0.0000 C   0  0  0  0  0  0  0  0  0
    8.0534   -0.8023    0.0000 C   0  0  0  0  0  0  0  0  0
    6.4596    0.3644    0.0000 C   0  0  0  0  0  0  0  0  0
    5.6628    0.5779    0.0000 C   0  0  0  0  0  0  0  0  0
    5.4492    1.3748    0.0000 C   0  0  0  0  0  0  0  0  0
    6.0326    1.9582    0.0000 C   0  0  0  0  0  0  0  0  0
    6.8295    1.7446    0.0000 C   0  0  0  0  0  0  0  0  0
    7.0430    0.9477    0.0000 C   0  0  0  0  0  0  0  0  0
  1  2  1  0  0  0  0
  2  3  4  0  0  0  0
  2  7  4  0  0  0  0
  3  4  4  0  0  0  0
  4  5  4  0  0  0  0
  5  6  4  0  0  0  0
  5  8  1  0  0  0  0
  6  7  4  0  0  0  0
  8  9  1  0  0  0  0
  8 10  1  0  0  0  0
  8 14  1  0  0  0  0
 10 11  1  0  0  0  0
 11 12  1  0  0  0  0
 12 13  1  0  0  0  0
 12 15  1  0  0  0  0
 13 14  1  0  0  0  0
 15 16  1  0  0  0  0
 16 17  1  0  0  0  0
 17 18  1  0  0  0  0
 17 22  1  0  0  0  0
 17 28  1  0  0  0  0
 18 19  2  0  0  0  0
 18 20  1  0  0  0  0
 20 21  1  0  0  0  0
 22 23  4  0  0  0  0
 22 27  4  0  0  0  0
 23 24  4  0  0  0  0
 24 25  4  0  0  0  0
 25 26  4  0  0  0  0
 26 27  4  0  0  0  0
 28 29  4  0  0  0  0
 28 33  4  0  0  0  0
 29 30  4  0  0  0  0
 30 31  4  0  0  0  0
 31 32  4  0  0  0  0
 32 33  4  0  0  0  0
M  END
>  <Name_Molregno>
470836

>  <HISTAMINE H1>
8.38

>  <HISTAMINE H2>
8.77

>  <HISTAMINE H3>
8.03

>  <Serotonin transporter>
8.21

$$$$
473109
  Marvin  02231216192D 0   1.00000     0.00000     0

 21 22  0  0  1  0  0  0  0  0999 V2000
    6.3079    1.6156    0.0000 F   0  0  0  0  0  0  0  0  0
    5.5934    1.2031    0.0000 C   0  0  0  0  0  0  0  0  0
    5.1809    1.9176    0.0000 F   0  0  0  0  0  0  0  0  0
    6.0059    0.4887    0.0000 F   0  0  0  0  0  0  0  0  0
    4.8790    0.7906    0.0000 C   0  0  0  0  0  0  0  0  0
    4.8790   -0.0344    0.0000 C   0  0  0  0  0  0  0  0  0
    4.1645   -0.4469    0.0000 C   0  0  0  0  0  0  0  0  0
    3.4500   -0.0344    0.0000 C   0  0  0  0  0  0  0  0  0
    2.7355   -0.4469    0.0000 O   0  0  0  0  0  0  0  0  0
    2.7355   -1.2719    0.0000 C   0  0  0  0  0  0  0  0  0
    3.4500   -1.6844    0.0000 C   0  0  0  0  0  0  0  0  0
    4.1645   -1.2719    0.0000 C   0  0  0  0  0  0  0  0  0
    4.8790   -1.6844    0.0000 N   0  0  0  0  0  0  0  0  0
    2.0211   -1.6844    0.0000 C   0  0  0  0  0  0  0  0  0
    2.0211   -2.5094    0.0000 C   0  0  0  0  0  0  0  0  0
    1.3066   -2.9219    0.0000 C   0  0  0  0  0  0  0  0  0
    0.5921   -2.5094    0.0000 C   0  0  0  0  0  0  0  0  0
    0.5921   -1.6844    0.0000 C   0  0  0  0  0  0  0  0  0
    1.3066   -1.2719    0.0000 C   0  0  0  0  0  0  0  0  0
    3.4500    0.7906    0.0000 C   0  0  0  0  0  0  0  0  0
    4.1645    1.2031    0.0000 C   0  0  0  0  0  0  0  0  0
  1  2  1  0  0  0  0
  2  3  1  0  0  0  0
  2  4  1  0  0  0  0
  2  5  1  0  0  0  0
  5  6  4  0  0  0  0
  5 21  4  0  0  0  0
  6  7  4  0  0  0  0
  7  8  4  0  0  0  0
  8  9  1  0  0  0  0
  8 20  4  0  0  0  0
  9 10  1  0  0  0  0
 10 11  1  0  0  0  0
 10 14  1  0  0  0  0
 11 12  1  0  0  0  0
 12 13  1  0  0  0  0
 14 15  4  0  0  0  0
 14 19  4  0  0  0  0
 15 16  4  0  0  0  0
 16 17  4  0  0  0  0
 17 18  4  0  0  0  0
 18 19  4  0  0  0  0
 20 21  4  0  0  0  0
M  END
>  <Name_Molregno>
473109

>  <5-HT1A>
5

>  <5-HT2A>
6.53

>  <5-HT2C>
7.04

>  <DOPAMINE D2>
5

>  <Dopamine transporter>
5.59

>  <HISTAMINE H1>
5

>  <Muscarinic acetylcholine receptor M1>
5.92

>  <Muscarinic acetylcholine receptor M2>
5.34

>  <Muscarinic acetylcholine receptor M3>
6.12

>  <Muscarinic acetylcholine receptor M4>
5.59

>  <Muscarinic acetylcholine receptor M5>
5.66

>  <Norepinephrine transporter>
5.35

>  <Serotonin transporter>
7.79

$$$$
489873
  Marvin  02231216192D 0   1.00000     0.00000     0

 25 27  0  0  0  0  0  0  0  0999 V2000
    0.2794    2.6940    0.0000 Cl  0  0  0  0  0  0  0  0  0
    0.9939    2.2815    0.0000 C   0  0  0  0  0  0  0  0  0
    1.7084    2.6940    0.0000 C   0  0  0  0  0  0  0  0  0
    2.4228    2.2815    0.0000 C   0  0  0  0  0  0  0  0  0
    2.4228    1.4565    0.0000 C   0  0  0  0  0  0  0  0  0
    3.1373    1.0440    0.0000 N   0  0  0  0  0  0  0  0  0
    3.8518    1.4565    0.0000 C   0  0  0  0  0  0  0  0  0
    4.5663    1.0440    0.0000 C   0  0  0  0  0  0  0  0  0
    4.5663    0.2190    0.0000 N   0  0  0  0  0  0  0  0  0
    3.8518   -0.1935    0.0000 C   0  0  0  0  0  0  0  0  0
    3.1373    0.2190    0.0000 C   0  0  0  0  0  0  0  0  0
    5.2807   -0.1935    0.0000 C   0  0  0  0  0  0  0  0  0
    5.9952    0.2190    0.0000 C   0  0  0  0  0  0  0  0  0
    6.7097   -0.1935    0.0000 C   0  0  0  0  0  0  0  0  0
    7.4241    0.2190    0.0000 C   0  0  0  0  0  0  0  0  0
    7.4241    1.0440    0.0000 O   0  0  0  0  0  0  0  0  0
    8.1386   -0.1935    0.0000 C   0  0  0  0  0  0  0  0  0
    8.8531    0.2190    0.0000 C   0  0  0  0  0  0  0  0  0
    9.5676   -0.1935    0.0000 C   0  0  0  0  0  0  0  0  0
    9.5676   -1.0185    0.0000 C   0  0  0  0  0  0  0  0  0
   10.2820   -1.4310    0.0000 F   0  0  0  0  0  0  0  0  0
    8.8531   -1.4310    0.0000 C   0  0  0  0  0  0  0  0  0
    8.1386   -1.0185    0.0000 C   0  0  0  0  0  0  0  0  0
    1.7084    1.0440    0.0000 C   0  0  0  0  0  0  0  0  0
    0.9939    1.4565    0.0000 C   0  0  0  0  0  0  0  0  0
  1  2  1  0  0  0  0
  2  3  4  0  0  0  0
  2 25  4  0  0  0  0
  3  4  4  0  0  0  0
  4  5  4  0  0  0  0
  5  6  1  0  0  0  0
  5 24  4  0  0  0  0
  6  7  1  0  0  0  0
  6 11  1  0  0  0  0
  7  8  1  0  0  0  0
  8  9  1  0  0  0  0
  9 10  1  0  0  0  0
  9 12  1  0  0  0  0
 10 11  1  0  0  0  0
 12 13  1  0  0  0  0
 13 14  1  0  0  0  0
 14 15  1  0  0  0  0
 15 16  2  0  0  0  0
 15 17  1  0  0  0  0
 17 18  4  0  0  0  0
 17 23  4  0  0  0  0
 18 19  4  0  0  0  0
 19 20  4  0  0  0  0
 20 21  1  0  0  0  0
 20 22  4  0  0  0  0
 22 23  4  0  0  0  0
 24 25  4  0  0  0  0
M  END
>  <Name_Molregno>
489873

>  <5-HT1A>
7.04

>  <5-HT2A>
6.96

>  <5-HT2C>
5.45

>  <DOPAMINE D2>
6.6

>  <DOPAMINE D4>
7.77

>  <HISTAMINE H1>
6.8

$$$$
489941
  Marvin  02231216192D 0   1.00000     0.00000     0

 27 30  0  0  1  0  0  0  0  0999 V2000
    1.9851    3.9912    0.0000 F   0  0  0  0  0  0  0  0  0
    2.4077    3.2826    0.0000 C   0  0  0  0  0  0  0  0  0
    3.2326    3.2943    0.0000 C   0  0  0  0  0  0  0  0  0
    3.6552    2.5858    0.0000 C   0  0  0  0  0  0  0  0  0
    3.2529    1.8656    0.0000 C   0  0  0  0  0  0  0  0  0
    2.4280    1.8538    0.0000 C   0  0  0  0  0  0  0  0  0
    2.0054    2.5624    0.0000 C   0  0  0  0  0  0  0  0  0
    3.6755    1.1570    0.0000 C   0  0  0  0  0  0  0  0  0
    3.2732    0.4368    0.0000 O   0  0  0  0  0  0  0  0  0
    4.5004    1.1687    0.0000 C   0  0  0  0  0  0  0  0  0
    4.9230    0.4602    0.0000 C   0  0  0  0  0  0  0  0  0
    5.7480    0.4719    0.0000 C   0  0  0  0  0  0  0  0  0
    6.1706   -0.2366    0.0000 N   0  0  0  0  0  0  0  0  0
    6.7312   -0.6765    0.0000 C   0  0  0  0  0  0  0  0  0
    7.6600   -0.6610    0.0000 C   0  0  0  0  0  0  0  0  0
    7.7982   -1.4784    0.0000 C   0  0  0  0  0  0  0  0  0
    8.6173   -1.5767    0.0000 O   0  0  0  0  0  0  0  0  0
    7.2820   -1.0497    0.0000 C   0  0  0  0  0  0  0  0  0
    6.3103   -1.0497    0.0000 C   0  0  0  0  0  0  0  0  0
    5.7904   -1.7620    0.0000 C   0  0  0  0  0  0  0  0  0
    6.4107   -1.3851    0.0000 C   0  0  0  0  0  0  0  0  0
    7.4722   -2.2363    0.0000 C   0  0  0  0  0  0  0  0  0
    7.9655   -2.8975    0.0000 C   0  0  0  0  0  0  0  0  0
    7.6395   -3.6554    0.0000 C   0  0  0  0  0  0  0  0  0
    6.8202   -3.7520    0.0000 C   0  0  0  0  0  0  0  0  0
    6.3269   -3.0908    0.0000 C   0  0  0  0  0  0  0  0  0
    6.6529   -2.3329    0.0000 C   0  0  0  0  0  0  0  0  0
  1  2  1  0  0  0  0
  2  3  4  0  0  0  0
  2  7  4  0  0  0  0
  3  4  4  0  0  0  0
  4  5  4  0  0  0  0
  5  6  4  0  0  0  0
  5  8  1  0  0  0  0
  6  7  4  0  0  0  0
  8  9  2  0  0  0  0
  8 10  1  0  0  0  0
 10 11  1  0  0  0  0
 11 12  1  0  0  0  0
 12 13  1  0  0  0  0
 13 14  1  0  0  0  0
 13 19  1  0  0  0  0
 14 15  1  0  0  0  0
 14 21  1  0  0  0  0
 15 16  1  0  0  0  0
 16 17  1  0  0  0  0
 16 18  1  0  0  0  0
 16 22  1  0  0  0  0
 18 19  1  0  0  0  0
 19 20  1  0  0  0  0
 20 21  1  0  0  0  0
 22 23  4  0  0  0  0
 22 27  4  0  0  0  0
 23 24  4  0  0  0  0
 24 25  4  0  0  0  0
 25 26  4  0  0  0  0
 26 27  4  0  0  0  0
M  END
>  <Name_Molregno>
489941

>  <5-HT1A>
7.42

>  <5-HT2A>
7.91

>  <5-HT2C>
5

>  <DOPAMINE D2>
8.64

>  <DOPAMINE D4>
7.72

>  <HISTAMINE H1>
6.2

$$$$
490001
  Marvin  02231216192D 0   1.00000     0.00000     0

 26 28  0  0  0  0  0  0  0  0999 V2000
   -0.1047    1.0755    0.0000 Cl  0  0  0  0  0  0  0  0  0
    0.7180    1.0139    0.0000 C   0  0  0  0  0  0  0  0  0
    1.1827    1.6955    0.0000 C   0  0  0  0  0  0  0  0  0
    2.0054    1.6339    0.0000 C   0  0  0  0  0  0  0  0  0
    2.3634    0.8906    0.0000 C   0  0  0  0  0  0  0  0  0
    3.1860    0.8289    0.0000 N   0  0  0  0  0  0  0  0  0
    3.5985    1.5434    0.0000 C   0  0  0  0  0  0  0  0  0
    4.4143    1.6663    0.0000 C   0  0  0  0  0  0  0  0  0
    5.0191    1.1052    0.0000 C   0  0  0  0  0  0  0  0  0
    4.9574    0.2825    0.0000 N   0  0  0  0  0  0  0  0  0
    4.2758   -0.1822    0.0000 C   0  0  0  0  0  0  0  0  0
    3.4875    0.0609    0.0000 C   0  0  0  0  0  0  0  0  0
    5.6719   -0.1300    0.0000 C   0  0  0  0  0  0  0  0  0
    6.3864    0.2825    0.0000 C   0  0  0  0  0  0  0  0  0
    7.1009   -0.1300    0.0000 C   0  0  0  0  0  0  0  0  0
    7.8153    0.2825    0.0000 C   0  0  0  0  0  0  0  0  0
    7.8153    1.1075    0.0000 O   0  0  0  0  0  0  0  0  0
    8.5298   -0.1300    0.0000 C   0  0  0  0  0  0  0  0  0
    9.2443    0.2825    0.0000 C   0  0  0  0  0  0  0  0  0
    9.9587   -0.1300    0.0000 C   0  0  0  0  0  0  0  0  0
    9.9587   -0.9550    0.0000 C   0  0  0  0  0  0  0  0  0
   10.6732   -1.3675    0.0000 F   0  0  0  0  0  0  0  0  0
    9.2443   -1.3675    0.0000 C   0  0  0  0  0  0  0  0  0
    8.5298   -0.9550    0.0000 C   0  0  0  0  0  0  0  0  0
    1.8986    0.2089    0.0000 C   0  0  0  0  0  0  0  0  0
    1.0759    0.2706    0.0000 C   0  0  0  0  0  0  0  0  0
  1  2  1  0  0  0  0
  2  3  4  0  0  0  0
  2 26  4  0  0  0  0
  3  4  4  0  0  0  0
  4  5  4  0  0  0  0
  5  6  1  0  0  0  0
  5 25  4  0  0  0  0
  6  7  1  0  0  0  0
  6 12  1  0  0  0  0
  7  8  1  0  0  0  0
  8  9  1  0  0  0  0
  9 10  1  0  0  0  0
 10 11  1  0  0  0  0
 10 13  1  0  0  0  0
 11 12  1  0  0  0  0
 13 14  1  0  0  0  0
 14 15  1  0  0  0  0
 15 16  1  0  0  0  0
 16 17  2  0  0  0  0
 16 18  1  0  0  0  0
 18 19  4  0  0  0  0
 18 24  4  0  0  0  0
 19 20  4  0  0  0  0
 20 21  4  0  0  0  0
 21 22  1  0  0  0  0
 21 23  4  0  0  0  0
 23 24  4  0  0  0  0
 25 26  4  0  0  0  0
M  END
>  <Name_Molregno>
490001

>  <5-HT1A>
6.93

>  <5-HT2A>
7.63

>  <5-HT2C>
5.85

>  <5-HT6>
6.53

>  <DOPAMINE D1>
6.79

>  <DOPAMINE D2>
7.36

>  <DOPAMINE D3>
6.8

>  <DOPAMINE D4>
8.18

>  <Dopamine transporter>
5.94

>  <HISTAMINE H1>
6.72

>  <Muscarinic acetylcholine receptor M1>
6.06

>  <Serotonin transporter>
7.25

$$$$
490002
  Marvin  02231216192D 0   1.00000     0.00000     0

 28 31  0  0  1  0  0  0  0  0999 V2000
    2.5267   -4.2916    0.0000 Cl  0  0  0  0  0  0  0  0  0
    3.0577   -3.6602    0.0000 C   0  0  0  0  0  0  0  0  0
    2.7764   -2.8847    0.0000 C   0  0  0  0  0  0  0  0  0
    3.3075   -2.2533    0.0000 C   0  0  0  0  0  0  0  0  0
    4.1198   -2.3975    0.0000 C   0  0  0  0  0  0  0  0  0
    4.6508   -1.7661    0.0000 N   0  0  0  0  0  0  0  0  0
    5.4718   -1.9734    0.0000 C   0  0  0  0  0  0  0  0  0
    6.0885   -1.7178    0.0000 C   0  0  0  0  0  0  0  0  0
    6.0885   -0.4604    0.0000 N   0  0  0  0  0  0  0  0  0
    5.8763   -1.2409    0.0000 C   0  0  0  0  0  0  0  0  0
    6.7076   -1.6094    0.0000 C   0  0  0  0  0  0  0  0  0
    6.9098   -2.1415    0.0000 C   0  0  0  0  0  0  0  0  0
    5.0599   -1.0379    0.0000 C   0  0  0  0  0  0  0  0  0
    4.4405   -1.2946    0.0000 C   0  0  0  0  0  0  0  0  0
    6.1977    0.3573    0.0000 C   0  0  0  0  0  0  0  0  0
    5.5441    0.8607    0.0000 C   0  0  0  0  0  0  0  0  0
    5.6533    1.6785    0.0000 C   0  0  0  0  0  0  0  0  0
    4.9997    2.1819    0.0000 C   0  0  0  0  0  0  0  0  0
    4.2369    1.8676    0.0000 O   0  0  0  0  0  0  0  0  0
    5.1089    2.9996    0.0000 C   0  0  0  0  0  0  0  0  0
    4.4553    3.5031    0.0000 C   0  0  0  0  0  0  0  0  0
    4.5644    4.3208    0.0000 C   0  0  0  0  0  0  0  0  0
    5.3272    4.6351    0.0000 C   0  0  0  0  0  0  0  0  0
    5.4364    5.4529    0.0000 F   0  0  0  0  0  0  0  0  0
    5.9808    4.1317    0.0000 C   0  0  0  0  0  0  0  0  0
    5.8716    3.3140    0.0000 C   0  0  0  0  0  0  0  0  0
    4.4010   -3.1731    0.0000 C   0  0  0  0  0  0  0  0  0
    3.8700   -3.8044    0.0000 C   0  0  0  0  0  0  0  0  0
  1  2  1  0  0  0  0
  2  3  4  0  0  0  0
  2 28  4  0  0  0  0
  3  4  4  0  0  0  0
  4  5  4  0  0  0  0
  5  6  1  0  0  0  0
  5 27  4  0  0  0  0
  6  7  1  0  0  0  0
  6 14  1  0  0  0  0
  7  8  1  0  0  0  0
  8  9  1  0  0  0  0
  8 12  1  0  0  0  0
  9 10  1  0  0  0  0
  9 15  1  0  0  0  0
 10 11  1  0  0  0  0
 10 13  1  0  0  0  0
 11 12  1  0  0  0  0
 13 14  1  0  0  0  0
 15 16  1  0  0  0  0
 16 17  1  0  0  0  0
 17 18  1  0  0  0  0
 18 19  2  0  0  0  0
 18 20  1  0  0  0  0
 20 21  4  0  0  0  0
 20 26  4  0  0  0  0
 21 22  4  0  0  0  0
 22 23  4  0  0  0  0
 23 24  1  0  0  0  0
 23 25  4  0  0  0  0
 25 26  4  0  0  0  0
 27 28  4  0  0  0  0
M  END
>  <Name_Molregno>
490002

>  <5-HT1A>
5.63

>  <5-HT2A>
6.71

>  <5-HT2C>
5.45

>  <DOPAMINE D2>
6.75

>  <DOPAMINE D3>
6.26

>  <DOPAMINE D4>
7.38

>  <HISTAMINE H1>
5.99

$$$$
498962
  Marvin  02231216192D 0   1.00000     0.00000     0

 29 31  0  0  0  0  0  0  0  0999 V2000
    4.6273    6.8992    0.0000 F   0  0  0  0  0  0  0  0  0
    4.6273    6.0742    0.0000 C   0  0  0  0  0  0  0  0  0
    5.3417    5.6617    0.0000 C   0  0  0  0  0  0  0  0  0
    5.3417    4.8367    0.0000 C   0  0  0  0  0  0  0  0  0
    4.6273    4.4242    0.0000 C   0  0  0  0  0  0  0  0  0
    3.9128    4.8367    0.0000 C   0  0  0  0  0  0  0  0  0
    3.9128    5.6617    0.0000 C   0  0  0  0  0  0  0  0  0
    4.6273    3.5992    0.0000 C   0  0  0  0  0  0  0  0  0
    5.3417    3.1867    0.0000 C   0  0  0  0  0  0  0  0  0
    5.3417    2.3617    0.0000 N   0  0  0  0  0  0  0  0  0
    6.0562    1.9492    0.0000 C   0  0  0  0  0  0  0  0  0
    6.0562    1.1242    0.0000 C   0  0  0  0  0  0  0  0  0
    5.3417    0.7117    0.0000 C   0  0  0  0  0  0  0  0  0
    4.6273    1.1242    0.0000 C   0  0  0  0  0  0  0  0  0
    4.6273    1.9492    0.0000 C   0  0  0  0  0  0  0  0  0
    5.3417   -0.1133    0.0000 C   0  0  0  0  0  0  0  0  0
    4.6273   -0.5258    0.0000 O   0  0  0  0  0  0  0  0  0
    6.0562   -0.5258    0.0000 C   0  0  0  0  0  0  0  0  0
    6.7707   -0.1133    0.0000 C   0  0  0  0  0  0  0  0  0
    7.4851   -0.5258    0.0000 C   0  0  0  0  0  0  0  0  0
    7.4851   -1.3508    0.0000 C   0  0  0  0  0  0  0  0  0
    6.7707   -1.7633    0.0000 C   0  0  0  0  0  0  0  0  0
    6.7707   -2.5883    0.0000 O   0  0  0  0  0  0  0  0  0
    7.4851   -3.0008    0.0000 C   0  0  0  0  0  0  0  0  0
    7.4851   -3.8258    0.0000 C   0  0  0  0  0  0  0  0  0
    8.1996   -4.2383    0.0000 F   0  0  0  0  0  0  0  0  0
    6.0562   -1.3508    0.0000 C   0  0  0  0  0  0  0  0  0
    5.3417   -1.7633    0.0000 O   0  0  0  0  0  0  0  0  0
    5.3417   -2.5883    0.0000 C   0  0  0  0  0  0  0  0  0
  1  2  1  0  0  0  0
  2  3  4  0  0  0  0
  2  7  4  0  0  0  0
  3  4  4  0  0  0  0
  4  5  4  0  0  0  0
  5  6  4  0  0  0  0
  5  8  1  0  0  0  0
  6  7  4  0  0  0  0
  8  9  1  0  0  0  0
  9 10  1  0  0  0  0
 10 11  1  0  0  0  0
 10 15  1  0  0  0  0
 11 12  1  0  0  0  0
 12 13  1  0  0  0  0
 13 14  1  0  0  0  0
 13 16  1  0  0  0  0
 14 15  1  0  0  0  0
 16 17  2  0  0  0  0
 16 18  1  0  0  0  0
 18 19  4  0  0  0  0
 18 27  4  0  0  0  0
 19 20  4  0  0  0  0
 20 21  4  0  0  0  0
 21 22  4  0  0  0  0
 22 23  1  0  0  0  0
 22 27  4  0  0  0  0
 23 24  1  0  0  0  0
 24 25  1  0  0  0  0
 25 26  1  0  0  0  0
 27 28  1  0  0  0  0
 28 29  1  0  0  0  0
M  END
>  <Name_Molregno>
498962

>  <5-HT1A>
5.77

>  <5-HT1B>
5.66

>  <5-HT1D>
6.15

>  <5-HT1E>
5

>  <5-HT2C>
6.89

>  <5-HT3>
5

>  <5-HT5>
5.8

>  <5-HT6>
5

>  <5-HT7>
6.68

>  <Alpha-1A>
6.84

>  <Alpha-1B>
6.26

>  <Alpha-2A>
6.06

>  <Alpha-2C>
6.48

>  <DOPAMINE D1>
5.85

>  <DOPAMINE D2>
5.42

>  <DOPAMINE D4>
6.76

>  <DOPAMINE D5>
5.13

>  <Dopamine transporter>
5

>  <HISTAMINE H1>
6.03

>  <HISTAMINE H2>
5.76

>  <HISTAMINE H3>
5

>  <Serotonin transporter>
5.51

$$$$
498964
  Marvin  02231216192D 0   1.00000     0.00000     0

 29 31  0  0  1  0  0  0  0  0999 V2000
    7.7806    5.8078    0.0000 F   0  0  0  0  0  0  0  0  0
    7.0662    5.3953    0.0000 C   0  0  0  0  0  0  0  0  0
    7.0662    4.5703    0.0000 C   0  0  0  0  0  0  0  0  0
    6.3517    4.1578    0.0000 O   0  0  0  0  0  0  0  0  0
    6.3517    3.3328    0.0000 C   0  0  0  0  0  0  0  0  0
    7.0662    2.9203    0.0000 C   0  0  0  0  0  0  0  0  0
    7.0662    2.0953    0.0000 C   0  0  0  0  0  0  0  0  0
    6.3517    1.6828    0.0000 C   0  0  0  0  0  0  0  0  0
    5.6372    2.0953    0.0000 C   0  0  0  0  0  0  0  0  0
    4.9227    1.6828    0.0000 C   0  0  0  0  0  0  0  0  0
    4.2083    2.0953    0.0000 O   0  0  0  0  0  0  0  0  0
    4.9227    0.8578    0.0000 C   0  0  0  0  0  0  0  0  0
    5.6372    0.4453    0.0000 C   0  0  0  0  0  0  0  0  0
    5.6372   -0.3797    0.0000 C   0  0  0  0  0  0  0  0  0
    4.9227   -0.7922    0.0000 N   0  0  0  0  0  0  0  0  0
    4.2083   -0.3797    0.0000 C   0  0  0  0  0  0  0  0  0
    4.2083    0.4453    0.0000 C   0  0  0  0  0  0  0  0  0
    4.9227   -1.6172    0.0000 C   0  0  0  0  0  0  0  0  0
    5.6372   -2.0297    0.0000 C   0  0  0  0  0  0  0  0  0
    5.6372   -2.8547    0.0000 C   0  0  0  0  0  0  0  0  0
    6.3517   -3.2672    0.0000 C   0  0  0  0  0  0  0  0  0
    6.3517   -4.0922    0.0000 C   0  0  0  0  0  0  0  0  0
    5.6372   -4.5047    0.0000 C   0  0  0  0  0  0  0  0  0
    4.9227   -4.0922    0.0000 C   0  0  0  0  0  0  0  0  0
    4.9227   -3.2672    0.0000 C   0  0  0  0  0  0  0  0  0
    5.6372   -5.3297    0.0000 C   0  0  0  0  0  0  0  0  0
    5.6372    2.9203    0.0000 C   0  0  0  0  0  0  0  0  0
    4.9227    3.3328    0.0000 O   0  0  0  0  0  0  0  0  0
    4.2083    2.9203    0.0000 C   0  0  0  0  0  0  0  0  0
  1  2  1  0  0  0  0
  2  3  1  0  0  0  0
  3  4  1  0  0  0  0
  4  5  1  0  0  0  0
  5  6  4  0  0  0  0
  5 27  4  0  0  0  0
  6  7  4  0  0  0  0
  7  8  4  0  0  0  0
  8  9  4  0  0  0  0
  9 10  1  0  0  0  0
  9 27  4  0  0  0  0
 10 11  1  0  0  0  0
 10 12  1  0  0  0  0
 12 13  1  0  0  0  0
 12 17  1  0  0  0  0
 13 14  1  0  0  0  0
 14 15  1  0  0  0  0
 15 16  1  0  0  0  0
 15 18  1  0  0  0  0
 16 17  1  0  0  0  0
 18 19  1  0  0  0  0
 19 20  1  0  0  0  0
 20 21  4  0  0  0  0
 20 25  4  0  0  0  0
 21 22  4  0  0  0  0
 22 23  4  0  0  0  0
 23 24  4  0  0  0  0
 23 26  1  0  0  0  0
 24 25  4  0  0  0  0
 27 28  1  0  0  0  0
 28 29  1  0  0  0  0
M  END
>  <Name_Molregno>
498964

>  <5-HT1A>
5

>  <5-HT1B>
5.31

>  <5-HT1D>
5.84

>  <5-HT1E>
5

>  <5-HT2C>
6.29

>  <5-HT3>
5

>  <5-HT5>
5

>  <5-HT6>
5

>  <5-HT7>
6.3

>  <Alpha-1B>
5

>  <Alpha-2A>
5

>  <Alpha-2C>
6.84

>  <DOPAMINE D1>
5.75

>  <DOPAMINE D2>
5

>  <DOPAMINE D4>
5.57

>  <Dopamine transporter>
5

>  <HISTAMINE H1>
6.36

>  <HISTAMINE H2>
5.94

>  <HISTAMINE H3>
5

>  <Serotonin transporter>
5.58

$$$$
499028
  Marvin  02231216192D 0   1.00000     0.00000     0

 29 31  0  0  0  0  0  0  0  0999 V2000
    7.7806    5.8078    0.0000 F   0  0  0  0  0  0  0  0  0
    7.0662    5.3953    0.0000 C   0  0  0  0  0  0  0  0  0
    7.0662    4.5703    0.0000 C   0  0  0  0  0  0  0  0  0
    6.3517    4.1578    0.0000 O   0  0  0  0  0  0  0  0  0
    6.3517    3.3328    0.0000 C   0  0  0  0  0  0  0  0  0
    7.0662    2.9203    0.0000 C   0  0  0  0  0  0  0  0  0
    7.0662    2.0953    0.0000 C   0  0  0  0  0  0  0  0  0
    6.3517    1.6828    0.0000 C   0  0  0  0  0  0  0  0  0
    5.6372    2.0953    0.0000 C   0  0  0  0  0  0  0  0  0
    4.9227    1.6828    0.0000 C   0  0  0  0  0  0  0  0  0
    4.2083    2.0953    0.0000 O   0  0  0  0  0  0  0  0  0
    4.9227    0.8578    0.0000 C   0  0  0  0  0  0  0  0  0
    5.6372    0.4453    0.0000 C   0  0  0  0  0  0  0  0  0
    5.6372   -0.3797    0.0000 C   0  0  0  0  0  0  0  0  0
    4.9227   -0.7922    0.0000 N   0  0  0  0  0  0  0  0  0
    4.2083   -0.3797    0.0000 C   0  0  0  0  0  0  0  0  0
    4.2083    0.4453    0.0000 C   0  0  0  0  0  0  0  0  0
    4.9227   -1.6172    0.0000 C   0  0  0  0  0  0  0  0  0
    5.6372   -2.0297    0.0000 C   0  0  0  0  0  0  0  0  0
    5.6372   -2.8547    0.0000 C   0  0  0  0  0  0  0  0  0
    6.3517   -3.2672    0.0000 C   0  0  0  0  0  0  0  0  0
    6.3517   -4.0922    0.0000 C   0  0  0  0  0  0  0  0  0
    5.6372   -4.5047    0.0000 C   0  0  0  0  0  0  0  0  0
    4.9227   -4.0922    0.0000 C   0  0  0  0  0  0  0  0  0
    4.9227   -3.2672    0.0000 C   0  0  0  0  0  0  0  0  0
    5.6372   -5.3297    0.0000 C   0  0  0  0  0  0  0  0  0
    5.6372    2.9203    0.0000 C   0  0  0  0  0  0  0  0  0
    4.9227    3.3328    0.0000 O   0  0  0  0  0  0  0  0  0
    4.2083    2.9203    0.0000 C   0  0  0  0  0  0  0  0  0
  1  2  1  0  0  0  0
  2  3  1  0  0  0  0
  3  4  1  0  0  0  0
  4  5  1  0  0  0  0
  5  6  4  0  0  0  0
  5 27  4  0  0  0  0
  6  7  4  0  0  0  0
  7  8  4  0  0  0  0
  8  9  4  0  0  0  0
  9 10  1  0  0  0  0
  9 27  4  0  0  0  0
 10 11  2  0  0  0  0
 10 12  1  0  0  0  0
 12 13  1  0  0  0  0
 12 17  1  0  0  0  0
 13 14  1  0  0  0  0
 14 15  1  0  0  0  0
 15 16  1  0  0  0  0
 15 18  1  0  0  0  0
 16 17  1  0  0  0  0
 18 19  1  0  0  0  0
 19 20  1  0  0  0  0
 20 21  4  0  0  0  0
 20 25  4  0  0  0  0
 21 22  4  0  0  0  0
 22 23  4  0  0  0  0
 23 24  4  0  0  0  0
 23 26  1  0  0  0  0
 24 25  4  0  0  0  0
 27 28  1  0  0  0  0
 28 29  1  0  0  0  0
M  END
>  <Name_Molregno>
499028

>  <5-HT1A>
5.73

>  <5-HT1B>
5.47

>  <5-HT1E>
5

>  <5-HT2C>
6.3

>  <5-HT3>
5

>  <5-HT5>
5.77

>  <5-HT6>
5

>  <5-HT7>
6.14

>  <Alpha-2C>
6.81

>  <DOPAMINE D1>
5.71

>  <DOPAMINE D2>
5

>  <DOPAMINE D4>
6.03

>  <HISTAMINE H1>
6.18

>  <HISTAMINE H2>
6.08

>  <HISTAMINE H3>
5.04

>  <Serotonin transporter>
6

$$$$
513010
  Marvin  02231216192D 0   1.00000     0.00000     0

 22 24  0  0  1  0  0  0  0  0999 V2000
   -0.2296   -0.4433    0.0000 O   0  0  0  0  0  0  0  0  0
    0.5954   -0.4441    0.0000 C   0  0  0  0  0  0  0  0  0
    1.0086    0.2700    0.0000 O   0  0  0  0  0  0  0  0  0
    1.0072   -1.1590    0.0000 C   0  0  0  0  0  0  0  0  0
    1.8322   -1.1598    0.0000 C   0  0  0  0  0  0  0  0  0
    2.2440   -1.8747    0.0000 C   0  0  0  0  0  0  0  0  0
    1.8308   -2.5887    0.0000 C   0  0  0  0  0  0  0  0  0
    1.0058   -2.5879    0.0000 C   0  0  0  0  0  0  0  0  0
    0.5940   -1.8730    0.0000 C   0  0  0  0  0  0  0  0  0
   -0.6414    0.2716    0.0000 C   0  0  0  0  0  0  0  0  0
   -0.7796    1.0890    0.0000 C   0  0  0  0  0  0  0  0  0
   -1.7084    1.0735    0.0000 C   0  0  0  0  0  0  0  0  0
   -2.2690    1.5134    0.0000 N   0  0  0  0  0  0  0  0  0
   -2.1293    0.7003    0.0000 C   0  0  0  0  0  0  0  0  0
   -2.6492   -0.0120    0.0000 C   0  0  0  0  0  0  0  0  0
   -2.0289    0.3649    0.0000 C   0  0  0  0  0  0  0  0  0
   -1.1576    0.7003    0.0000 C   0  0  0  0  0  0  0  0  0
   -1.4378   -0.0757    0.0000 C   0  0  0  0  0  0  0  0  0
   -2.2499   -0.2210    0.0000 O   0  0  0  0  0  0  0  0  0
   -2.5301   -0.9969    0.0000 C   0  0  0  0  0  0  0  0  0
   -0.9059   -0.7063    0.0000 O   0  0  0  0  0  0  0  0  0
   -2.6916    2.2219    0.0000 C   0  0  0  0  0  0  0  0  0
  1  2  1  0  0  0  0
  1 10  1  0  0  0  0
  2  3  2  0  0  0  0
  2  4  1  0  0  0  0
  4  5  4  0  0  0  0
  4  9  4  0  0  0  0
  5  6  4  0  0  0  0
  6  7  4  0  0  0  0
  7  8  4  0  0  0  0
  8  9  4  0  0  0  0
 10 11  1  0  0  0  0
 10 17  1  0  0  0  0
 11 12  1  0  0  0  0
 12 13  1  0  0  0  0
 12 16  1  0  0  0  0
 13 14  1  0  0  0  0
 13 22  1  0  0  0  0
 14 15  1  0  0  0  0
 14 17  1  0  0  0  0
 15 16  1  0  0  0  0
 17 18  1  0  0  0  0
 18 19  1  0  0  0  0
 18 21  2  0  0  0  0
 19 20  1  0  0  0  0
M  END
>  <Name_Molregno>
513010

>  <5-HT1A>
5

>  <5-HT1B>
5.47

>  <5-HT1D>
5

>  <5-HT1E>
5

>  <5-HT3>
5.31

>  <5-HT5>
5

>  <5-HT6>
5

>  <5-HT7>
5

>  <Alpha-1A>
5.68

>  <Alpha-1B>
5

>  <Alpha-2A>
5

>  <Alpha-2C>
5

>  <Beta-1>
5

>  <Beta-2>
5

>  <DOPAMINE D1>
5

>  <DOPAMINE D2>
5

>  <DOPAMINE D4>
5

>  <DOPAMINE D5>
5

>  <Dopamine transporter>
6.67

>  <HISTAMINE H1>
5.67

>  <HISTAMINE H2>
5

>  <HISTAMINE H4>
5

>  <Muscarinic acetylcholine receptor M1>
5

>  <Muscarinic acetylcholine receptor M2>
5

>  <Muscarinic acetylcholine receptor M3>
5

>  <Muscarinic acetylcholine receptor M4>
5

>  <Muscarinic acetylcholine receptor M5>
5

>  <Norepinephrine transporter>
5.76

>  <Serotonin transporter>
6.68

$$$$
514509
  Marvin  02231216192D 0   1.00000     0.00000     0

 19 21  0  0  1  0  0  0  0  0999 V2000
   -2.0695   -2.0649    0.0000 O   0  0  0  0  0  0  0  0  0
   -1.3550   -1.6524    0.0000 C   0  0  0  0  0  0  0  0  0
   -0.6406   -2.0649    0.0000 C   0  0  0  0  0  0  0  0  0
    0.0739   -1.6524    0.0000 C   0  0  0  0  0  0  0  0  0
    0.0739   -0.8274    0.0000 C   0  0  0  0  0  0  0  0  0
   -0.6406   -0.4149    0.0000 C   0  0  0  0  0  0  0  0  0
   -1.3550   -0.8274    0.0000 C   0  0  0  0  0  0  0  0  0
   -2.0695   -0.4149    0.0000 O   0  0  0  0  0  0  0  0  0
    0.7189   -0.3131    0.0000 C   0  0  0  0  0  0  0  0  0
    1.5232   -0.4966    0.0000 C   0  0  0  0  0  0  0  0  0
    1.8812   -1.2399    0.0000 N   0  0  0  0  0  0  0  0  0
    1.5232   -1.9832    0.0000 C   0  0  0  0  0  0  0  0  0
    0.7189   -2.1668    0.0000 C   0  0  0  0  0  0  0  0  0
    0.5353   -2.9711    0.0000 C   0  0  0  0  0  0  0  0  0
    1.1401   -3.5323    0.0000 C   0  0  0  0  0  0  0  0  0
    0.9565   -4.3366    0.0000 C   0  0  0  0  0  0  0  0  0
    0.1682   -4.5798    0.0000 C   0  0  0  0  0  0  0  0  0
   -0.4366   -4.0186    0.0000 C   0  0  0  0  0  0  0  0  0
   -0.2530   -3.2143    0.0000 C   0  0  0  0  0  0  0  0  0
  1  2  1  0  0  0  0
  2  3  4  0  0  0  0
  2  7  4  0  0  0  0
  3  4  4  0  0  0  0
  4  5  4  0  0  0  0
  4 13  1  0  0  0  0
  5  6  4  0  0  0  0
  5  9  1  0  0  0  0
  6  7  4  0  0  0  0
  7  8  1  0  0  0  0
  9 10  1  0  0  0  0
 10 11  1  0  0  0  0
 11 12  1  0  0  0  0
 12 13  1  0  0  0  0
 13 14  1  0  0  0  0
 14 15  4  0  0  0  0
 14 19  4  0  0  0  0
 15 16  4  0  0  0  0
 16 17  4  0  0  0  0
 17 18  4  0  0  0  0
 18 19  4  0  0  0  0
M  END
>  <Name_Molregno>
514509

>  <5-HT1A>
5.51

>  <DOPAMINE D1>
6.88

>  <DOPAMINE D2>
5.11

>  <DOPAMINE D3>
5

>  <DOPAMINE D5>
7

>  <HISTAMINE H1>
5.6

$$$$
515852
  Marvin  02231216192D 0   1.00000     0.00000     0

 24 28  0  0  1  0  0  0  0  0999 V2000
    3.5696   -0.3324    0.0000 O   0  0  0  0  0  0  0  0  0
    3.9434   -1.0678    0.0000 C   0  0  0  0  0  0  0  0  0
    3.3594   -1.6506    0.0000 C   0  0  0  0  0  0  0  0  0
    2.6247   -1.2753    0.0000 C   0  0  0  0  0  0  0  0  0
    2.7546   -0.4606    0.0000 C   0  0  0  0  0  0  0  0  0
    2.1140    0.0593    0.0000 C   0  0  0  0  0  0  0  0  0
    1.3435   -0.2355    0.0000 C   0  0  0  0  0  0  0  0  0
    1.2136   -1.0502    0.0000 C   0  0  0  0  0  0  0  0  0
    1.8542   -1.5701    0.0000 C   0  0  0  0  0  0  0  0  0
    1.7243   -2.3848    0.0000 N   0  0  0  0  0  0  0  0  0
    0.9537   -2.6797    0.0000 C   0  0  0  0  0  0  0  0  0
    0.3131   -2.1598    0.0000 N   0  0  0  0  0  0  0  0  0
    0.4431   -1.3451    0.0000 C   0  0  0  0  0  0  0  0  0
   -0.1975   -0.8252    0.0000 N   0  0  0  0  0  0  0  0  0
   -0.9680   -1.1201    0.0000 C   0  0  0  0  0  0  0  0  0
   -1.6086   -0.6002    0.0000 C   0  0  0  0  0  0  0  0  0
   -1.4787    0.2145    0.0000 N   0  0  0  0  0  0  0  0  0
   -0.7082    0.5094    0.0000 C   0  0  0  0  0  0  0  0  0
   -0.0676   -0.0105    0.0000 C   0  0  0  0  0  0  0  0  0
    0.8238   -3.4944    0.0000 N   0  0  0  0  0  0  0  0  0
    3.5721   -2.4477    0.0000 C   0  0  0  0  0  0  0  0  0
    4.3687   -2.6621    0.0000 C   0  0  0  0  0  0  0  0  0
    4.9527   -2.0793    0.0000 C   0  0  0  0  0  0  0  0  0
    4.7400   -1.2822    0.0000 C   0  0  0  0  0  0  0  0  0
  1  2  1  0  0  0  0
  1  5  1  0  0  0  0
  2  3  1  0  0  0  0
  2 24  1  0  0  0  0
  3  4  1  0  0  0  0
  3 21  1  0  0  0  0
  4  5  2  0  0  0  0
  4  9  1  0  0  0  0
  5  6  1  0  0  0  0
  6  7  1  0  0  0  0
  7  8  1  0  0  0  0
  8  9  4  0  0  0  0
  8 13  4  0  0  0  0
  9 10  4  0  0  0  0
 10 11  4  0  0  0  0
 11 12  4  0  0  0  0
 11 20  1  0  0  0  0
 12 13  4  0  0  0  0
 13 14  1  0  0  0  0
 14 15  1  0  0  0  0
 14 19  1  0  0  0  0
 15 16  1  0  0  0  0
 16 17  1  0  0  0  0
 17 18  1  0  0  0  0
 18 19  1  0  0  0  0
 21 22  1  0  0  0  0
 22 23  1  0  0  0  0
 23 24  1  0  0  0  0
M  END
>  <Name_Molregno>
515852

>  <5-HT1A>
9.18

>  <5-HT1B>
7.74

>  <5-HT2A>
8.89

>  <5-HT2C>
8.41

>  <5-HT3>
8.18

>  <5-HT5>
6.96

>  <5-HT6>
7.03

>  <5-HT7>
9.66

>  <Beta-1>
6.37

>  <Beta-2>
9.3

>  <DOPAMINE D1>
9.42

>  <DOPAMINE D2>
8.54

>  <DOPAMINE D3>
8.85

>  <DOPAMINE D5>
9.32

>  <Dopamine transporter>
8.05

>  <HISTAMINE H1>
7.05

>  <HISTAMINE H2>
5.91

>  <HISTAMINE H3>
6.03

>  <HISTAMINE H4>
8.24

>  <Muscarinic acetylcholine receptor M1>
7.6

>  <Muscarinic acetylcholine receptor M2>
7.44

>  <Muscarinic acetylcholine receptor M3>
9.38

>  <Muscarinic acetylcholine receptor M4>
9.18

>  <Muscarinic acetylcholine receptor M5>
9.38

>  <Norepinephrine transporter>
8.17

>  <Serotonin transporter>
8.49

$$$$
518973
  Marvin  02231216192D 0   1.00000     0.00000     0

 39 43  0  0  0  0  0  0  0  0999 V2000
   -4.2205    3.1345    0.0000 O   0  0  0  0  0  0  0  0  0
   -4.9349    3.5470    0.0000 C   0  0  0  0  0  0  0  0  0
   -4.9349    4.3720    0.0000 C   0  0  0  0  0  0  0  0  0
   -5.6494    4.7845    0.0000 C   0  0  0  0  0  0  0  0  0
   -5.6494    5.6095    0.0000 N   0  0  0  0  0  0  0  0  0
   -6.3639    6.0220    0.0000 C   0  0  0  0  0  0  0  0  0
   -6.3639    6.8470    0.0000 C   0  0  0  0  0  0  0  0  0
   -5.6494    7.2595    0.0000 C   0  0  0  0  0  0  0  0  0
   -4.9349    6.8470    0.0000 C   0  0  0  0  0  0  0  0  0
   -4.9349    6.0220    0.0000 C   0  0  0  0  0  0  0  0  0
   -4.2205    2.3095    0.0000 C   0  0  0  0  0  0  0  0  0
   -3.5060    1.8970    0.0000 C   0  0  0  0  0  0  0  0  0
   -3.5060    1.0720    0.0000 C   0  0  0  0  0  0  0  0  0
   -4.2205    0.6595    0.0000 C   0  0  0  0  0  0  0  0  0
   -4.9349    1.0720    0.0000 C   0  0  0  0  0  0  0  0  0
   -4.9349    1.8970    0.0000 C   0  0  0  0  0  0  0  0  0
   -4.2205   -0.1655    0.0000 C   0  0  0  0  0  0  0  0  0
   -3.5060   -0.5780    0.0000 C   0  0  0  0  0  0  0  0  0
   -2.7915   -0.1655    0.0000 O   0  0  0  0  0  0  0  0  0
   -3.5060   -1.4030    0.0000 N   0  0  0  0  0  0  0  0  0
   -2.7915   -1.8155    0.0000 C   0  0  0  0  0  0  0  0  0
   -2.7915   -2.6405    0.0000 C   0  0  0  0  0  0  0  0  0
   -2.0770   -3.0530    0.0000 C   0  0  0  0  0  0  0  0  0
   -2.0770   -3.8780    0.0000 C   0  0  0  0  0  0  0  0  0
   -1.3337   -4.2359    0.0000 C   0  0  0  0  0  0  0  0  0
   -1.1502   -5.0403    0.0000 C   0  0  0  0  0  0  0  0  0
   -1.6645   -5.6853    0.0000 C   0  0  0  0  0  0  0  0  0
   -2.4895   -5.6853    0.0000 C   0  0  0  0  0  0  0  0  0
   -3.0039   -5.0403    0.0000 C   0  0  0  0  0  0  0  0  0
   -2.8203   -4.2359    0.0000 C   0  0  0  0  0  0  0  0  0
   -3.4251   -3.6748    0.0000 C   0  0  0  0  0  0  0  0  0
   -4.2135   -3.9180    0.0000 C   0  0  0  0  0  0  0  0  0
   -4.3970   -4.7223    0.0000 C   0  0  0  0  0  0  0  0  0
   -3.7923   -5.2834    0.0000 C   0  0  0  0  0  0  0  0  0
   -0.3618   -5.2834    0.0000 C   0  0  0  0  0  0  0  0  0
    0.2430   -4.7223    0.0000 C   0  0  0  0  0  0  0  0  0
    0.0594   -3.9180    0.0000 C   0  0  0  0  0  0  0  0  0
   -0.7290   -3.6748    0.0000 C   0  0  0  0  0  0  0  0  0
   -4.2205   -1.8155    0.0000 C   0  0  0  0  0  0  0  0  0
  1  2  1  0  0  0  0
  1 11  1  0  0  0  0
  2  3  1  0  0  0  0
  3  4  1  0  0  0  0
  4  5  1  0  0  0  0
  5  6  1  0  0  0  0
  5 10  1  0  0  0  0
  6  7  1  0  0  0  0
  7  8  1  0  0  0  0
  8  9  1  0  0  0  0
  9 10  1  0  0  0  0
 11 12  4  0  0  0  0
 11 16  4  0  0  0  0
 12 13  4  0  0  0  0
 13 14  4  0  0  0  0
 14 15  4  0  0  0  0
 14 17  1  0  0  0  0
 15 16  4  0  0  0  0
 17 18  1  0  0  0  0
 18 19  2  0  0  0  0
 18 20  1  0  0  0  0
 20 21  1  0  0  0  0
 20 39  1  0  0  0  0
 21 22  1  0  0  0  0
 22 23  1  0  0  0  0
 23 24  2  0  0  0  0
 24 25  1  0  0  0  0
 24 30  1  0  0  0  0
 25 26  4  0  0  0  0
 25 38  4  0  0  0  0
 26 27  1  0  0  0  0
 26 35  4  0  0  0  0
 27 28  1  0  0  0  0
 28 29  1  0  0  0  0
 29 30  4  0  0  0  0
 29 34  4  0  0  0  0
 30 31  4  0  0  0  0
 31 32  4  0  0  0  0
 32 33  4  0  0  0  0
 33 34  4  0  0  0  0
 35 36  4  0  0  0  0
 36 37  4  0  0  0  0
 37 38  4  0  0  0  0
M  END
>  <Name_Molregno>
518973

>  <DOPAMINE D1>
6.06

>  <DOPAMINE D2>
6.04

>  <DOPAMINE D3>
6.49

>  <DOPAMINE D5>
6

>  <HISTAMINE H1>
6.25

>  <HISTAMINE H3>
8.31

$$$$
519116
  Marvin  02231216192D 0   1.00000     0.00000     0

 38 42  0  0  0  0  0  0  0  0999 V2000
   -1.0754    0.9920    0.0000 O   0  0  0  0  0  0  0  0  0
   -1.0754    1.8170    0.0000 C   0  0  0  0  0  0  0  0  0
   -0.3609    2.2295    0.0000 C   0  0  0  0  0  0  0  0  0
   -0.3609    3.0545    0.0000 C   0  0  0  0  0  0  0  0  0
    0.3536    3.4670    0.0000 N   0  0  0  0  0  0  0  0  0
    0.3536    4.2920    0.0000 C   0  0  0  0  0  0  0  0  0
    1.0680    4.7045    0.0000 C   0  0  0  0  0  0  0  0  0
    1.7825    4.2920    0.0000 C   0  0  0  0  0  0  0  0  0
    1.7825    3.4670    0.0000 C   0  0  0  0  0  0  0  0  0
    1.0680    3.0545    0.0000 C   0  0  0  0  0  0  0  0  0
   -1.7898    0.5795    0.0000 C   0  0  0  0  0  0  0  0  0
   -1.7898   -0.2455    0.0000 C   0  0  0  0  0  0  0  0  0
   -2.5043   -0.6580    0.0000 C   0  0  0  0  0  0  0  0  0
   -3.2188   -0.2455    0.0000 C   0  0  0  0  0  0  0  0  0
   -3.2188    0.5795    0.0000 C   0  0  0  0  0  0  0  0  0
   -2.5043    0.9920    0.0000 C   0  0  0  0  0  0  0  0  0
   -3.9333   -0.6580    0.0000 C   0  0  0  0  0  0  0  0  0
   -3.9333   -1.4830    0.0000 O   0  0  0  0  0  0  0  0  0
   -4.6477   -0.2455    0.0000 N   0  0  0  0  0  0  0  0  0
   -5.3622   -0.6580    0.0000 C   0  0  0  0  0  0  0  0  0
   -5.3622   -1.4830    0.0000 C   0  0  0  0  0  0  0  0  0
   -4.6477   -1.8955    0.0000 C   0  0  0  0  0  0  0  0  0
   -4.6477   -2.7205    0.0000 C   0  0  0  0  0  0  0  0  0
   -3.9044   -3.0785    0.0000 C   0  0  0  0  0  0  0  0  0
   -3.7208   -3.8828    0.0000 C   0  0  0  0  0  0  0  0  0
   -4.2352   -4.5278    0.0000 C   0  0  0  0  0  0  0  0  0
   -5.0602   -4.5278    0.0000 C   0  0  0  0  0  0  0  0  0
   -5.5746   -3.8828    0.0000 C   0  0  0  0  0  0  0  0  0
   -5.3910   -3.0785    0.0000 C   0  0  0  0  0  0  0  0  0
   -5.9958   -2.5174    0.0000 C   0  0  0  0  0  0  0  0  0
   -6.7841   -2.7605    0.0000 C   0  0  0  0  0  0  0  0  0
   -6.9677   -3.5648    0.0000 C   0  0  0  0  0  0  0  0  0
   -6.3630   -4.1260    0.0000 C   0  0  0  0  0  0  0  0  0
   -2.9325   -4.1260    0.0000 C   0  0  0  0  0  0  0  0  0
   -2.3277   -3.5648    0.0000 C   0  0  0  0  0  0  0  0  0
   -2.5113   -2.7605    0.0000 C   0  0  0  0  0  0  0  0  0
   -3.2997   -2.5174    0.0000 C   0  0  0  0  0  0  0  0  0
   -4.6477    0.5795    0.0000 C   0  0  0  0  0  0  0  0  0
  1  2  1  0  0  0  0
  1 11  1  0  0  0  0
  2  3  1  0  0  0  0
  3  4  1  0  0  0  0
  4  5  1  0  0  0  0
  5  6  1  0  0  0  0
  5 10  1  0  0  0  0
  6  7  1  0  0  0  0
  7  8  1  0  0  0  0
  8  9  1  0  0  0  0
  9 10  1  0  0  0  0
 11 12  4  0  0  0  0
 11 16  4  0  0  0  0
 12 13  4  0  0  0  0
 13 14  4  0  0  0  0
 14 15  4  0  0  0  0
 14 17  1  0  0  0  0
 15 16  4  0  0  0  0
 17 18  2  0  0  0  0
 17 19  1  0  0  0  0
 19 20  1  0  0  0  0
 19 38  1  0  0  0  0
 20 21  1  0  0  0  0
 21 22  1  0  0  0  0
 22 23  2  0  0  0  0
 23 24  1  0  0  0  0
 23 29  1  0  0  0  0
 24 25  4  0  0  0  0
 24 37  4  0  0  0  0
 25 26  1  0  0  0  0
 25 34  4  0  0  0  0
 26 27  1  0  0  0  0
 27 28  1  0  0  0  0
 28 29  4  0  0  0  0
 28 33  4  0  0  0  0
 29 30  4  0  0  0  0
 30 31  4  0  0  0  0
 31 32  4  0  0  0  0
 32 33  4  0  0  0  0
 34 35  4  0  0  0  0
 35 36  4  0  0  0  0
 36 37  4  0  0  0  0
M  END
>  <Name_Molregno>
519116

>  <DOPAMINE D1>
6

>  <DOPAMINE D2>
6

>  <DOPAMINE D3>
6.61

>  <DOPAMINE D5>
6

>  <HISTAMINE H1>
6.16

>  <HISTAMINE H3>
8.46

$$$$
519117
  Marvin  02231216192D 0   1.00000     0.00000     0

 37 41  0  0  0  0  0  0  0  0999 V2000
   -1.1059    1.0162    0.0000 O   0  0  0  0  0  0  0  0  0
   -1.1059    1.8412    0.0000 C   0  0  0  0  0  0  0  0  0
   -0.3914    2.2537    0.0000 C   0  0  0  0  0  0  0  0  0
   -0.3914    3.0787    0.0000 C   0  0  0  0  0  0  0  0  0
    0.3230    3.4912    0.0000 N   0  0  0  0  0  0  0  0  0
    0.3230    4.3162    0.0000 C   0  0  0  0  0  0  0  0  0
    1.0375    4.7287    0.0000 C   0  0  0  0  0  0  0  0  0
    1.7520    4.3162    0.0000 C   0  0  0  0  0  0  0  0  0
    1.7520    3.4912    0.0000 C   0  0  0  0  0  0  0  0  0
    1.0375    3.0787    0.0000 C   0  0  0  0  0  0  0  0  0
   -1.8204    0.6037    0.0000 C   0  0  0  0  0  0  0  0  0
   -1.8204   -0.2213    0.0000 C   0  0  0  0  0  0  0  0  0
   -2.5349   -0.6338    0.0000 C   0  0  0  0  0  0  0  0  0
   -3.2493   -0.2213    0.0000 C   0  0  0  0  0  0  0  0  0
   -3.2493    0.6037    0.0000 C   0  0  0  0  0  0  0  0  0
   -2.5349    1.0162    0.0000 C   0  0  0  0  0  0  0  0  0
   -3.9638   -0.6338    0.0000 C   0  0  0  0  0  0  0  0  0
   -4.6783   -0.2213    0.0000 N   0  0  0  0  0  0  0  0  0
   -5.3927   -0.6338    0.0000 C   0  0  0  0  0  0  0  0  0
   -5.3927   -1.4588    0.0000 C   0  0  0  0  0  0  0  0  0
   -4.6783   -1.8713    0.0000 C   0  0  0  0  0  0  0  0  0
   -4.6783   -2.6963    0.0000 C   0  0  0  0  0  0  0  0  0
   -3.9350   -3.0543    0.0000 C   0  0  0  0  0  0  0  0  0
   -3.7514   -3.8586    0.0000 C   0  0  0  0  0  0  0  0  0
   -4.2658   -4.5036    0.0000 C   0  0  0  0  0  0  0  0  0
   -5.0908   -4.5036    0.0000 C   0  0  0  0  0  0  0  0  0
   -5.6051   -3.8586    0.0000 C   0  0  0  0  0  0  0  0  0
   -5.4216   -3.0543    0.0000 C   0  0  0  0  0  0  0  0  0
   -6.0263   -2.4932    0.0000 C   0  0  0  0  0  0  0  0  0
   -6.8147   -2.7363    0.0000 C   0  0  0  0  0  0  0  0  0
   -6.9983   -3.5406    0.0000 C   0  0  0  0  0  0  0  0  0
   -6.3935   -4.1018    0.0000 C   0  0  0  0  0  0  0  0  0
   -2.9630   -4.1018    0.0000 C   0  0  0  0  0  0  0  0  0
   -2.3583   -3.5406    0.0000 C   0  0  0  0  0  0  0  0  0
   -2.5418   -2.7363    0.0000 C   0  0  0  0  0  0  0  0  0
   -3.3302   -2.4932    0.0000 C   0  0  0  0  0  0  0  0  0
   -4.6783    0.6037    0.0000 C   0  0  0  0  0  0  0  0  0
  1  2  1  0  0  0  0
  1 11  1  0  0  0  0
  2  3  1  0  0  0  0
  3  4  1  0  0  0  0
  4  5  1  0  0  0  0
  5  6  1  0  0  0  0
  5 10  1  0  0  0  0
  6  7  1  0  0  0  0
  7  8  1  0  0  0  0
  8  9  1  0  0  0  0
  9 10  1  0  0  0  0
 11 12  4  0  0  0  0
 11 16  4  0  0  0  0
 12 13  4  0  0  0  0
 13 14  4  0  0  0  0
 14 15  4  0  0  0  0
 14 17  1  0  0  0  0
 15 16  4  0  0  0  0
 17 18  1  0  0  0  0
 18 19  1  0  0  0  0
 18 37  1  0  0  0  0
 19 20  1  0  0  0  0
 20 21  1  0  0  0  0
 21 22  2  0  0  0  0
 22 23  1  0  0  0  0
 22 28  1  0  0  0  0
 23 24  4  0  0  0  0
 23 36  4  0  0  0  0
 24 25  1  0  0  0  0
 24 33  4  0  0  0  0
 25 26  1  0  0  0  0
 26 27  1  0  0  0  0
 27 28  4  0  0  0  0
 27 32  4  0  0  0  0
 28 29  4  0  0  0  0
 29 30  4  0  0  0  0
 30 31  4  0  0  0  0
 31 32  4  0  0  0  0
 33 34  4  0  0  0  0
 34 35  4  0  0  0  0
 35 36  4  0  0  0  0
M  END
>  <Name_Molregno>
519117

>  <DOPAMINE D1>
6.52

>  <DOPAMINE D2>
7

>  <DOPAMINE D3>
7.17

>  <DOPAMINE D5>
6.56

>  <HISTAMINE H1>
7.1

>  <HISTAMINE H3>
9.57

$$$$
519118
  Marvin  02231216192D 0   1.00000     0.00000     0

 38 43  0  0  0  0  0  0  0  0999 V2000
   -1.1994   -3.5598    0.0000 O   0  0  0  0  0  0  0  0  0
   -0.4829   -3.1509    0.0000 C   0  0  0  0  0  0  0  0  0
    0.2295   -3.5669    0.0000 C   0  0  0  0  0  0  0  0  0
    0.9460   -3.1579    0.0000 C   0  0  0  0  0  0  0  0  0
    1.6584   -3.5740    0.0000 N   0  0  0  0  0  0  0  0  0
    2.3749   -3.1650    0.0000 C   0  0  0  0  0  0  0  0  0
    3.0873   -3.5810    0.0000 C   0  0  0  0  0  0  0  0  0
    3.0833   -4.4060    0.0000 C   0  0  0  0  0  0  0  0  0
    2.3668   -4.8150    0.0000 C   0  0  0  0  0  0  0  0  0
    1.6543   -4.3990    0.0000 C   0  0  0  0  0  0  0  0  0
   -1.9119   -3.1438    0.0000 C   0  0  0  0  0  0  0  0  0
   -2.6284   -3.5528    0.0000 C   0  0  0  0  0  0  0  0  0
   -3.3408   -3.1368    0.0000 C   0  0  0  0  0  0  0  0  0
   -3.3367   -2.3118    0.0000 C   0  0  0  0  0  0  0  0  0
   -2.6202   -1.9028    0.0000 C   0  0  0  0  0  0  0  0  0
   -1.9078   -2.3188    0.0000 C   0  0  0  0  0  0  0  0  0
   -4.0491   -1.8958    0.0000 C   0  0  0  0  0  0  0  0  0
   -4.0451   -1.0708    0.0000 N   0  0  0  0  0  0  0  0  0
   -4.7575   -0.6547    0.0000 C   0  0  0  0  0  0  0  0  0
   -4.7534    0.1702    0.0000 C   0  0  0  0  0  0  0  0  0
   -5.4658    0.5863    0.0000 C   0  0  0  0  0  0  0  0  0
   -5.4618    1.4113    0.0000 C   0  0  0  0  0  0  0  0  0
   -5.3221    2.4499    0.0000 C   0  0  0  0  0  0  0  0  0
   -5.5668    3.0558    0.0000 C   0  0  0  0  0  0  0  0  0
   -5.6045    2.1597    0.0000 C   0  0  0  0  0  0  0  0  0
   -4.8659    1.8274    0.0000 C   0  0  0  0  0  0  0  0  0
   -4.7041    1.0184    0.0000 C   0  0  0  0  0  0  0  0  0
   -3.9226    0.7540    0.0000 C   0  0  0  0  0  0  0  0  0
   -3.3029    1.2986    0.0000 C   0  0  0  0  0  0  0  0  0
   -3.4647    2.1076    0.0000 C   0  0  0  0  0  0  0  0  0
   -4.2462    2.3720    0.0000 C   0  0  0  0  0  0  0  0  0
   -6.4083    1.8078    0.0000 C   0  0  0  0  0  0  0  0  0
   -6.2923    0.9909    0.0000 C   0  0  0  0  0  0  0  0  0
   -6.9418    0.4822    0.0000 C   0  0  0  0  0  0  0  0  0
   -7.7071    0.7902    0.0000 C   0  0  0  0  0  0  0  0  0
   -7.8230    1.6070    0.0000 C   0  0  0  0  0  0  0  0  0
   -7.1736    2.1158    0.0000 C   0  0  0  0  0  0  0  0  0
   -3.3286   -0.6618    0.0000 C   0  0  0  0  0  0  0  0  0
  1  2  1  0  0  0  0
  1 11  1  0  0  0  0
  2  3  1  0  0  0  0
  3  4  1  0  0  0  0
  4  5  1  0  0  0  0
  5  6  1  0  0  0  0
  5 10  1  0  0  0  0
  6  7  1  0  0  0  0
  7  8  1  0  0  0  0
  8  9  1  0  0  0  0
  9 10  1  0  0  0  0
 11 12  4  0  0  0  0
 11 16  4  0  0  0  0
 12 13  4  0  0  0  0
 13 14  4  0  0  0  0
 14 15  4  0  0  0  0
 14 17  1  0  0  0  0
 15 16  4  0  0  0  0
 17 18  1  0  0  0  0
 18 19  1  0  0  0  0
 18 38  1  0  0  0  0
 19 20  1  0  0  0  0
 20 21  1  0  0  0  0
 21 22  1  0  0  0  0
 22 23  1  0  0  0  0
 22 27  1  0  0  0  0
 22 33  1  0  0  0  0
 23 24  1  0  0  0  0
 24 25  1  0  0  0  0
 25 26  1  0  0  0  0
 25 32  1  0  0  0  0
 26 27  4  0  0  0  0
 26 31  4  0  0  0  0
 27 28  4  0  0  0  0
 28 29  4  0  0  0  0
 29 30  4  0  0  0  0
 30 31  4  0  0  0  0
 32 33  4  0  0  0  0
 32 37  4  0  0  0  0
 33 34  4  0  0  0  0
 34 35  4  0  0  0  0
 35 36  4  0  0  0  0
 36 37  4  0  0  0  0
M  END
>  <Name_Molregno>
519118

>  <DOPAMINE D1>
6.69

>  <DOPAMINE D2>
6.84

>  <DOPAMINE D3>
6.83

>  <DOPAMINE D5>
6.58

>  <HISTAMINE H1>
7.4

>  <HISTAMINE H3>
9.45

$$$$
519173
  Marvin  02231216192D 0   1.00000     0.00000     0

 37 41  0  0  0  0  0  0  0  0999 V2000
    4.8594    1.8159    0.0000 Cl  0  0  0  0  0  0  0  0  0
    5.5739    2.2284    0.0000 C   0  0  0  0  0  0  0  0  0
    6.2884    1.8159    0.0000 C   0  0  0  0  0  0  0  0  0
    7.0029    2.2284    0.0000 C   0  0  0  0  0  0  0  0  0
    7.7173    1.8159    0.0000 N   0  0  0  0  0  0  0  0  0
    8.4318    2.2284    0.0000 C   0  0  0  0  0  0  0  0  0
    8.4318    3.0534    0.0000 C   0  0  0  0  0  0  0  0  0
    7.7173    3.4659    0.0000 S   0  0  0  0  0  0  0  0  0
    7.0029    3.0534    0.0000 C   0  0  0  0  0  0  0  0  0
    6.2884    3.4659    0.0000 C   0  0  0  0  0  0  0  0  0
    5.5739    3.0534    0.0000 C   0  0  0  0  0  0  0  0  0
    9.1463    3.4659    0.0000 C   0  0  0  0  0  0  0  0  0
    9.8607    3.0534    0.0000 C   0  0  0  0  0  0  0  0  0
    9.8607    2.2284    0.0000 C   0  0  0  0  0  0  0  0  0
    9.1463    1.8159    0.0000 C   0  0  0  0  0  0  0  0  0
    7.7173    0.9909    0.0000 C   0  0  0  0  0  0  0  0  0
    7.0029    0.5784    0.0000 C   0  0  0  0  0  0  0  0  0
    7.0029   -0.2466    0.0000 C   0  0  0  0  0  0  0  0  0
    6.2884   -0.6591    0.0000 N   0  0  0  0  0  0  0  0  0
    6.2884   -1.4841    0.0000 C   0  0  0  0  0  0  0  0  0
    5.5739   -1.8966    0.0000 C   0  0  0  0  0  0  0  0  0
    5.5739   -2.7216    0.0000 C   0  0  0  0  0  0  0  0  0
    4.8594   -3.1341    0.0000 C   0  0  0  0  0  0  0  0  0
    4.1450   -2.7216    0.0000 C   0  0  0  0  0  0  0  0  0
    3.4305   -3.1341    0.0000 O   0  0  0  0  0  0  0  0  0
    3.4305   -3.9591    0.0000 C   0  0  0  0  0  0  0  0  0
    2.7160   -4.3716    0.0000 C   0  0  0  0  0  0  0  0  0
    2.7160   -5.1966    0.0000 C   0  0  0  0  0  0  0  0  0
    2.0016   -5.6091    0.0000 N   0  0  0  0  0  0  0  0  0
    2.0016   -6.4341    0.0000 C   0  0  0  0  0  0  0  0  0
    1.2871   -6.8466    0.0000 C   0  0  0  0  0  0  0  0  0
    0.5726   -6.4341    0.0000 C   0  0  0  0  0  0  0  0  0
    0.5726   -5.6091    0.0000 C   0  0  0  0  0  0  0  0  0
    1.2871   -5.1966    0.0000 C   0  0  0  0  0  0  0  0  0
    4.1450   -1.8966    0.0000 C   0  0  0  0  0  0  0  0  0
    4.8594   -1.4841    0.0000 C   0  0  0  0  0  0  0  0  0
    5.5739   -0.2466    0.0000 C   0  0  0  0  0  0  0  0  0
  1  2  1  0  0  0  0
  2  3  4  0  0  0  0
  2 11  4  0  0  0  0
  3  4  4  0  0  0  0
  4  5  1  0  0  0  0
  4  9  4  0  0  0  0
  5  6  1  0  0  0  0
  5 16  1  0  0  0  0
  6  7  4  0  0  0  0
  6 15  4  0  0  0  0
  7  8  1  0  0  0  0
  7 12  4  0  0  0  0
  8  9  1  0  0  0  0
  9 10  4  0  0  0  0
 10 11  4  0  0  0  0
 12 13  4  0  0  0  0
 13 14  4  0  0  0  0
 14 15  4  0  0  0  0
 16 17  1  0  0  0  0
 17 18  1  0  0  0  0
 18 19  1  0  0  0  0
 19 20  1  0  0  0  0
 19 37  1  0  0  0  0
 20 21  1  0  0  0  0
 21 22  4  0  0  0  0
 21 36  4  0  0  0  0
 22 23  4  0  0  0  0
 23 24  4  0  0  0  0
 24 25  1  0  0  0  0
 24 35  4  0  0  0  0
 25 26  1  0  0  0  0
 26 27  1  0  0  0  0
 27 28  1  0  0  0  0
 28 29  1  0  0  0  0
 29 30  1  0  0  0  0
 29 34  1  0  0  0  0
 30 31  1  0  0  0  0
 31 32  1  0  0  0  0
 32 33  1  0  0  0  0
 33 34  1  0  0  0  0
 35 36  4  0  0  0  0
M  END
>  <Name_Molregno>
519173

>  <DOPAMINE D1>
6.63

>  <DOPAMINE D2>
7.39

>  <DOPAMINE D3>
7.3

>  <DOPAMINE D5>
6.82

>  <HISTAMINE H1>
6.69

>  <HISTAMINE H3>
8.92

$$$$
519174
  Marvin  02231216192D 0   1.00000     0.00000     0

 37 41  0  0  0  0  0  0  0  0999 V2000
   -0.4896    2.3975    0.0000 Cl  0  0  0  0  0  0  0  0  0
   -1.2040    2.8100    0.0000 C   0  0  0  0  0  0  0  0  0
   -1.9185    2.3975    0.0000 C   0  0  0  0  0  0  0  0  0
   -2.6330    2.8100    0.0000 C   0  0  0  0  0  0  0  0  0
   -2.6330    3.6350    0.0000 C   0  0  0  0  0  0  0  0  0
   -3.3475    4.0475    0.0000 S   0  0  0  0  0  0  0  0  0
   -4.0619    3.6350    0.0000 C   0  0  0  0  0  0  0  0  0
   -4.0619    2.8100    0.0000 C   0  0  0  0  0  0  0  0  0
   -4.7764    2.3975    0.0000 C   0  0  0  0  0  0  0  0  0
   -5.4909    2.8100    0.0000 C   0  0  0  0  0  0  0  0  0
   -5.4909    3.6350    0.0000 C   0  0  0  0  0  0  0  0  0
   -4.7764    4.0475    0.0000 C   0  0  0  0  0  0  0  0  0
   -3.3475    2.3975    0.0000 C   0  0  0  0  0  0  0  0  0
   -3.3475    1.5725    0.0000 C   0  0  0  0  0  0  0  0  0
   -4.0619    1.1600    0.0000 C   0  0  0  0  0  0  0  0  0
   -4.0619    0.3350    0.0000 C   0  0  0  0  0  0  0  0  0
   -4.7764   -0.0775    0.0000 N   0  0  0  0  0  0  0  0  0
   -4.7764   -0.9025    0.0000 C   0  0  0  0  0  0  0  0  0
   -5.4909   -1.3150    0.0000 C   0  0  0  0  0  0  0  0  0
   -5.4909   -2.1400    0.0000 C   0  0  0  0  0  0  0  0  0
   -6.2053   -2.5525    0.0000 C   0  0  0  0  0  0  0  0  0
   -6.9198   -2.1400    0.0000 C   0  0  0  0  0  0  0  0  0
   -7.6343   -2.5525    0.0000 O   0  0  0  0  0  0  0  0  0
   -7.6343   -3.3775    0.0000 C   0  0  0  0  0  0  0  0  0
   -8.3488   -3.7900    0.0000 C   0  0  0  0  0  0  0  0  0
   -8.3488   -4.6150    0.0000 C   0  0  0  0  0  0  0  0  0
   -9.0632   -5.0275    0.0000 N   0  0  0  0  0  0  0  0  0
   -9.0632   -5.8525    0.0000 C   0  0  0  0  0  0  0  0  0
   -9.7777   -6.2650    0.0000 C   0  0  0  0  0  0  0  0  0
  -10.4922   -5.8525    0.0000 C   0  0  0  0  0  0  0  0  0
  -10.4922   -5.0275    0.0000 C   0  0  0  0  0  0  0  0  0
   -9.7777   -4.6150    0.0000 C   0  0  0  0  0  0  0  0  0
   -6.9198   -1.3150    0.0000 C   0  0  0  0  0  0  0  0  0
   -6.2053   -0.9025    0.0000 C   0  0  0  0  0  0  0  0  0
   -5.4909    0.3350    0.0000 C   0  0  0  0  0  0  0  0  0
   -1.9185    4.0475    0.0000 C   0  0  0  0  0  0  0  0  0
   -1.2040    3.6350    0.0000 C   0  0  0  0  0  0  0  0  0
  1  2  1  0  0  0  0
  2  3  4  0  0  0  0
  2 37  4  0  0  0  0
  3  4  4  0  0  0  0
  4  5  4  0  0  0  0
  4 13  1  0  0  0  0
  5  6  1  0  0  0  0
  5 36  4  0  0  0  0
  6  7  1  0  0  0  0
  7  8  4  0  0  0  0
  7 12  4  0  0  0  0
  8  9  4  0  0  0  0
  8 13  1  0  0  0  0
  9 10  4  0  0  0  0
 10 11  4  0  0  0  0
 11 12  4  0  0  0  0
 13 14  2  0  0  0  0
 14 15  1  0  0  0  0
 15 16  1  0  0  0  0
 16 17  1  0  0  0  0
 17 18  1  0  0  0  0
 17 35  1  0  0  0  0
 18 19  1  0  0  0  0
 19 20  4  0  0  0  0
 19 34  4  0  0  0  0
 20 21  4  0  0  0  0
 21 22  4  0  0  0  0
 22 23  1  0  0  0  0
 22 33  4  0  0  0  0
 23 24  1  0  0  0  0
 24 25  1  0  0  0  0
 25 26  1  0  0  0  0
 26 27  1  0  0  0  0
 27 28  1  0  0  0  0
 27 32  1  0  0  0  0
 28 29  1  0  0  0  0
 29 30  1  0  0  0  0
 30 31  1  0  0  0  0
 31 32  1  0  0  0  0
 33 34  4  0  0  0  0
 36 37  4  0  0  0  0
M  END
>  <Name_Molregno>
519174

>  <DOPAMINE D1>
6.61

>  <DOPAMINE D2>
7.28

>  <DOPAMINE D3>
7.3

>  <DOPAMINE D5>
6.53

>  <HISTAMINE H1>
6.53

>  <HISTAMINE H3>
8.81

$$$$
519223
  Marvin  02231216192D 0   1.00000     0.00000     0

 39 44  0  0  0  0  0  0  0  0999 V2000
   -1.5718   -4.2946    0.0000 Cl  0  0  0  0  0  0  0  0  0
   -0.7834   -4.5378    0.0000 C   0  0  0  0  0  0  0  0  0
   -0.1787   -3.9766    0.0000 C   0  0  0  0  0  0  0  0  0
    0.6097   -4.2198    0.0000 C   0  0  0  0  0  0  0  0  0
    1.1241   -3.5748    0.0000 N   0  0  0  0  0  0  0  0  0
    1.9491   -3.5748    0.0000 C   0  0  0  0  0  0  0  0  0
    2.3070   -2.8315    0.0000 N   0  0  0  0  0  0  0  0  0
    1.8423   -2.1499    0.0000 C   0  0  0  0  0  0  0  0  0
    2.2002   -1.4066    0.0000 C   0  0  0  0  0  0  0  0  0
    3.0229   -1.3449    0.0000 N   0  0  0  0  0  0  0  0  0
    3.4877   -2.0265    0.0000 C   0  0  0  0  0  0  0  0  0
    3.1297   -2.7698    0.0000 C   0  0  0  0  0  0  0  0  0
    3.3809   -0.6016    0.0000 C   0  0  0  0  0  0  0  0  0
    4.2036   -0.5399    0.0000 C   0  0  0  0  0  0  0  0  0
    4.5615    0.2034    0.0000 C   0  0  0  0  0  0  0  0  0
    5.3842    0.2650    0.0000 C   0  0  0  0  0  0  0  0  0
    5.8490   -0.4166    0.0000 C   0  0  0  0  0  0  0  0  0
    6.6717   -0.3550    0.0000 O   0  0  0  0  0  0  0  0  0
    7.0296    0.3883    0.0000 C   0  0  0  0  0  0  0  0  0
    7.8523    0.4500    0.0000 C   0  0  0  0  0  0  0  0  0
    8.2103    1.1933    0.0000 C   0  0  0  0  0  0  0  0  0
    9.0329    1.2549    0.0000 N   0  0  0  0  0  0  0  0  0
    9.3909    1.9982    0.0000 C   0  0  0  0  0  0  0  0  0
   10.2136    2.0599    0.0000 C   0  0  0  0  0  0  0  0  0
   10.6783    1.3782    0.0000 C   0  0  0  0  0  0  0  0  0
   10.3204    0.6349    0.0000 C   0  0  0  0  0  0  0  0  0
    9.4977    0.5733    0.0000 C   0  0  0  0  0  0  0  0  0
    5.4910   -1.1599    0.0000 C   0  0  0  0  0  0  0  0  0
    4.6683   -1.2216    0.0000 C   0  0  0  0  0  0  0  0  0
    2.4634   -4.2198    0.0000 C   0  0  0  0  0  0  0  0  0
    2.2799   -5.0241    0.0000 C   0  0  0  0  0  0  0  0  0
    1.5366   -5.3821    0.0000 N   0  0  0  0  0  0  0  0  0
    0.7933   -5.0241    0.0000 C   0  0  0  0  0  0  0  0  0
    0.1885   -5.5853    0.0000 C   0  0  0  0  0  0  0  0  0
   -0.5998   -5.3421    0.0000 C   0  0  0  0  0  0  0  0  0
    2.8846   -5.5853    0.0000 C   0  0  0  0  0  0  0  0  0
    3.6730   -5.3421    0.0000 C   0  0  0  0  0  0  0  0  0
    3.8566   -4.5378    0.0000 C   0  0  0  0  0  0  0  0  0
    3.2518   -3.9766    0.0000 C   0  0  0  0  0  0  0  0  0
  1  2  1  0  0  0  0
  2  3  4  0  0  0  0
  2 35  4  0  0  0  0
  3  4  4  0  0  0  0
  4  5  1  0  0  0  0
  4 33  4  0  0  0  0
  5  6  2  0  0  0  0
  6  7  1  0  0  0  0
  6 30  1  0  0  0  0
  7  8  1  0  0  0  0
  7 12  1  0  0  0  0
  8  9  1  0  0  0  0
  9 10  1  0  0  0  0
 10 11  1  0  0  0  0
 10 13  1  0  0  0  0
 11 12  1  0  0  0  0
 13 14  1  0  0  0  0
 14 15  4  0  0  0  0
 14 29  4  0  0  0  0
 15 16  4  0  0  0  0
 16 17  4  0  0  0  0
 17 18  1  0  0  0  0
 17 28  4  0  0  0  0
 18 19  1  0  0  0  0
 19 20  1  0  0  0  0
 20 21  1  0  0  0  0
 21 22  1  0  0  0  0
 22 23  1  0  0  0  0
 22 27  1  0  0  0  0
 23 24  1  0  0  0  0
 24 25  1  0  0  0  0
 25 26  1  0  0  0  0
 26 27  1  0  0  0  0
 28 29  4  0  0  0  0
 30 31  4  0  0  0  0
 30 39  4  0  0  0  0
 31 32  1  0  0  0  0
 31 36  4  0  0  0  0
 32 33  1  0  0  0  0
 33 34  4  0  0  0  0
 34 35  4  0  0  0  0
 36 37  4  0  0  0  0
 37 38  4  0  0  0  0
 38 39  4  0  0  0  0
M  END
>  <Name_Molregno>
519223

>  <DOPAMINE D1>
6.06

>  <DOPAMINE D2>
6.55

>  <DOPAMINE D3>
6.65

>  <DOPAMINE D5>
6.04

>  <HISTAMINE H1>
6.72

>  <HISTAMINE H3>
8.49

$$$$
519224
  Marvin  02231216192D 0   1.00000     0.00000     0

 48 53  0  0  0  0  0  0  0  0999 V2000
    8.7754   -5.1467    0.0000 S   0  0  0  0  0  0  0  0  0
    9.4898   -4.7342    0.0000 C   0  0  0  0  0  0  0  0  0
    9.4898   -3.9092    0.0000 C   0  0  0  0  0  0  0  0  0
    8.7754   -3.4967    0.0000 N   0  0  0  0  0  0  0  0  0
    8.0609   -3.9092    0.0000 C   0  0  0  0  0  0  0  0  0
    8.0609   -4.7342    0.0000 C   0  0  0  0  0  0  0  0  0
    7.3464   -5.1467    0.0000 C   0  0  0  0  0  0  0  0  0
    6.6319   -4.7342    0.0000 C   0  0  0  0  0  0  0  0  0
    6.6319   -3.9092    0.0000 C   0  0  0  0  0  0  0  0  0
    7.3464   -3.4967    0.0000 C   0  0  0  0  0  0  0  0  0
    8.7754   -2.6717    0.0000 C   0  0  0  0  0  0  0  0  0
    8.0609   -2.2592    0.0000 C   0  0  0  0  0  0  0  0  0
    8.0609   -1.4342    0.0000 C   0  0  0  0  0  0  0  0  0
    7.3464   -1.0217    0.0000 N   0  0  0  0  0  0  0  0  0
    6.6319   -1.4342    0.0000 C   0  0  0  0  0  0  0  0  0
    5.9175   -1.0217    0.0000 C   0  0  0  0  0  0  0  0  0
    5.9175   -0.1967    0.0000 N   0  0  0  0  0  0  0  0  0
    6.6319    0.2158    0.0000 C   0  0  0  0  0  0  0  0  0
    7.3464   -0.1967    0.0000 C   0  0  0  0  0  0  0  0  0
    5.2030    0.2158    0.0000 C   0  0  0  0  0  0  0  0  0
    5.2030    1.0408    0.0000 C   0  0  0  0  0  0  0  0  0
    4.4885    1.4533    0.0000 O   0  0  0  0  0  0  0  0  0
    4.4885    2.2783    0.0000 C   0  0  0  0  0  0  0  0  0
    5.2030    2.6908    0.0000 O   0  0  0  0  0  0  0  0  0
    3.7741    2.6908    0.0000 C   0  0  0  0  0  0  0  0  0
    3.0596    2.2783    0.0000 C   0  0  0  0  0  0  0  0  0
    2.3451    2.6908    0.0000 C   0  0  0  0  0  0  0  0  0
    2.3451    3.5158    0.0000 C   0  0  0  0  0  0  0  0  0
    1.6307    3.9283    0.0000 O   0  0  0  0  0  0  0  0  0
    1.6307    4.7533    0.0000 C   0  0  0  0  0  0  0  0  0
    0.9162    5.1658    0.0000 C   0  0  0  0  0  0  0  0  0
    0.9162    5.9908    0.0000 C   0  0  0  0  0  0  0  0  0
    0.2017    6.4033    0.0000 N   0  0  0  0  0  0  0  0  0
   -0.5128    5.9908    0.0000 C   0  0  0  0  0  0  0  0  0
   -1.2272    6.4033    0.0000 C   0  0  0  0  0  0  0  0  0
   -1.2272    7.2283    0.0000 C   0  0  0  0  0  0  0  0  0
   -0.5128    7.6408    0.0000 C   0  0  0  0  0  0  0  0  0
    0.2017    7.2283    0.0000 C   0  0  0  0  0  0  0  0  0
    3.0596    3.9283    0.0000 C   0  0  0  0  0  0  0  0  0
    3.7741    3.5158    0.0000 C   0  0  0  0  0  0  0  0  0
   10.2043   -3.4967    0.0000 C   0  0  0  0  0  0  0  0  0
   10.9188   -3.9092    0.0000 C   0  0  0  0  0  0  0  0  0
   10.9188   -4.7342    0.0000 C   0  0  0  0  0  0  0  0  0
   10.2043   -5.1467    0.0000 C   0  0  0  0  0  0  0  0  0
   11.6332   -3.4967    0.0000 C   0  0  0  0  0  0  0  0  0
   12.3477   -3.0842    0.0000 F   0  0  0  0  0  0  0  0  0
   12.0457   -4.2112    0.0000 F   0  0  0  0  0  0  0  0  0
   11.2207   -2.7822    0.0000 F   0  0  0  0  0  0  0  0  0
  1  2  1  0  0  0  0
  1  6  1  0  0  0  0
  2  3  4  0  0  0  0
  2 44  4  0  0  0  0
  3  4  1  0  0  0  0
  3 41  4  0  0  0  0
  4  5  1  0  0  0  0
  4 11  1  0  0  0  0
  5  6  4  0  0  0  0
  5 10  4  0  0  0  0
  6  7  4  0  0  0  0
  7  8  4  0  0  0  0
  8  9  4  0  0  0  0
  9 10  4  0  0  0  0
 11 12  1  0  0  0  0
 12 13  1  0  0  0  0
 13 14  1  0  0  0  0
 14 15  1  0  0  0  0
 14 19  1  0  0  0  0
 15 16  1  0  0  0  0
 16 17  1  0  0  0  0
 17 18  1  0  0  0  0
 17 20  1  0  0  0  0
 18 19  1  0  0  0  0
 20 21  1  0  0  0  0
 21 22  1  0  0  0  0
 22 23  1  0  0  0  0
 23 24  2  0  0  0  0
 23 25  1  0  0  0  0
 25 26  4  0  0  0  0
 25 40  4  0  0  0  0
 26 27  4  0  0  0  0
 27 28  4  0  0  0  0
 28 29  1  0  0  0  0
 28 39  4  0  0  0  0
 29 30  1  0  0  0  0
 30 31  1  0  0  0  0
 31 32  1  0  0  0  0
 32 33  1  0  0  0  0
 33 34  1  0  0  0  0
 33 38  1  0  0  0  0
 34 35  1  0  0  0  0
 35 36  1  0  0  0  0
 36 37  1  0  0  0  0
 37 38  1  0  0  0  0
 39 40  4  0  0  0  0
 41 42  4  0  0  0  0
 42 43  4  0  0  0  0
 42 45  1  0  0  0  0
 43 44  4  0  0  0  0
 45 46  1  0  0  0  0
 45 47  1  0  0  0  0
 45 48  1  0  0  0  0
M  END
>  <Name_Molregno>
519224

>  <DOPAMINE D1>
6.69

>  <DOPAMINE D2>
7.33

>  <DOPAMINE D3>
7.82

>  <DOPAMINE D5>
6.58

>  <HISTAMINE H1>
6.41

>  <HISTAMINE H3>
10.38

$$$$
549520
  Marvin  02231216192D 0   1.00000     0.00000     0

  8  8  0  0  0  0  0  0  0  0999 V2000
    0.8354   -1.4766    0.0000 N   0  0  0  0  0  0  0  0  0
    0.5805   -0.6920    0.0000 C   0  0  0  0  0  0  0  0  0
    1.2479   -0.2071    0.0000 C   0  0  0  0  0  0  0  0  0
    1.9154   -0.6920    0.0000 N   0  0  0  0  0  0  0  0  0
    1.6604   -1.4766    0.0000 C   0  0  0  0  0  0  0  0  0
    1.2479    0.6179    0.0000 C   0  0  0  0  0  0  0  0  0
    1.9624    1.0304    0.0000 C   0  0  0  0  0  0  0  0  0
    1.9624    1.8554    0.0000 N   0  0  0  0  0  0  0  0  0
  1  2  4  0  0  0  0
  1  5  4  0  0  0  0
  2  3  4  0  0  0  0
  3  4  4  0  0  0  0
  3  6  1  0  0  0  0
  4  5  4  0  0  0  0
  6  7  1  0  0  0  0
  7  8  1  0  0  0  0
M  STY  1   1 DAT
M  SAL   1  1   1
M  SDT   1 MRV_IMPLICIT_H                                        
M  SDD   1     0.0000    0.0000    DR    ALL  0       0  
M  SED   1 IMPL_H1
M  END
>  <Name_Molregno>
549520

>  <HISTAMINE H1>
4.1

>  <HISTAMINE H3>
8.28

>  <HISTAMINE H4>
7.82

$$$$
549798
  Marvin  02231216192D 0   1.00000     0.00000     0

 32 35  0  0  0  0  0  0  0  0999 V2000
   -2.3149   -2.3553    0.0000 O   0  0  0  0  0  0  0  0  0
   -1.6004   -2.7678    0.0000 C   0  0  0  0  0  0  0  0  0
   -1.6004   -3.5928    0.0000 C   0  0  0  0  0  0  0  0  0
   -0.8860   -4.0053    0.0000 C   0  0  0  0  0  0  0  0  0
   -0.8860   -4.8303    0.0000 N   0  0  0  0  0  0  0  0  0
   -0.1715   -5.2428    0.0000 C   0  0  0  0  0  0  0  0  0
   -0.1715   -6.0678    0.0000 C   0  0  0  0  0  0  0  0  0
   -0.8860   -6.4803    0.0000 C   0  0  0  0  0  0  0  0  0
   -1.6004   -6.0678    0.0000 C   0  0  0  0  0  0  0  0  0
   -1.6004   -5.2428    0.0000 C   0  0  0  0  0  0  0  0  0
   -2.3149   -1.5303    0.0000 C   0  0  0  0  0  0  0  0  0
   -3.0294   -1.1178    0.0000 C   0  0  0  0  0  0  0  0  0
   -3.0294   -0.2928    0.0000 C   0  0  0  0  0  0  0  0  0
   -2.3149    0.1197    0.0000 C   0  0  0  0  0  0  0  0  0
   -2.3149    0.9447    0.0000 N   0  0  0  0  0  0  0  0  0
   -3.0294    1.3572    0.0000 C   0  0  0  0  0  0  0  0  0
   -3.0294    2.1822    0.0000 C   0  0  0  0  0  0  0  0  0
   -2.3149    2.5947    0.0000 N   0  0  0  0  0  0  0  0  0
   -1.6004    2.1822    0.0000 C   0  0  0  0  0  0  0  0  0
   -1.6004    1.3572    0.0000 C   0  0  0  0  0  0  0  0  0
   -0.8860    0.9447    0.0000 O   0  0  0  0  0  0  0  0  0
   -2.3149    3.4197    0.0000 C   0  0  0  0  0  0  0  0  0
   -1.6004    3.8322    0.0000 O   0  0  0  0  0  0  0  0  0
   -3.0294    3.8322    0.0000 C   0  0  0  0  0  0  0  0  0
   -3.7438    3.4197    0.0000 C   0  0  0  0  0  0  0  0  0
   -4.4583    3.8322    0.0000 C   0  0  0  0  0  0  0  0  0
   -4.4583    4.6572    0.0000 C   0  0  0  0  0  0  0  0  0
   -3.7438    5.0697    0.0000 C   0  0  0  0  0  0  0  0  0
   -3.0294    4.6572    0.0000 C   0  0  0  0  0  0  0  0  0
   -5.1728    5.0697    0.0000 C   0  0  0  0  0  0  0  0  0
   -1.6004   -0.2928    0.0000 C   0  0  0  0  0  0  0  0  0
   -1.6004   -1.1178    0.0000 C   0  0  0  0  0  0  0  0  0
  1  2  1  0  0  0  0
  1 11  1  0  0  0  0
  2  3  1  0  0  0  0
  3  4  1  0  0  0  0
  4  5  1  0  0  0  0
  5  6  1  0  0  0  0
  5 10  1  0  0  0  0
  6  7  1  0  0  0  0
  7  8  1  0  0  0  0
  8  9  1  0  0  0  0
  9 10  1  0  0  0  0
 11 12  4  0  0  0  0
 11 32  4  0  0  0  0
 12 13  4  0  0  0  0
 13 14  4  0  0  0  0
 14 15  1  0  0  0  0
 14 31  4  0  0  0  0
 15 16  1  0  0  0  0
 15 20  1  0  0  0  0
 16 17  1  0  0  0  0
 17 18  1  0  0  0  0
 18 19  1  0  0  0  0
 18 22  1  0  0  0  0
 19 20  1  0  0  0  0
 20 21  2  0  0  0  0
 22 23  2  0  0  0  0
 22 24  1  0  0  0  0
 24 25  4  0  0  0  0
 24 29  4  0  0  0  0
 25 26  4  0  0  0  0
 26 27  4  0  0  0  0
 27 28  4  0  0  0  0
 27 30  1  0  0  0  0
 28 29  4  0  0  0  0
 31 32  4  0  0  0  0
M  END
>  <Name_Molregno>
549798

>  <Alpha-1A>
5.6

>  <Alpha-1B>
5.8

>  <HISTAMINE H1>
5.7

>  <HISTAMINE H3>
9.1

$$$$
549799
  Marvin  02231216192D 0   1.00000     0.00000     0

 29 31  0  0  0  0  0  0  0  0999 V2000
   -0.3825   -1.6405    0.0000 O   0  0  0  0  0  0  0  0  0
    0.3320   -1.2280    0.0000 C   0  0  0  0  0  0  0  0  0
    1.0465   -1.6405    0.0000 C   0  0  0  0  0  0  0  0  0
    1.7609   -1.2280    0.0000 C   0  0  0  0  0  0  0  0  0
    2.4754   -1.6405    0.0000 N   0  0  0  0  0  0  0  0  0
    3.1899   -1.2280    0.0000 C   0  0  0  0  0  0  0  0  0
    3.9043   -1.6405    0.0000 C   0  0  0  0  0  0  0  0  0
    3.9043   -2.4655    0.0000 C   0  0  0  0  0  0  0  0  0
    3.1899   -2.8780    0.0000 C   0  0  0  0  0  0  0  0  0
    2.4754   -2.4655    0.0000 C   0  0  0  0  0  0  0  0  0
   -1.0970   -1.2280    0.0000 C   0  0  0  0  0  0  0  0  0
   -1.8114   -1.6405    0.0000 C   0  0  0  0  0  0  0  0  0
   -2.5259   -1.2280    0.0000 C   0  0  0  0  0  0  0  0  0
   -2.5259   -0.4030    0.0000 C   0  0  0  0  0  0  0  0  0
   -3.2404    0.0095    0.0000 N   0  0  0  0  0  0  0  0  0
   -3.9548   -0.4030    0.0000 C   0  0  0  0  0  0  0  0  0
   -4.6693    0.0095    0.0000 C   0  0  0  0  0  0  0  0  0
   -4.6693    0.8345    0.0000 N   0  0  0  0  0  0  0  0  0
   -3.9548    1.2470    0.0000 C   0  0  0  0  0  0  0  0  0
   -3.2404    0.8345    0.0000 C   0  0  0  0  0  0  0  0  0
   -2.5259    1.2470    0.0000 O   0  0  0  0  0  0  0  0  0
   -5.3838    1.2470    0.0000 C   0  0  0  0  0  0  0  0  0
   -5.3838    2.0720    0.0000 O   0  0  0  0  0  0  0  0  0
   -6.0982    0.8345    0.0000 C   0  0  0  0  0  0  0  0  0
   -6.8127    0.4220    0.0000 C   0  0  0  0  0  0  0  0  0
   -6.5107    1.5489    0.0000 C   0  0  0  0  0  0  0  0  0
   -5.6857    0.1200    0.0000 C   0  0  0  0  0  0  0  0  0
   -1.8114    0.0095    0.0000 C   0  0  0  0  0  0  0  0  0
   -1.0970   -0.4030    0.0000 C   0  0  0  0  0  0  0  0  0
  1  2  1  0  0  0  0
  1 11  1  0  0  0  0
  2  3  1  0  0  0  0
  3  4  1  0  0  0  0
  4  5  1  0  0  0  0
  5  6  1  0  0  0  0
  5 10  1  0  0  0  0
  6  7  1  0  0  0  0
  7  8  1  0  0  0  0
  8  9  1  0  0  0  0
  9 10  1  0  0  0  0
 11 12  4  0  0  0  0
 11 29  4  0  0  0  0
 12 13  4  0  0  0  0
 13 14  4  0  0  0  0
 14 15  1  0  0  0  0
 14 28  4  0  0  0  0
 15 16  1  0  0  0  0
 15 20  1  0  0  0  0
 16 17  1  0  0  0  0
 17 18  1  0  0  0  0
 18 19  1  0  0  0  0
 18 22  1  0  0  0  0
 19 20  1  0  0  0  0
 20 21  2  0  0  0  0
 22 23  2  0  0  0  0
 22 24  1  0  0  0  0
 24 25  1  0  0  0  0
 24 26  1  0  0  0  0
 24 27  1  0  0  0  0
 28 29  4  0  0  0  0
M  END
>  <Name_Molregno>
549799

>  <Alpha-1A>
5.4

>  <Alpha-1B>
5.6

>  <HISTAMINE H1>
5.7

>  <HISTAMINE H3>
8.5

$$$$
549800
  Marvin  02231216192D 0   1.00000     0.00000     0

 33 37  0  0  0  0  0  0  0  0999 V2000
   -5.2125   -1.3071    0.0000 O   0  0  0  0  0  0  0  0  0
   -5.2125   -2.1321    0.0000 C   0  0  0  0  0  0  0  0  0
   -4.4980   -2.5446    0.0000 C   0  0  0  0  0  0  0  0  0
   -4.4980   -3.3696    0.0000 C   0  0  0  0  0  0  0  0  0
   -5.2125   -3.7821    0.0000 N   0  0  0  0  0  0  0  0  0
   -5.9269   -3.3696    0.0000 C   0  0  0  0  0  0  0  0  0
   -5.9269   -2.5446    0.0000 C   0  0  0  0  0  0  0  0  0
   -5.2125   -4.6071    0.0000 C   0  0  0  0  0  0  0  0  0
   -4.6291   -5.1904    0.0000 C   0  0  0  0  0  0  0  0  0
   -5.2125   -5.7738    0.0000 C   0  0  0  0  0  0  0  0  0
   -5.7958   -5.1904    0.0000 C   0  0  0  0  0  0  0  0  0
   -4.4980   -0.8946    0.0000 C   0  0  0  0  0  0  0  0  0
   -4.4980   -0.0696    0.0000 C   0  0  0  0  0  0  0  0  0
   -3.7835    0.3429    0.0000 C   0  0  0  0  0  0  0  0  0
   -3.0691   -0.0696    0.0000 C   0  0  0  0  0  0  0  0  0
   -2.3546    0.3429    0.0000 N   0  0  0  0  0  0  0  0  0
   -2.3546    1.1679    0.0000 C   0  0  0  0  0  0  0  0  0
   -1.6401    1.5804    0.0000 C   0  0  0  0  0  0  0  0  0
   -0.9257    1.1679    0.0000 N   0  0  0  0  0  0  0  0  0
   -0.9257    0.3429    0.0000 C   0  0  0  0  0  0  0  0  0
   -1.6401   -0.0696    0.0000 C   0  0  0  0  0  0  0  0  0
   -1.6401   -0.8946    0.0000 O   0  0  0  0  0  0  0  0  0
   -0.2112    1.5804    0.0000 C   0  0  0  0  0  0  0  0  0
   -0.2112    2.4054    0.0000 O   0  0  0  0  0  0  0  0  0
    0.5033    1.1679    0.0000 C   0  0  0  0  0  0  0  0  0
    1.2178    1.5804    0.0000 C   0  0  0  0  0  0  0  0  0
    1.9322    1.1679    0.0000 C   0  0  0  0  0  0  0  0  0
    1.9322    0.3429    0.0000 C   0  0  0  0  0  0  0  0  0
    1.2178   -0.0696    0.0000 C   0  0  0  0  0  0  0  0  0
    0.5033    0.3429    0.0000 C   0  0  0  0  0  0  0  0  0
    2.6467   -0.0696    0.0000 C   0  0  0  0  0  0  0  0  0
   -3.0691   -0.8946    0.0000 C   0  0  0  0  0  0  0  0  0
   -3.7835   -1.3071    0.0000 C   0  0  0  0  0  0  0  0  0
  1  2  1  0  0  0  0
  1 12  1  0  0  0  0
  2  3  1  0  0  0  0
  2  7  1  0  0  0  0
  3  4  1  0  0  0  0
  4  5  1  0  0  0  0
  5  6  1  0  0  0  0
  5  8  1  0  0  0  0
  6  7  1  0  0  0  0
  8  9  1  0  0  0  0
  8 11  1  0  0  0  0
  9 10  1  0  0  0  0
 10 11  1  0  0  0  0
 12 13  4  0  0  0  0
 12 33  4  0  0  0  0
 13 14  4  0  0  0  0
 14 15  4  0  0  0  0
 15 16  1  0  0  0  0
 15 32  4  0  0  0  0
 16 17  1  0  0  0  0
 16 21  1  0  0  0  0
 17 18  1  0  0  0  0
 18 19  1  0  0  0  0
 19 20  1  0  0  0  0
 19 23  1  0  0  0  0
 20 21  1  0  0  0  0
 21 22  2  0  0  0  0
 23 24  2  0  0  0  0
 23 25  1  0  0  0  0
 25 26  4  0  0  0  0
 25 30  4  0  0  0  0
 26 27  4  0  0  0  0
 27 28  4  0  0  0  0
 28 29  4  0  0  0  0
 28 31  1  0  0  0  0
 29 30  4  0  0  0  0
 32 33  4  0  0  0  0
M  END
>  <Name_Molregno>
549800

>  <Alpha-1A>
5.4

>  <Alpha-1B>
5.7

>  <HISTAMINE H1>
5.7

>  <HISTAMINE H3>
9

$$$$
549801
  Marvin  02231216192D 0   1.00000     0.00000     0

 33 37  0  0  0  0  0  0  0  0999 V2000
   -8.3495   -3.2048    0.0000 F   0  0  0  0  0  0  0  0  0
   -7.6350   -2.7923    0.0000 C   0  0  0  0  0  0  0  0  0
   -7.6350   -1.9673    0.0000 C   0  0  0  0  0  0  0  0  0
   -6.9205   -1.5548    0.0000 C   0  0  0  0  0  0  0  0  0
   -6.2060   -1.9673    0.0000 C   0  0  0  0  0  0  0  0  0
   -6.2060   -2.7923    0.0000 C   0  0  0  0  0  0  0  0  0
   -6.9205   -3.2048    0.0000 C   0  0  0  0  0  0  0  0  0
   -5.4916   -1.5548    0.0000 C   0  0  0  0  0  0  0  0  0
   -5.4916   -0.7298    0.0000 O   0  0  0  0  0  0  0  0  0
   -4.7771   -1.9673    0.0000 N   0  0  0  0  0  0  0  0  0
   -4.0626   -1.5548    0.0000 C   0  0  0  0  0  0  0  0  0
   -3.3482   -1.9673    0.0000 C   0  0  0  0  0  0  0  0  0
   -2.6337   -1.5548    0.0000 O   0  0  0  0  0  0  0  0  0
   -3.3482   -2.7923    0.0000 N   0  0  0  0  0  0  0  0  0
   -4.0626   -3.2048    0.0000 C   0  0  0  0  0  0  0  0  0
   -4.7771   -2.7923    0.0000 C   0  0  0  0  0  0  0  0  0
   -2.6337   -3.2048    0.0000 C   0  0  0  0  0  0  0  0  0
   -1.9192   -2.7923    0.0000 C   0  0  0  0  0  0  0  0  0
   -1.2047   -3.2048    0.0000 C   0  0  0  0  0  0  0  0  0
   -1.2047   -4.0298    0.0000 C   0  0  0  0  0  0  0  0  0
   -0.4903   -4.4423    0.0000 O   0  0  0  0  0  0  0  0  0
   -0.4903   -5.2673    0.0000 C   0  0  0  0  0  0  0  0  0
    0.2242   -5.6798    0.0000 C   0  0  0  0  0  0  0  0  0
    0.2242   -6.5048    0.0000 C   0  0  0  0  0  0  0  0  0
   -0.4903   -6.9173    0.0000 N   0  0  0  0  0  0  0  0  0
   -1.2047   -6.5048    0.0000 C   0  0  0  0  0  0  0  0  0
   -1.2047   -5.6798    0.0000 C   0  0  0  0  0  0  0  0  0
   -0.4903   -7.7423    0.0000 C   0  0  0  0  0  0  0  0  0
    0.0931   -8.3256    0.0000 C   0  0  0  0  0  0  0  0  0
   -0.4903   -8.9090    0.0000 C   0  0  0  0  0  0  0  0  0
   -1.0736   -8.3256    0.0000 C   0  0  0  0  0  0  0  0  0
   -1.9192   -4.4423    0.0000 C   0  0  0  0  0  0  0  0  0
   -2.6337   -4.0298    0.0000 C   0  0  0  0  0  0  0  0  0
  1  2  1  0  0  0  0
  2  3  4  0  0  0  0
  2  7  4  0  0  0  0
  3  4  4  0  0  0  0
  4  5  4  0  0  0  0
  5  6  4  0  0  0  0
  5  8  1  0  0  0  0
  6  7  4  0  0  0  0
  8  9  2  0  0  0  0
  8 10  1  0  0  0  0
 10 11  1  0  0  0  0
 10 16  1  0  0  0  0
 11 12  1  0  0  0  0
 12 13  2  0  0  0  0
 12 14  1  0  0  0  0
 14 15  1  0  0  0  0
 14 17  1  0  0  0  0
 15 16  1  0  0  0  0
 17 18  4  0  0  0  0
 17 33  4  0  0  0  0
 18 19  4  0  0  0  0
 19 20  4  0  0  0  0
 20 21  1  0  0  0  0
 20 32  4  0  0  0  0
 21 22  1  0  0  0  0
 22 23  1  0  0  0  0
 22 27  1  0  0  0  0
 23 24  1  0  0  0  0
 24 25  1  0  0  0  0
 25 26  1  0  0  0  0
 25 28  1  0  0  0  0
 26 27  1  0  0  0  0
 28 29  1  0  0  0  0
 28 31  1  0  0  0  0
 29 30  1  0  0  0  0
 30 31  1  0  0  0  0
 32 33  4  0  0  0  0
M  END
>  <Name_Molregno>
549801

>  <Alpha-1A>
5.5

>  <Alpha-1B>
5.5

>  <HISTAMINE H1>
5.6

>  <HISTAMINE H3>
9.2

$$$$
549819
  Marvin  02231216192D 0   1.00000     0.00000     0

 32 35  0  0  0  0  0  0  0  0999 V2000
   -2.7718    5.0725    0.0000 Cl  0  0  0  0  0  0  0  0  0
   -2.7718    4.2475    0.0000 C   0  0  0  0  0  0  0  0  0
   -2.0573    3.8350    0.0000 C   0  0  0  0  0  0  0  0  0
   -2.0573    3.0100    0.0000 C   0  0  0  0  0  0  0  0  0
   -2.7718    2.5975    0.0000 C   0  0  0  0  0  0  0  0  0
   -3.4863    3.0100    0.0000 C   0  0  0  0  0  0  0  0  0
   -3.4863    3.8350    0.0000 C   0  0  0  0  0  0  0  0  0
   -2.7718    1.7725    0.0000 C   0  0  0  0  0  0  0  0  0
   -2.0573    1.3600    0.0000 O   0  0  0  0  0  0  0  0  0
   -3.4863    1.3600    0.0000 N   0  0  0  0  0  0  0  0  0
   -3.4863    0.5350    0.0000 C   0  0  0  0  0  0  0  0  0
   -4.2008    0.1225    0.0000 C   0  0  0  0  0  0  0  0  0
   -4.2008   -0.7025    0.0000 O   0  0  0  0  0  0  0  0  0
   -4.9152    0.5350    0.0000 N   0  0  0  0  0  0  0  0  0
   -4.9152    1.3600    0.0000 C   0  0  0  0  0  0  0  0  0
   -4.2008    1.7725    0.0000 C   0  0  0  0  0  0  0  0  0
   -5.6297    0.1225    0.0000 C   0  0  0  0  0  0  0  0  0
   -5.6297   -0.7025    0.0000 C   0  0  0  0  0  0  0  0  0
   -6.3442   -1.1150    0.0000 C   0  0  0  0  0  0  0  0  0
   -7.0586   -0.7025    0.0000 C   0  0  0  0  0  0  0  0  0
   -7.7731   -1.1150    0.0000 O   0  0  0  0  0  0  0  0  0
   -7.7731   -1.9400    0.0000 C   0  0  0  0  0  0  0  0  0
   -8.4876   -2.3525    0.0000 C   0  0  0  0  0  0  0  0  0
   -8.4876   -3.1775    0.0000 C   0  0  0  0  0  0  0  0  0
   -9.2021   -3.5900    0.0000 N   0  0  0  0  0  0  0  0  0
   -9.2021   -4.4150    0.0000 C   0  0  0  0  0  0  0  0  0
   -9.9165   -4.8275    0.0000 C   0  0  0  0  0  0  0  0  0
  -10.6310   -4.4150    0.0000 C   0  0  0  0  0  0  0  0  0
  -10.6310   -3.5900    0.0000 C   0  0  0  0  0  0  0  0  0
   -9.9165   -3.1775    0.0000 C   0  0  0  0  0  0  0  0  0
   -7.0586    0.1225    0.0000 C   0  0  0  0  0  0  0  0  0
   -6.3442    0.5350    0.0000 C   0  0  0  0  0  0  0  0  0
  1  2  1  0  0  0  0
  2  3  4  0  0  0  0
  2  7  4  0  0  0  0
  3  4  4  0  0  0  0
  4  5  4  0  0  0  0
  5  6  4  0  0  0  0
  5  8  1  0  0  0  0
  6  7  4  0  0  0  0
  8  9  2  0  0  0  0
  8 10  1  0  0  0  0
 10 11  1  0  0  0  0
 10 16  1  0  0  0  0
 11 12  1  0  0  0  0
 12 13  2  0  0  0  0
 12 14  1  0  0  0  0
 14 15  1  0  0  0  0
 14 17  1  0  0  0  0
 15 16  1  0  0  0  0
 17 18  4  0  0  0  0
 17 32  4  0  0  0  0
 18 19  4  0  0  0  0
 19 20  4  0  0  0  0
 20 21  1  0  0  0  0
 20 31  4  0  0  0  0
 21 22  1  0  0  0  0
 22 23  1  0  0  0  0
 23 24  1  0  0  0  0
 24 25  1  0  0  0  0
 25 26  1  0  0  0  0
 25 30  1  0  0  0  0
 26 27  1  0  0  0  0
 27 28  1  0  0  0  0
 28 29  1  0  0  0  0
 29 30  1  0  0  0  0
 31 32  4  0  0  0  0
M  END
>  <Name_Molregno>
549819

>  <HISTAMINE H1>
5.7

>  <HISTAMINE H3>
8.7

$$$$
549824
  Marvin  02231216192D 0   1.00000     0.00000     0

 28 31  0  0  0  0  0  0  0  0999 V2000
   -2.7483    0.8509    0.0000 O   0  0  0  0  0  0  0  0  0
   -3.4628    0.4384    0.0000 C   0  0  0  0  0  0  0  0  0
   -4.1772    0.8509    0.0000 C   0  0  0  0  0  0  0  0  0
   -4.8917    0.4384    0.0000 C   0  0  0  0  0  0  0  0  0
   -5.6062    0.8509    0.0000 N   0  0  0  0  0  0  0  0  0
   -6.3206    0.4384    0.0000 C   0  0  0  0  0  0  0  0  0
   -7.0351    0.8509    0.0000 C   0  0  0  0  0  0  0  0  0
   -7.0351    1.6759    0.0000 C   0  0  0  0  0  0  0  0  0
   -6.3206    2.0884    0.0000 C   0  0  0  0  0  0  0  0  0
   -5.6062    1.6759    0.0000 C   0  0  0  0  0  0  0  0  0
   -2.0338    0.4384    0.0000 C   0  0  0  0  0  0  0  0  0
   -1.3193    0.8509    0.0000 C   0  0  0  0  0  0  0  0  0
   -0.6049    0.4384    0.0000 C   0  0  0  0  0  0  0  0  0
   -0.6049   -0.3866    0.0000 C   0  0  0  0  0  0  0  0  0
    0.1096   -0.7991    0.0000 N   0  0  0  0  0  0  0  0  0
    0.8241   -0.3866    0.0000 C   0  0  0  0  0  0  0  0  0
    1.5385   -0.7991    0.0000 C   0  0  0  0  0  0  0  0  0
    1.5385   -1.6241    0.0000 N   0  0  0  0  0  0  0  0  0
    0.8241   -2.0366    0.0000 C   0  0  0  0  0  0  0  0  0
    0.1096   -1.6241    0.0000 C   0  0  0  0  0  0  0  0  0
   -0.6049   -2.0366    0.0000 O   0  0  0  0  0  0  0  0  0
    2.2530   -2.0366    0.0000 C   0  0  0  0  0  0  0  0  0
    2.9675   -1.6241    0.0000 O   0  0  0  0  0  0  0  0  0
    2.2530   -2.8616    0.0000 C   0  0  0  0  0  0  0  0  0
    2.6655   -3.5761    0.0000 C   0  0  0  0  0  0  0  0  0
    1.8405   -3.5761    0.0000 C   0  0  0  0  0  0  0  0  0
   -1.3193   -0.7991    0.0000 C   0  0  0  0  0  0  0  0  0
   -2.0338   -0.3866    0.0000 C   0  0  0  0  0  0  0  0  0
  1  2  1  0  0  0  0
  1 11  1  0  0  0  0
  2  3  1  0  0  0  0
  3  4  1  0  0  0  0
  4  5  1  0  0  0  0
  5  6  1  0  0  0  0
  5 10  1  0  0  0  0
  6  7  1  0  0  0  0
  7  8  1  0  0  0  0
  8  9  1  0  0  0  0
  9 10  1  0  0  0  0
 11 12  4  0  0  0  0
 11 28  4  0  0  0  0
 12 13  4  0  0  0  0
 13 14  4  0  0  0  0
 14 15  1  0  0  0  0
 14 27  4  0  0  0  0
 15 16  1  0  0  0  0
 15 20  1  0  0  0  0
 16 17  1  0  0  0  0
 17 18  1  0  0  0  0
 18 19  1  0  0  0  0
 18 22  1  0  0  0  0
 19 20  1  0  0  0  0
 20 21  2  0  0  0  0
 22 23  2  0  0  0  0
 22 24  1  0  0  0  0
 24 25  1  0  0  0  0
 24 26  1  0  0  0  0
 25 26  1  0  0  0  0
 27 28  4  0  0  0  0
M  END
>  <Name_Molregno>
549824

>  <HISTAMINE H1>
5.6

>  <HISTAMINE H3>
8.6

$$$$
549825
  Marvin  02231216192D 0   1.00000     0.00000     0

 33 36  0  0  0  0  0  0  0  0999 V2000
   -2.3675   -2.5111    0.0000 O   0  0  0  0  0  0  0  0  0
   -1.6530   -2.9236    0.0000 C   0  0  0  0  0  0  0  0  0
   -1.6530   -3.7486    0.0000 C   0  0  0  0  0  0  0  0  0
   -0.9386   -4.1611    0.0000 C   0  0  0  0  0  0  0  0  0
   -0.9386   -4.9861    0.0000 N   0  0  0  0  0  0  0  0  0
   -0.2241   -5.3986    0.0000 C   0  0  0  0  0  0  0  0  0
   -0.2241   -6.2236    0.0000 C   0  0  0  0  0  0  0  0  0
   -0.9386   -6.6361    0.0000 C   0  0  0  0  0  0  0  0  0
   -1.6530   -6.2236    0.0000 C   0  0  0  0  0  0  0  0  0
   -1.6530   -5.3986    0.0000 C   0  0  0  0  0  0  0  0  0
   -2.3675   -1.6861    0.0000 C   0  0  0  0  0  0  0  0  0
   -3.0820   -1.2736    0.0000 C   0  0  0  0  0  0  0  0  0
   -3.0820   -0.4486    0.0000 C   0  0  0  0  0  0  0  0  0
   -2.3675   -0.0361    0.0000 C   0  0  0  0  0  0  0  0  0
   -2.3675    0.7889    0.0000 N   0  0  0  0  0  0  0  0  0
   -3.0820    1.2014    0.0000 C   0  0  0  0  0  0  0  0  0
   -3.0820    2.0264    0.0000 C   0  0  0  0  0  0  0  0  0
   -2.3675    2.4389    0.0000 N   0  0  0  0  0  0  0  0  0
   -1.6530    2.0264    0.0000 C   0  0  0  0  0  0  0  0  0
   -1.6530    1.2014    0.0000 C   0  0  0  0  0  0  0  0  0
   -0.9386    0.7889    0.0000 O   0  0  0  0  0  0  0  0  0
   -2.3675    3.2639    0.0000 C   0  0  0  0  0  0  0  0  0
   -1.6530    3.6764    0.0000 O   0  0  0  0  0  0  0  0  0
   -3.0820    3.6764    0.0000 C   0  0  0  0  0  0  0  0  0
   -3.7965    3.2639    0.0000 C   0  0  0  0  0  0  0  0  0
   -4.5109    3.6764    0.0000 C   0  0  0  0  0  0  0  0  0
   -4.5109    4.5014    0.0000 C   0  0  0  0  0  0  0  0  0
   -3.7965    4.9139    0.0000 C   0  0  0  0  0  0  0  0  0
   -3.0820    4.5014    0.0000 C   0  0  0  0  0  0  0  0  0
   -5.2254    4.9139    0.0000 C   0  0  0  0  0  0  0  0  0
   -5.9399    5.3264    0.0000 N   0  0  0  0  0  0  0  0  0
   -1.6530   -0.4486    0.0000 C   0  0  0  0  0  0  0  0  0
   -1.6530   -1.2736    0.0000 C   0  0  0  0  0  0  0  0  0
  1  2  1  0  0  0  0
  1 11  1  0  0  0  0
  2  3  1  0  0  0  0
  3  4  1  0  0  0  0
  4  5  1  0  0  0  0
  5  6  1  0  0  0  0
  5 10  1  0  0  0  0
  6  7  1  0  0  0  0
  7  8  1  0  0  0  0
  8  9  1  0  0  0  0
  9 10  1  0  0  0  0
 11 12  4  0  0  0  0
 11 33  4  0  0  0  0
 12 13  4  0  0  0  0
 13 14  4  0  0  0  0
 14 15  1  0  0  0  0
 14 32  4  0  0  0  0
 15 16  1  0  0  0  0
 15 20  1  0  0  0  0
 16 17  1  0  0  0  0
 17 18  1  0  0  0  0
 18 19  1  0  0  0  0
 18 22  1  0  0  0  0
 19 20  1  0  0  0  0
 20 21  2  0  0  0  0
 22 23  2  0  0  0  0
 22 24  1  0  0  0  0
 24 25  4  0  0  0  0
 24 29  4  0  0  0  0
 25 26  4  0  0  0  0
 26 27  4  0  0  0  0
 27 28  4  0  0  0  0
 27 30  1  0  0  0  0
 28 29  4  0  0  0  0
 30 31  3  0  0  0  0
 32 33  4  0  0  0  0
M  END
>  <Name_Molregno>
549825

>  <HISTAMINE H1>
5.7

>  <HISTAMINE H3>
8.8

$$$$
549839
  Marvin  02231216192D 0   1.00000     0.00000     0

 32 35  0  0  0  0  0  0  0  0999 V2000
   -1.5077    2.1268    0.0000 F   0  0  0  0  0  0  0  0  0
   -1.5077    1.3018    0.0000 C   0  0  0  0  0  0  0  0  0
   -0.7933    0.8893    0.0000 C   0  0  0  0  0  0  0  0  0
   -0.7933    0.0643    0.0000 C   0  0  0  0  0  0  0  0  0
   -1.5077   -0.3482    0.0000 C   0  0  0  0  0  0  0  0  0
   -2.2222    0.0643    0.0000 C   0  0  0  0  0  0  0  0  0
   -2.2222    0.8893    0.0000 C   0  0  0  0  0  0  0  0  0
   -1.5077   -1.1732    0.0000 C   0  0  0  0  0  0  0  0  0
   -0.7933   -1.5857    0.0000 O   0  0  0  0  0  0  0  0  0
   -2.2222   -1.5857    0.0000 N   0  0  0  0  0  0  0  0  0
   -2.2222   -2.4107    0.0000 C   0  0  0  0  0  0  0  0  0
   -2.9367   -2.8232    0.0000 C   0  0  0  0  0  0  0  0  0
   -2.9367   -3.6482    0.0000 O   0  0  0  0  0  0  0  0  0
   -3.6512   -2.4107    0.0000 N   0  0  0  0  0  0  0  0  0
   -3.6512   -1.5857    0.0000 C   0  0  0  0  0  0  0  0  0
   -2.9367   -1.1732    0.0000 C   0  0  0  0  0  0  0  0  0
   -4.3656   -2.8232    0.0000 C   0  0  0  0  0  0  0  0  0
   -4.3656   -3.6482    0.0000 C   0  0  0  0  0  0  0  0  0
   -5.0801   -4.0607    0.0000 C   0  0  0  0  0  0  0  0  0
   -5.7946   -3.6482    0.0000 C   0  0  0  0  0  0  0  0  0
   -6.5090   -4.0607    0.0000 O   0  0  0  0  0  0  0  0  0
   -7.2235   -3.6482    0.0000 C   0  0  0  0  0  0  0  0  0
   -7.9380   -4.0607    0.0000 C   0  0  0  0  0  0  0  0  0
   -8.6524   -3.6482    0.0000 C   0  0  0  0  0  0  0  0  0
   -8.6524   -2.8232    0.0000 N   0  0  0  0  0  0  0  0  0
   -7.9380   -2.4107    0.0000 C   0  0  0  0  0  0  0  0  0
   -7.2235   -2.8232    0.0000 C   0  0  0  0  0  0  0  0  0
   -9.3669   -2.4107    0.0000 C   0  0  0  0  0  0  0  0  0
  -10.0814   -2.8232    0.0000 C   0  0  0  0  0  0  0  0  0
   -9.3669   -1.5857    0.0000 C   0  0  0  0  0  0  0  0  0
   -5.7946   -2.8232    0.0000 C   0  0  0  0  0  0  0  0  0
   -5.0801   -2.4107    0.0000 C   0  0  0  0  0  0  0  0  0
  1  2  1  0  0  0  0
  2  3  4  0  0  0  0
  2  7  4  0  0  0  0
  3  4  4  0  0  0  0
  4  5  4  0  0  0  0
  5  6  4  0  0  0  0
  5  8  1  0  0  0  0
  6  7  4  0  0  0  0
  8  9  2  0  0  0  0
  8 10  1  0  0  0  0
 10 11  1  0  0  0  0
 10 16  1  0  0  0  0
 11 12  1  0  0  0  0
 12 13  2  0  0  0  0
 12 14  1  0  0  0  0
 14 15  1  0  0  0  0
 14 17  1  0  0  0  0
 15 16  1  0  0  0  0
 17 18  4  0  0  0  0
 17 32  4  0  0  0  0
 18 19  4  0  0  0  0
 19 20  4  0  0  0  0
 20 21  1  0  0  0  0
 20 31  4  0  0  0  0
 21 22  1  0  0  0  0
 22 23  1  0  0  0  0
 22 27  1  0  0  0  0
 23 24  1  0  0  0  0
 24 25  1  0  0  0  0
 25 26  1  0  0  0  0
 25 28  1  0  0  0  0
 26 27  1  0  0  0  0
 28 29  1  0  0  0  0
 28 30  1  0  0  0  0
 31 32  4  0  0  0  0
M  END
>  <Name_Molregno>
549839

>  <HISTAMINE H1>
5.6

>  <HISTAMINE H3>
8.4

$$$$
553240
  Marvin  02231216192D 0   1.00000     0.00000     0

 32 35  0  0  0  0  0  0  0  0999 V2000
   -1.5077    2.1268    0.0000 Cl  0  0  0  0  0  0  0  0  0
   -1.5077    1.3018    0.0000 C   0  0  0  0  0  0  0  0  0
   -0.7933    0.8893    0.0000 C   0  0  0  0  0  0  0  0  0
   -0.7933    0.0643    0.0000 C   0  0  0  0  0  0  0  0  0
   -1.5077   -0.3482    0.0000 C   0  0  0  0  0  0  0  0  0
   -2.2222    0.0643    0.0000 C   0  0  0  0  0  0  0  0  0
   -2.2222    0.8893    0.0000 C   0  0  0  0  0  0  0  0  0
   -1.5077   -1.1732    0.0000 C   0  0  0  0  0  0  0  0  0
   -0.7933   -1.5857    0.0000 O   0  0  0  0  0  0  0  0  0
   -2.2222   -1.5857    0.0000 N   0  0  0  0  0  0  0  0  0
   -2.2222   -2.4107    0.0000 C   0  0  0  0  0  0  0  0  0
   -2.9367   -2.8232    0.0000 C   0  0  0  0  0  0  0  0  0
   -2.9367   -3.6482    0.0000 O   0  0  0  0  0  0  0  0  0
   -3.6512   -2.4107    0.0000 N   0  0  0  0  0  0  0  0  0
   -3.6512   -1.5857    0.0000 C   0  0  0  0  0  0  0  0  0
   -2.9367   -1.1732    0.0000 C   0  0  0  0  0  0  0  0  0
   -4.3656   -2.8232    0.0000 C   0  0  0  0  0  0  0  0  0
   -4.3656   -3.6482    0.0000 C   0  0  0  0  0  0  0  0  0
   -5.0801   -4.0607    0.0000 C   0  0  0  0  0  0  0  0  0
   -5.7946   -3.6482    0.0000 C   0  0  0  0  0  0  0  0  0
   -6.5090   -4.0607    0.0000 O   0  0  0  0  0  0  0  0  0
   -7.2235   -3.6482    0.0000 C   0  0  0  0  0  0  0  0  0
   -7.9380   -4.0607    0.0000 C   0  0  0  0  0  0  0  0  0
   -8.6524   -3.6482    0.0000 C   0  0  0  0  0  0  0  0  0
   -8.6524   -2.8232    0.0000 N   0  0  0  0  0  0  0  0  0
   -7.9380   -2.4107    0.0000 C   0  0  0  0  0  0  0  0  0
   -7.2235   -2.8232    0.0000 C   0  0  0  0  0  0  0  0  0
   -9.3669   -2.4107    0.0000 C   0  0  0  0  0  0  0  0  0
  -10.0814   -2.8232    0.0000 C   0  0  0  0  0  0  0  0  0
   -9.3669   -1.5857    0.0000 C   0  0  0  0  0  0  0  0  0
   -5.7946   -2.8232    0.0000 C   0  0  0  0  0  0  0  0  0
   -5.0801   -2.4107    0.0000 C   0  0  0  0  0  0  0  0  0
  1  2  1  0  0  0  0
  2  3  4  0  0  0  0
  2  7  4  0  0  0  0
  3  4  4  0  0  0  0
  4  5  4  0  0  0  0
  5  6  4  0  0  0  0
  5  8  1  0  0  0  0
  6  7  4  0  0  0  0
  8  9  2  0  0  0  0
  8 10  1  0  0  0  0
 10 11  1  0  0  0  0
 10 16  1  0  0  0  0
 11 12  1  0  0  0  0
 12 13  2  0  0  0  0
 12 14  1  0  0  0  0
 14 15  1  0  0  0  0
 14 17  1  0  0  0  0
 15 16  1  0  0  0  0
 17 18  4  0  0  0  0
 17 32  4  0  0  0  0
 18 19  4  0  0  0  0
 19 20  4  0  0  0  0
 20 21  1  0  0  0  0
 20 31  4  0  0  0  0
 21 22  1  0  0  0  0
 22 23  1  0  0  0  0
 22 27  1  0  0  0  0
 23 24  1  0  0  0  0
 24 25  1  0  0  0  0
 25 26  1  0  0  0  0
 25 28  1  0  0  0  0
 26 27  1  0  0  0  0
 28 29  1  0  0  0  0
 28 30  1  0  0  0  0
 31 32  4  0  0  0  0
M  END
>  <Name_Molregno>
553240

>  <HISTAMINE H1>
5.5

>  <HISTAMINE H3>
8.6

$$$$
553241
  Marvin  02231216192D 0   1.00000     0.00000     0

 31 34  0  0  0  0  0  0  0  0999 V2000
   -2.2432   -2.7214    0.0000 O   0  0  0  0  0  0  0  0  0
   -1.5287   -3.1339    0.0000 C   0  0  0  0  0  0  0  0  0
   -1.5287   -3.9589    0.0000 C   0  0  0  0  0  0  0  0  0
   -0.8142   -4.3714    0.0000 C   0  0  0  0  0  0  0  0  0
   -0.8142   -5.1964    0.0000 N   0  0  0  0  0  0  0  0  0
   -0.0998   -5.6089    0.0000 C   0  0  0  0  0  0  0  0  0
   -0.0998   -6.4339    0.0000 C   0  0  0  0  0  0  0  0  0
   -0.8142   -6.8464    0.0000 C   0  0  0  0  0  0  0  0  0
   -1.5287   -6.4339    0.0000 C   0  0  0  0  0  0  0  0  0
   -1.5287   -5.6089    0.0000 C   0  0  0  0  0  0  0  0  0
   -2.2432   -1.8964    0.0000 C   0  0  0  0  0  0  0  0  0
   -2.9576   -1.4839    0.0000 C   0  0  0  0  0  0  0  0  0
   -2.9576   -0.6589    0.0000 C   0  0  0  0  0  0  0  0  0
   -2.2432   -0.2464    0.0000 C   0  0  0  0  0  0  0  0  0
   -2.2432    0.5786    0.0000 N   0  0  0  0  0  0  0  0  0
   -2.9576    0.9911    0.0000 C   0  0  0  0  0  0  0  0  0
   -2.9576    1.8161    0.0000 C   0  0  0  0  0  0  0  0  0
   -2.2432    2.2286    0.0000 N   0  0  0  0  0  0  0  0  0
   -1.5287    1.8161    0.0000 C   0  0  0  0  0  0  0  0  0
   -1.5287    0.9911    0.0000 C   0  0  0  0  0  0  0  0  0
   -0.8142    0.5786    0.0000 O   0  0  0  0  0  0  0  0  0
   -2.2432    3.0536    0.0000 C   0  0  0  0  0  0  0  0  0
   -1.5287    3.4661    0.0000 O   0  0  0  0  0  0  0  0  0
   -2.9576    3.4661    0.0000 C   0  0  0  0  0  0  0  0  0
   -3.6721    3.0536    0.0000 C   0  0  0  0  0  0  0  0  0
   -4.3866    3.4661    0.0000 C   0  0  0  0  0  0  0  0  0
   -4.3866    4.2911    0.0000 C   0  0  0  0  0  0  0  0  0
   -3.6721    4.7036    0.0000 C   0  0  0  0  0  0  0  0  0
   -2.9576    4.2911    0.0000 C   0  0  0  0  0  0  0  0  0
   -1.5287   -0.6589    0.0000 C   0  0  0  0  0  0  0  0  0
   -1.5287   -1.4839    0.0000 C   0  0  0  0  0  0  0  0  0
  1  2  1  0  0  0  0
  1 11  1  0  0  0  0
  2  3  1  0  0  0  0
  3  4  1  0  0  0  0
  4  5  1  0  0  0  0
  5  6  1  0  0  0  0
  5 10  1  0  0  0  0
  6  7  1  0  0  0  0
  7  8  1  0  0  0  0
  8  9  1  0  0  0  0
  9 10  1  0  0  0  0
 11 12  4  0  0  0  0
 11 31  4  0  0  0  0
 12 13  4  0  0  0  0
 13 14  4  0  0  0  0
 14 15  1  0  0  0  0
 14 30  4  0  0  0  0
 15 16  1  0  0  0  0
 15 20  1  0  0  0  0
 16 17  1  0  0  0  0
 17 18  1  0  0  0  0
 18 19  1  0  0  0  0
 18 22  1  0  0  0  0
 19 20  1  0  0  0  0
 20 21  2  0  0  0  0
 22 23  2  0  0  0  0
 22 24  1  0  0  0  0
 24 25  4  0  0  0  0
 24 29  4  0  0  0  0
 25 26  4  0  0  0  0
 26 27  4  0  0  0  0
 27 28  4  0  0  0  0
 28 29  4  0  0  0  0
 30 31  4  0  0  0  0
M  END
>  <Name_Molregno>
553241

>  <Alpha-1A>
5.6

>  <Alpha-1B>
5.6

>  <HISTAMINE H1>
5.9

>  <HISTAMINE H3>
8.4

$$$$
553351
  Marvin  02231216192D 0   1.00000     0.00000     0

 32 36  0  0  0  0  0  0  0  0999 V2000
   -4.9100   -1.2056    0.0000 O   0  0  0  0  0  0  0  0  0
   -4.9100   -2.0306    0.0000 C   0  0  0  0  0  0  0  0  0
   -4.1955   -2.4431    0.0000 C   0  0  0  0  0  0  0  0  0
   -4.1955   -3.2681    0.0000 C   0  0  0  0  0  0  0  0  0
   -4.9100   -3.6806    0.0000 N   0  0  0  0  0  0  0  0  0
   -5.6244   -3.2681    0.0000 C   0  0  0  0  0  0  0  0  0
   -5.6244   -2.4431    0.0000 C   0  0  0  0  0  0  0  0  0
   -4.9100   -4.5056    0.0000 C   0  0  0  0  0  0  0  0  0
   -4.3266   -5.0890    0.0000 C   0  0  0  0  0  0  0  0  0
   -4.9100   -5.6723    0.0000 C   0  0  0  0  0  0  0  0  0
   -5.4933   -5.0890    0.0000 C   0  0  0  0  0  0  0  0  0
   -4.1955   -0.7931    0.0000 C   0  0  0  0  0  0  0  0  0
   -4.1955    0.0319    0.0000 C   0  0  0  0  0  0  0  0  0
   -3.4810    0.4444    0.0000 C   0  0  0  0  0  0  0  0  0
   -2.7665    0.0319    0.0000 C   0  0  0  0  0  0  0  0  0
   -2.0521    0.4444    0.0000 N   0  0  0  0  0  0  0  0  0
   -2.0521    1.2694    0.0000 C   0  0  0  0  0  0  0  0  0
   -1.3376    1.6819    0.0000 C   0  0  0  0  0  0  0  0  0
   -0.6231    1.2694    0.0000 N   0  0  0  0  0  0  0  0  0
   -0.6231    0.4444    0.0000 C   0  0  0  0  0  0  0  0  0
   -1.3376    0.0319    0.0000 C   0  0  0  0  0  0  0  0  0
   -1.3376   -0.7931    0.0000 O   0  0  0  0  0  0  0  0  0
    0.0913    1.6819    0.0000 C   0  0  0  0  0  0  0  0  0
    0.0913    2.5069    0.0000 O   0  0  0  0  0  0  0  0  0
    0.8058    1.2694    0.0000 C   0  0  0  0  0  0  0  0  0
    1.5203    1.6819    0.0000 C   0  0  0  0  0  0  0  0  0
    2.2348    1.2694    0.0000 C   0  0  0  0  0  0  0  0  0
    2.2348    0.4444    0.0000 C   0  0  0  0  0  0  0  0  0
    1.5203    0.0319    0.0000 C   0  0  0  0  0  0  0  0  0
    0.8058    0.4444    0.0000 C   0  0  0  0  0  0  0  0  0
   -2.7665   -0.7931    0.0000 C   0  0  0  0  0  0  0  0  0
   -3.4810   -1.2056    0.0000 C   0  0  0  0  0  0  0  0  0
  1  2  1  0  0  0  0
  1 12  1  0  0  0  0
  2  3  1  0  0  0  0
  2  7  1  0  0  0  0
  3  4  1  0  0  0  0
  4  5  1  0  0  0  0
  5  6  1  0  0  0  0
  5  8  1  0  0  0  0
  6  7  1  0  0  0  0
  8  9  1  0  0  0  0
  8 11  1  0  0  0  0
  9 10  1  0  0  0  0
 10 11  1  0  0  0  0
 12 13  4  0  0  0  0
 12 32  4  0  0  0  0
 13 14  4  0  0  0  0
 14 15  4  0  0  0  0
 15 16  1  0  0  0  0
 15 31  4  0  0  0  0
 16 17  1  0  0  0  0
 16 21  1  0  0  0  0
 17 18  1  0  0  0  0
 18 19  1  0  0  0  0
 19 20  1  0  0  0  0
 19 23  1  0  0  0  0
 20 21  1  0  0  0  0
 21 22  2  0  0  0  0
 23 24  2  0  0  0  0
 23 25  1  0  0  0  0
 25 26  4  0  0  0  0
 25 30  4  0  0  0  0
 26 27  4  0  0  0  0
 27 28  4  0  0  0  0
 28 29  4  0  0  0  0
 29 30  4  0  0  0  0
 31 32  4  0  0  0  0
M  END
>  <Name_Molregno>
553351

>  <Alpha-1A>
5.4

>  <Alpha-1B>
5.6

>  <HISTAMINE H1>
5.6

>  <HISTAMINE H3>
8.5

$$$$
553352
  Marvin  02231216192D 0   1.00000     0.00000     0

 33 37  0  0  0  0  0  0  0  0999 V2000
   -8.3495   -3.2048    0.0000 Cl  0  0  0  0  0  0  0  0  0
   -7.6350   -2.7923    0.0000 C   0  0  0  0  0  0  0  0  0
   -7.6350   -1.9673    0.0000 C   0  0  0  0  0  0  0  0  0
   -6.9205   -1.5548    0.0000 C   0  0  0  0  0  0  0  0  0
   -6.2060   -1.9673    0.0000 C   0  0  0  0  0  0  0  0  0
   -6.2060   -2.7923    0.0000 C   0  0  0  0  0  0  0  0  0
   -6.9205   -3.2048    0.0000 C   0  0  0  0  0  0  0  0  0
   -5.4916   -1.5548    0.0000 C   0  0  0  0  0  0  0  0  0
   -5.4916   -0.7298    0.0000 O   0  0  0  0  0  0  0  0  0
   -4.7771   -1.9673    0.0000 N   0  0  0  0  0  0  0  0  0
   -4.0626   -1.5548    0.0000 C   0  0  0  0  0  0  0  0  0
   -3.3482   -1.9673    0.0000 C   0  0  0  0  0  0  0  0  0
   -2.6337   -1.5548    0.0000 O   0  0  0  0  0  0  0  0  0
   -3.3482   -2.7923    0.0000 N   0  0  0  0  0  0  0  0  0
   -4.0626   -3.2048    0.0000 C   0  0  0  0  0  0  0  0  0
   -4.7771   -2.7923    0.0000 C   0  0  0  0  0  0  0  0  0
   -2.6337   -3.2048    0.0000 C   0  0  0  0  0  0  0  0  0
   -1.9192   -2.7923    0.0000 C   0  0  0  0  0  0  0  0  0
   -1.2047   -3.2048    0.0000 C   0  0  0  0  0  0  0  0  0
   -1.2047   -4.0298    0.0000 C   0  0  0  0  0  0  0  0  0
   -0.4903   -4.4423    0.0000 O   0  0  0  0  0  0  0  0  0
   -0.4903   -5.2673    0.0000 C   0  0  0  0  0  0  0  0  0
    0.2242   -5.6798    0.0000 C   0  0  0  0  0  0  0  0  0
    0.2242   -6.5048    0.0000 C   0  0  0  0  0  0  0  0  0
   -0.4903   -6.9173    0.0000 N   0  0  0  0  0  0  0  0  0
   -1.2047   -6.5048    0.0000 C   0  0  0  0  0  0  0  0  0
   -1.2047   -5.6798    0.0000 C   0  0  0  0  0  0  0  0  0
   -0.4903   -7.7423    0.0000 C   0  0  0  0  0  0  0  0  0
    0.0931   -8.3256    0.0000 C   0  0  0  0  0  0  0  0  0
   -0.4903   -8.9090    0.0000 C   0  0  0  0  0  0  0  0  0
   -1.0736   -8.3256    0.0000 C   0  0  0  0  0  0  0  0  0
   -1.9192   -4.4423    0.0000 C   0  0  0  0  0  0  0  0  0
   -2.6337   -4.0298    0.0000 C   0  0  0  0  0  0  0  0  0
  1  2  1  0  0  0  0
  2  3  4  0  0  0  0
  2  7  4  0  0  0  0
  3  4  4  0  0  0  0
  4  5  4  0  0  0  0
  5  6  4  0  0  0  0
  5  8  1  0  0  0  0
  6  7  4  0  0  0  0
  8  9  2  0  0  0  0
  8 10  1  0  0  0  0
 10 11  1  0  0  0  0
 10 16  1  0  0  0  0
 11 12  1  0  0  0  0
 12 13  2  0  0  0  0
 12 14  1  0  0  0  0
 14 15  1  0  0  0  0
 14 17  1  0  0  0  0
 15 16  1  0  0  0  0
 17 18  4  0  0  0  0
 17 33  4  0  0  0  0
 18 19  4  0  0  0  0
 19 20  4  0  0  0  0
 20 21  1  0  0  0  0
 20 32  4  0  0  0  0
 21 22  1  0  0  0  0
 22 23  1  0  0  0  0
 22 27  1  0  0  0  0
 23 24  1  0  0  0  0
 24 25  1  0  0  0  0
 25 26  1  0  0  0  0
 25 28  1  0  0  0  0
 26 27  1  0  0  0  0
 28 29  1  0  0  0  0
 28 31  1  0  0  0  0
 29 30  1  0  0  0  0
 30 31  1  0  0  0  0
 32 33  4  0  0  0  0
M  END
>  <Name_Molregno>
553352

>  <Alpha-1A>
5.4

>  <Alpha-1B>
5.6

>  <HISTAMINE H1>
5.7

>  <HISTAMINE H3>
9.2

$$$$
555670
  Marvin  02231216192D 0   1.00000     0.00000     0

 22 24  0  0  1  0  0  0  0  0999 V2000
   -0.7444   -0.2333    0.0000 S   0  0  0  0  0  0  0  0  0
    0.0402    0.0216    0.0000 C   0  0  0  0  0  0  0  0  0
    0.0402    0.8466    0.0000 C   0  0  0  0  0  0  0  0  0
    0.7546    1.2591    0.0000 C   0  0  0  0  0  0  0  0  0
    1.4691    0.8466    0.0000 C   0  0  0  0  0  0  0  0  0
    1.4691    0.0216    0.0000 C   0  0  0  0  0  0  0  0  0
    0.7546   -0.3909    0.0000 C   0  0  0  0  0  0  0  0  0
   -0.7444    1.1015    0.0000 C   0  0  0  0  0  0  0  0  0
   -0.9994    1.8862    0.0000 C   0  0  0  0  0  0  0  0  0
   -1.8064    2.0577    0.0000 C   0  0  0  0  0  0  0  0  0
   -0.4473    2.4993    0.0000 C   0  0  0  0  0  0  0  0  0
   -0.7023    3.2839    0.0000 N   0  0  0  0  0  0  0  0  0
   -0.1503    3.8970    0.0000 C   0  0  0  0  0  0  0  0  0
    0.6567    3.7254    0.0000 C   0  0  0  0  0  0  0  0  0
    0.9117    2.9408    0.0000 C   0  0  0  0  0  0  0  0  0
    0.3596    2.3277    0.0000 C   0  0  0  0  0  0  0  0  0
   -1.2294    0.4341    0.0000 C   0  0  0  0  0  0  0  0  0
   -2.0544    0.4341    0.0000 C   0  0  0  0  0  0  0  0  0
   -2.4669   -0.2804    0.0000 C   0  0  0  0  0  0  0  0  0
   -3.2919   -0.2804    0.0000 N   0  0  0  0  0  0  0  0  0
   -3.7044   -0.9948    0.0000 C   0  0  0  0  0  0  0  0  0
   -3.7044    0.4341    0.0000 C   0  0  0  0  0  0  0  0  0
  1  2  4  0  0  0  0
  1 17  4  0  0  0  0
  2  3  4  0  0  0  0
  2  7  4  0  0  0  0
  3  4  4  0  0  0  0
  3  8  4  0  0  0  0
  4  5  4  0  0  0  0
  5  6  4  0  0  0  0
  6  7  4  0  0  0  0
  8  9  1  0  0  0  0
  8 17  4  0  0  0  0
  9 10  1  0  0  0  0
  9 11  1  0  0  0  0
 11 12  4  0  0  0  0
 11 16  4  0  0  0  0
 12 13  4  0  0  0  0
 13 14  4  0  0  0  0
 14 15  4  0  0  0  0
 15 16  4  0  0  0  0
 17 18  1  0  0  0  0
 18 19  1  0  0  0  0
 19 20  1  0  0  0  0
 20 21  1  0  0  0  0
 20 22  1  0  0  0  0
M  END
>  <Name_Molregno>
555670

>  <HISTAMINE H1>
7.24

>  <Muscarinic acetylcholine receptor M1>
6.71

$$$$
555914
  Marvin  02231216192D 0   1.00000     0.00000     0

 31 35  0  0  0  0  0  0  0  0999 V2000
    7.3498   -2.3072    0.0000 F   0  0  0  0  0  0  0  0  0
    6.7977   -1.6941    0.0000 C   0  0  0  0  0  0  0  0  0
    5.9908   -1.8657    0.0000 C   0  0  0  0  0  0  0  0  0
    5.4387   -1.2526    0.0000 C   0  0  0  0  0  0  0  0  0
    5.6937   -0.4680    0.0000 C   0  0  0  0  0  0  0  0  0
    6.5007   -0.2964    0.0000 C   0  0  0  0  0  0  0  0  0
    7.0527   -0.9095    0.0000 C   0  0  0  0  0  0  0  0  0
    5.1417    0.1451    0.0000 C   0  0  0  0  0  0  0  0  0
    5.3966    0.9298    0.0000 N   0  0  0  0  0  0  0  0  0
    6.1812    1.1847    0.0000 C   0  0  0  0  0  0  0  0  0
    6.1812    2.0097    0.0000 C   0  0  0  0  0  0  0  0  0
    5.3966    2.2646    0.0000 N   0  0  0  0  0  0  0  0  0
    4.9117    1.5972    0.0000 C   0  0  0  0  0  0  0  0  0
    4.0867    1.5972    0.0000 N   0  0  0  0  0  0  0  0  0
    3.6742    0.8827    0.0000 C   0  0  0  0  0  0  0  0  0
    2.8492    0.8827    0.0000 C   0  0  0  0  0  0  0  0  0
    2.4367    1.5972    0.0000 C   0  0  0  0  0  0  0  0  0
    1.6117    1.5972    0.0000 N   0  0  0  0  0  0  0  0  0
    1.1992    0.8827    0.0000 C   0  0  0  0  0  0  0  0  0
    1.1992    2.3117    0.0000 C   0  0  0  0  0  0  0  0  0
    0.3742    2.3117    0.0000 N   0  0  0  0  0  0  0  0  0
   -0.0383    3.0261    0.0000 C   0  0  0  0  0  0  0  0  0
    0.3742    3.7406    0.0000 C   0  0  0  0  0  0  0  0  0
    1.1992    3.7406    0.0000 C   0  0  0  0  0  0  0  0  0
    1.6117    3.0261    0.0000 N   0  0  0  0  0  0  0  0  0
    2.8492    2.3117    0.0000 C   0  0  0  0  0  0  0  0  0
    3.6742    2.3117    0.0000 C   0  0  0  0  0  0  0  0  0
    6.8957    2.4222    0.0000 C   0  0  0  0  0  0  0  0  0
    7.6102    2.0097    0.0000 C   0  0  0  0  0  0  0  0  0
    7.6102    1.1847    0.0000 C   0  0  0  0  0  0  0  0  0
    6.8957    0.7722    0.0000 C   0  0  0  0  0  0  0  0  0
  1  2  1  0  0  0  0
  2  3  4  0  0  0  0
  2  7  4  0  0  0  0
  3  4  4  0  0  0  0
  4  5  4  0  0  0  0
  5  6  4  0  0  0  0
  5  8  1  0  0  0  0
  6  7  4  0  0  0  0
  8  9  1  0  0  0  0
  9 10  4  0  0  0  0
  9 13  4  0  0  0  0
 10 11  4  0  0  0  0
 10 31  4  0  0  0  0
 11 12  4  0  0  0  0
 11 28  4  0  0  0  0
 12 13  4  0  0  0  0
 13 14  1  0  0  0  0
 14 15  1  0  0  0  0
 14 27  1  0  0  0  0
 15 16  1  0  0  0  0
 16 17  1  0  0  0  0
 17 18  1  0  0  0  0
 17 26  1  0  0  0  0
 18 19  1  0  0  0  0
 18 20  1  0  0  0  0
 20 21  4  0  0  0  0
 20 25  4  0  0  0  0
 21 22  4  0  0  0  0
 22 23  4  0  0  0  0
 23 24  4  0  0  0  0
 24 25  4  0  0  0  0
 26 27  1  0  0  0  0
 28 29  4  0  0  0  0
 29 30  4  0  0  0  0
 30 31  4  0  0  0  0
M  END
>  <Name_Molregno>
555914

>  <HISTAMINE H1>
7.12

>  <Muscarinic acetylcholine receptor M1>
5

$$$$
557401
  Marvin  02231216192D 0   1.00000     0.00000     0

 22 24  0  0  0  0  0  0  0  0999 V2000
    5.1591   -2.1101    0.0000 F   0  0  0  0  0  0  0  0  0
    4.6071   -1.4970    0.0000 C   0  0  0  0  0  0  0  0  0
    3.8001   -1.6685    0.0000 C   0  0  0  0  0  0  0  0  0
    3.2481   -1.0554    0.0000 C   0  0  0  0  0  0  0  0  0
    3.5030   -0.2708    0.0000 C   0  0  0  0  0  0  0  0  0
    4.3100   -0.0993    0.0000 C   0  0  0  0  0  0  0  0  0
    4.8620   -0.7123    0.0000 C   0  0  0  0  0  0  0  0  0
    2.9510    0.3423    0.0000 C   0  0  0  0  0  0  0  0  0
    3.2059    1.1269    0.0000 C   0  0  0  0  0  0  0  0  0
    3.9906    1.3819    0.0000 C   0  0  0  0  0  0  0  0  0
    3.9906    2.2069    0.0000 C   0  0  0  0  0  0  0  0  0
    3.2059    2.4618    0.0000 C   0  0  0  0  0  0  0  0  0
    2.7210    1.7944    0.0000 C   0  0  0  0  0  0  0  0  0
    1.8960    1.7944    0.0000 C   0  0  0  0  0  0  0  0  0
    1.4835    1.0799    0.0000 C   0  0  0  0  0  0  0  0  0
    0.6585    1.0799    0.0000 N   0  0  0  0  0  0  0  0  0
    0.2460    0.3654    0.0000 C   0  0  0  0  0  0  0  0  0
    0.2460    1.7944    0.0000 C   0  0  0  0  0  0  0  0  0
    4.7050    2.6194    0.0000 C   0  0  0  0  0  0  0  0  0
    5.4195    2.2069    0.0000 C   0  0  0  0  0  0  0  0  0
    5.4195    1.3819    0.0000 C   0  0  0  0  0  0  0  0  0
    4.7050    0.9694    0.0000 C   0  0  0  0  0  0  0  0  0
  1  2  1  0  0  0  0
  2  3  4  0  0  0  0
  2  7  4  0  0  0  0
  3  4  4  0  0  0  0
  4  5  4  0  0  0  0
  5  6  4  0  0  0  0
  5  8  1  0  0  0  0
  6  7  4  0  0  0  0
  8  9  1  0  0  0  0
  9 10  1  0  0  0  0
  9 13  2  0  0  0  0
 10 11  4  0  0  0  0
 10 22  4  0  0  0  0
 11 12  1  0  0  0  0
 11 19  4  0  0  0  0
 12 13  1  0  0  0  0
 13 14  1  0  0  0  0
 14 15  1  0  0  0  0
 15 16  1  0  0  0  0
 16 17  1  0  0  0  0
 16 18  1  0  0  0  0
 19 20  4  0  0  0  0
 20 21  4  0  0  0  0
 21 22  4  0  0  0  0
M  END
>  <Name_Molregno>
557401

>  <5-HT2A>
9.85

>  <HISTAMINE H1>
9.22

$$$$
557620
  Marvin  02231216192D 0   1.00000     0.00000     0

 28 31  0  0  0  0  0  0  0  0999 V2000
    6.7429   -2.9193    0.0000 F   0  0  0  0  0  0  0  0  0
    6.1908   -2.3062    0.0000 C   0  0  0  0  0  0  0  0  0
    5.3839   -2.4778    0.0000 C   0  0  0  0  0  0  0  0  0
    4.8318   -1.8647    0.0000 C   0  0  0  0  0  0  0  0  0
    5.0868   -1.0800    0.0000 C   0  0  0  0  0  0  0  0  0
    5.8938   -0.9085    0.0000 C   0  0  0  0  0  0  0  0  0
    6.4458   -1.5216    0.0000 C   0  0  0  0  0  0  0  0  0
    4.5348   -0.4670    0.0000 C   0  0  0  0  0  0  0  0  0
    4.7897    0.3177    0.0000 N   0  0  0  0  0  0  0  0  0
    5.5743    0.5726    0.0000 C   0  0  0  0  0  0  0  0  0
    5.5743    1.3976    0.0000 C   0  0  0  0  0  0  0  0  0
    4.7897    1.6525    0.0000 N   0  0  0  0  0  0  0  0  0
    4.3048    0.9851    0.0000 C   0  0  0  0  0  0  0  0  0
    3.4798    0.9851    0.0000 N   0  0  0  0  0  0  0  0  0
    3.0673    0.2706    0.0000 C   0  0  0  0  0  0  0  0  0
    2.2423    0.2706    0.0000 C   0  0  0  0  0  0  0  0  0
    1.8298    0.9851    0.0000 C   0  0  0  0  0  0  0  0  0
    1.0048    0.9851    0.0000 N   0  0  0  0  0  0  0  0  0
    0.5923    0.2706    0.0000 C   0  0  0  0  0  0  0  0  0
   -0.2327    0.2706    0.0000 C   0  0  0  0  0  0  0  0  0
   -0.6452   -0.4438    0.0000 O   0  0  0  0  0  0  0  0  0
    0.5923    1.6996    0.0000 C   0  0  0  0  0  0  0  0  0
    2.2423    1.6996    0.0000 C   0  0  0  0  0  0  0  0  0
    3.0673    1.6996    0.0000 C   0  0  0  0  0  0  0  0  0
    6.2888    1.8101    0.0000 C   0  0  0  0  0  0  0  0  0
    7.0033    1.3976    0.0000 C   0  0  0  0  0  0  0  0  0
    7.0033    0.5726    0.0000 C   0  0  0  0  0  0  0  0  0
    6.2888    0.1601    0.0000 C   0  0  0  0  0  0  0  0  0
  1  2  1  0  0  0  0
  2  3  4  0  0  0  0
  2  7  4  0  0  0  0
  3  4  4  0  0  0  0
  4  5  4  0  0  0  0
  5  6  4  0  0  0  0
  5  8  1  0  0  0  0
  6  7  4  0  0  0  0
  8  9  1  0  0  0  0
  9 10  4  0  0  0  0
  9 13  4  0  0  0  0
 10 11  4  0  0  0  0
 10 28  4  0  0  0  0
 11 12  4  0  0  0  0
 11 25  4  0  0  0  0
 12 13  4  0  0  0  0
 13 14  1  0  0  0  0
 14 15  1  0  0  0  0
 14 24  1  0  0  0  0
 15 16  1  0  0  0  0
 16 17  1  0  0  0  0
 17 18  1  0  0  0  0
 17 23  1  0  0  0  0
 18 19  1  0  0  0  0
 18 22  1  0  0  0  0
 19 20  1  0  0  0  0
 20 21  1  0  0  0  0
 23 24  1  0  0  0  0
 25 26  4  0  0  0  0
 26 27  4  0  0  0  0
 27 28  4  0  0  0  0
M  END
>  <Name_Molregno>
557620

>  <HISTAMINE H1>
8.49

$$$$
557636
  Marvin  02231216192D 0   1.00000     0.00000     0

 33 37  0  0  0  0  0  0  0  0999 V2000
    8.2677   -4.6823    0.0000 F   0  0  0  0  0  0  0  0  0
    7.7157   -4.0692    0.0000 C   0  0  0  0  0  0  0  0  0
    6.9087   -4.2407    0.0000 C   0  0  0  0  0  0  0  0  0
    6.3567   -3.6276    0.0000 C   0  0  0  0  0  0  0  0  0
    6.6116   -2.8430    0.0000 C   0  0  0  0  0  0  0  0  0
    7.4186   -2.6715    0.0000 C   0  0  0  0  0  0  0  0  0
    7.9706   -3.2846    0.0000 C   0  0  0  0  0  0  0  0  0
    6.0596   -2.2299    0.0000 C   0  0  0  0  0  0  0  0  0
    6.3145   -1.4453    0.0000 N   0  0  0  0  0  0  0  0  0
    7.0991   -1.1903    0.0000 C   0  0  0  0  0  0  0  0  0
    7.0991   -0.3653    0.0000 C   0  0  0  0  0  0  0  0  0
    6.3145   -0.1104    0.0000 N   0  0  0  0  0  0  0  0  0
    5.8296   -0.7778    0.0000 C   0  0  0  0  0  0  0  0  0
    5.0046   -0.7778    0.0000 N   0  0  0  0  0  0  0  0  0
    4.5921   -1.4923    0.0000 C   0  0  0  0  0  0  0  0  0
    3.7671   -1.4923    0.0000 C   0  0  0  0  0  0  0  0  0
    3.3546   -0.7778    0.0000 C   0  0  0  0  0  0  0  0  0
    2.5296   -0.7778    0.0000 N   0  0  0  0  0  0  0  0  0
    2.1171   -0.0634    0.0000 C   0  0  0  0  0  0  0  0  0
    1.2921   -0.0634    0.0000 C   0  0  0  0  0  0  0  0  0
    0.8796    0.6511    0.0000 C   0  0  0  0  0  0  0  0  0
    0.0546    0.6511    0.0000 C   0  0  0  0  0  0  0  0  0
   -0.3579    1.3656    0.0000 C   0  0  0  0  0  0  0  0  0
    0.0546    2.0800    0.0000 C   0  0  0  0  0  0  0  0  0
    0.8796    2.0800    0.0000 C   0  0  0  0  0  0  0  0  0
    1.2921    1.3656    0.0000 C   0  0  0  0  0  0  0  0  0
    2.1171   -1.4923    0.0000 C   0  0  0  0  0  0  0  0  0
    3.7671   -0.0634    0.0000 C   0  0  0  0  0  0  0  0  0
    4.5921   -0.0634    0.0000 C   0  0  0  0  0  0  0  0  0
    7.8136    0.0472    0.0000 C   0  0  0  0  0  0  0  0  0
    8.5281   -0.3653    0.0000 C   0  0  0  0  0  0  0  0  0
    8.5281   -1.1903    0.0000 C   0  0  0  0  0  0  0  0  0
    7.8136   -1.6028    0.0000 C   0  0  0  0  0  0  0  0  0
  1  2  1  0  0  0  0
  2  3  4  0  0  0  0
  2  7  4  0  0  0  0
  3  4  4  0  0  0  0
  4  5  4  0  0  0  0
  5  6  4  0  0  0  0
  5  8  1  0  0  0  0
  6  7  4  0  0  0  0
  8  9  1  0  0  0  0
  9 10  4  0  0  0  0
  9 13  4  0  0  0  0
 10 11  4  0  0  0  0
 10 33  4  0  0  0  0
 11 12  4  0  0  0  0
 11 30  4  0  0  0  0
 12 13  4  0  0  0  0
 13 14  1  0  0  0  0
 14 15  1  0  0  0  0
 14 29  1  0  0  0  0
 15 16  1  0  0  0  0
 16 17  1  0  0  0  0
 17 18  1  0  0  0  0
 17 28  1  0  0  0  0
 18 19  1  0  0  0  0
 18 27  1  0  0  0  0
 19 20  1  0  0  0  0
 20 21  1  0  0  0  0
 21 22  4  0  0  0  0
 21 26  4  0  0  0  0
 22 23  4  0  0  0  0
 23 24  4  0  0  0  0
 24 25  4  0  0  0  0
 25 26  4  0  0  0  0
 28 29  1  0  0  0  0
 30 31  4  0  0  0  0
 31 32  4  0  0  0  0
 32 33  4  0  0  0  0
M  END
>  <Name_Molregno>
557636

>  <HISTAMINE H1>
8.62

>  <Muscarinic acetylcholine receptor M1>
7.05

$$$$
561148
  Marvin  02231216192D 0   1.00000     0.00000     0

 32 36  0  0  0  0  0  0  0  0999 V2000
    7.9774   -3.2944    0.0000 F   0  0  0  0  0  0  0  0  0
    7.4253   -2.6813    0.0000 C   0  0  0  0  0  0  0  0  0
    6.6184   -2.8528    0.0000 C   0  0  0  0  0  0  0  0  0
    6.0663   -2.2397    0.0000 C   0  0  0  0  0  0  0  0  0
    6.3213   -1.4551    0.0000 C   0  0  0  0  0  0  0  0  0
    7.1282   -1.2835    0.0000 C   0  0  0  0  0  0  0  0  0
    7.6803   -1.8966    0.0000 C   0  0  0  0  0  0  0  0  0
    5.7692   -0.8420    0.0000 C   0  0  0  0  0  0  0  0  0
    6.0242   -0.0574    0.0000 N   0  0  0  0  0  0  0  0  0
    6.8088    0.1976    0.0000 C   0  0  0  0  0  0  0  0  0
    6.8088    1.0226    0.0000 C   0  0  0  0  0  0  0  0  0
    6.0242    1.2775    0.0000 N   0  0  0  0  0  0  0  0  0
    5.5392    0.6101    0.0000 C   0  0  0  0  0  0  0  0  0
    4.7142    0.6101    0.0000 N   0  0  0  0  0  0  0  0  0
    4.3017   -0.1044    0.0000 C   0  0  0  0  0  0  0  0  0
    3.4767   -0.1044    0.0000 C   0  0  0  0  0  0  0  0  0
    3.0642    0.6101    0.0000 C   0  0  0  0  0  0  0  0  0
    2.2392    0.6101    0.0000 N   0  0  0  0  0  0  0  0  0
    1.8267   -0.1044    0.0000 C   0  0  0  0  0  0  0  0  0
    1.0017   -0.1044    0.0000 C   0  0  0  0  0  0  0  0  0
    0.5892   -0.8189    0.0000 C   0  0  0  0  0  0  0  0  0
   -0.2358   -0.8189    0.0000 C   0  0  0  0  0  0  0  0  0
   -0.6483   -0.1044    0.0000 O   0  0  0  0  0  0  0  0  0
   -0.2358    0.6101    0.0000 C   0  0  0  0  0  0  0  0  0
    0.5892    0.6101    0.0000 C   0  0  0  0  0  0  0  0  0
    1.8267    1.3246    0.0000 C   0  0  0  0  0  0  0  0  0
    3.4767    1.3246    0.0000 C   0  0  0  0  0  0  0  0  0
    4.3017    1.3246    0.0000 C   0  0  0  0  0  0  0  0  0
    7.5233    1.4351    0.0000 C   0  0  0  0  0  0  0  0  0
    8.2377    1.0226    0.0000 C   0  0  0  0  0  0  0  0  0
    8.2377    0.1976    0.0000 C   0  0  0  0  0  0  0  0  0
    7.5233   -0.2149    0.0000 C   0  0  0  0  0  0  0  0  0
  1  2  1  0  0  0  0
  2  3  4  0  0  0  0
  2  7  4  0  0  0  0
  3  4  4  0  0  0  0
  4  5  4  0  0  0  0
  5  6  4  0  0  0  0
  5  8  1  0  0  0  0
  6  7  4  0  0  0  0
  8  9  1  0  0  0  0
  9 10  4  0  0  0  0
  9 13  4  0  0  0  0
 10 11  4  0  0  0  0
 10 32  4  0  0  0  0
 11 12  4  0  0  0  0
 11 29  4  0  0  0  0
 12 13  4  0  0  0  0
 13 14  1  0  0  0  0
 14 15  1  0  0  0  0
 14 28  1  0  0  0  0
 15 16  1  0  0  0  0
 16 17  1  0  0  0  0
 17 18  1  0  0  0  0
 17 27  1  0  0  0  0
 18 19  1  0  0  0  0
 18 26  1  0  0  0  0
 19 20  1  0  0  0  0
 20 21  1  0  0  0  0
 20 25  1  0  0  0  0
 21 22  1  0  0  0  0
 22 23  1  0  0  0  0
 23 24  1  0  0  0  0
 24 25  1  0  0  0  0
 27 28  1  0  0  0  0
 29 30  4  0  0  0  0
 30 31  4  0  0  0  0
 31 32  4  0  0  0  0
M  END
>  <Name_Molregno>
561148

>  <HISTAMINE H1>
8.41

>  <Muscarinic acetylcholine receptor M1>
5.32

$$$$
561162
  Marvin  02231216192D 0   1.00000     0.00000     0

 32 36  0  0  0  0  0  0  0  0999 V2000
   -0.1380   -2.6979    0.0000 O   0  0  0  0  0  0  0  0  0
    0.2745   -1.9834    0.0000 C   0  0  0  0  0  0  0  0  0
    1.0995   -1.9834    0.0000 C   0  0  0  0  0  0  0  0  0
    1.5120   -2.6979    0.0000 C   0  0  0  0  0  0  0  0  0
    1.0995   -3.4124    0.0000 C   0  0  0  0  0  0  0  0  0
    0.2745   -3.4124    0.0000 C   0  0  0  0  0  0  0  0  0
    2.3370   -2.6979    0.0000 C   0  0  0  0  0  0  0  0  0
    2.7495   -1.9834    0.0000 N   0  0  0  0  0  0  0  0  0
    3.5745   -1.9834    0.0000 C   0  0  0  0  0  0  0  0  0
    3.9870   -1.2690    0.0000 C   0  0  0  0  0  0  0  0  0
    4.8120   -1.2690    0.0000 C   0  0  0  0  0  0  0  0  0
    5.2245   -1.9834    0.0000 N   0  0  0  0  0  0  0  0  0
    4.8120   -2.6979    0.0000 C   0  0  0  0  0  0  0  0  0
    3.9870   -2.6979    0.0000 C   0  0  0  0  0  0  0  0  0
    6.0495   -1.9834    0.0000 C   0  0  0  0  0  0  0  0  0
    6.5344   -2.6509    0.0000 N   0  0  0  0  0  0  0  0  0
    7.3191   -2.3959    0.0000 C   0  0  0  0  0  0  0  0  0
    7.3191   -1.5709    0.0000 C   0  0  0  0  0  0  0  0  0
    6.5344   -1.3160    0.0000 N   0  0  0  0  0  0  0  0  0
    6.2795   -0.5314    0.0000 C   0  0  0  0  0  0  0  0  0
    6.8315    0.0817    0.0000 C   0  0  0  0  0  0  0  0  0
    6.5766    0.8663    0.0000 C   0  0  0  0  0  0  0  0  0
    7.1286    1.4794    0.0000 C   0  0  0  0  0  0  0  0  0
    7.9356    1.3079    0.0000 C   0  0  0  0  0  0  0  0  0
    8.4876    1.9210    0.0000 O   0  0  0  0  0  0  0  0  0
    8.2327    2.7056    0.0000 C   0  0  0  0  0  0  0  0  0
    8.1905    0.5233    0.0000 C   0  0  0  0  0  0  0  0  0
    7.6385   -0.0898    0.0000 C   0  0  0  0  0  0  0  0  0
    8.0335   -1.1584    0.0000 C   0  0  0  0  0  0  0  0  0
    8.7480   -1.5709    0.0000 C   0  0  0  0  0  0  0  0  0
    8.7480   -2.3959    0.0000 C   0  0  0  0  0  0  0  0  0
    8.0335   -2.8084    0.0000 C   0  0  0  0  0  0  0  0  0
  1  2  1  0  0  0  0
  1  6  1  0  0  0  0
  2  3  1  0  0  0  0
  3  4  1  0  0  0  0
  4  5  1  0  0  0  0
  4  7  1  0  0  0  0
  5  6  1  0  0  0  0
  7  8  1  0  0  0  0
  8  9  1  0  0  0  0
  9 10  1  0  0  0  0
  9 14  1  0  0  0  0
 10 11  1  0  0  0  0
 11 12  1  0  0  0  0
 12 13  1  0  0  0  0
 12 15  1  0  0  0  0
 13 14  1  0  0  0  0
 15 16  4  0  0  0  0
 15 19  4  0  0  0  0
 16 17  4  0  0  0  0
 17 18  4  0  0  0  0
 17 32  4  0  0  0  0
 18 19  4  0  0  0  0
 18 29  4  0  0  0  0
 19 20  1  0  0  0  0
 20 21  1  0  0  0  0
 21 22  4  0  0  0  0
 21 28  4  0  0  0  0
 22 23  4  0  0  0  0
 23 24  4  0  0  0  0
 24 25  1  0  0  0  0
 24 27  4  0  0  0  0
 25 26  1  0  0  0  0
 27 28  4  0  0  0  0
 29 30  4  0  0  0  0
 30 31  4  0  0  0  0
 31 32  4  0  0  0  0
M  END
>  <Name_Molregno>
561162

>  <HISTAMINE H1>
7.85

$$$$
561176
  Marvin  02231216192D 0   1.00000     0.00000     0

 30 34  0  0  0  0  0  0  0  0999 V2000
    7.1638   -3.2720    0.0000 F   0  0  0  0  0  0  0  0  0
    6.6117   -2.6589    0.0000 C   0  0  0  0  0  0  0  0  0
    5.8048   -2.8305    0.0000 C   0  0  0  0  0  0  0  0  0
    5.2527   -2.2174    0.0000 C   0  0  0  0  0  0  0  0  0
    5.5077   -1.4327    0.0000 C   0  0  0  0  0  0  0  0  0
    6.3146   -1.2612    0.0000 C   0  0  0  0  0  0  0  0  0
    6.8667   -1.8743    0.0000 C   0  0  0  0  0  0  0  0  0
    4.9556   -0.8197    0.0000 C   0  0  0  0  0  0  0  0  0
    5.2106   -0.0350    0.0000 N   0  0  0  0  0  0  0  0  0
    5.9952    0.2199    0.0000 C   0  0  0  0  0  0  0  0  0
    5.9952    1.0449    0.0000 C   0  0  0  0  0  0  0  0  0
    5.2106    1.2998    0.0000 N   0  0  0  0  0  0  0  0  0
    4.7256    0.6324    0.0000 C   0  0  0  0  0  0  0  0  0
    3.9006    0.6324    0.0000 N   0  0  0  0  0  0  0  0  0
    3.4881   -0.0821    0.0000 C   0  0  0  0  0  0  0  0  0
    2.6631   -0.0821    0.0000 C   0  0  0  0  0  0  0  0  0
    2.2506    0.6324    0.0000 C   0  0  0  0  0  0  0  0  0
    1.4256    0.6324    0.0000 N   0  0  0  0  0  0  0  0  0
    1.0131   -0.0821    0.0000 C   0  0  0  0  0  0  0  0  0
    0.1881   -0.0821    0.0000 C   0  0  0  0  0  0  0  0  0
   -0.2244    0.6324    0.0000 C   0  0  0  0  0  0  0  0  0
    0.1881    1.3469    0.0000 C   0  0  0  0  0  0  0  0  0
    1.0131    1.3469    0.0000 C   0  0  0  0  0  0  0  0  0
    1.4256    2.0613    0.0000 O   0  0  0  0  0  0  0  0  0
    2.6631    1.3469    0.0000 C   0  0  0  0  0  0  0  0  0
    3.4881    1.3469    0.0000 C   0  0  0  0  0  0  0  0  0
    6.7097    1.4574    0.0000 C   0  0  0  0  0  0  0  0  0
    7.4241    1.0449    0.0000 C   0  0  0  0  0  0  0  0  0
    7.4241    0.2199    0.0000 C   0  0  0  0  0  0  0  0  0
    6.7097   -0.1926    0.0000 C   0  0  0  0  0  0  0  0  0
  1  2  1  0  0  0  0
  2  3  4  0  0  0  0
  2  7  4  0  0  0  0
  3  4  4  0  0  0  0
  4  5  4  0  0  0  0
  5  6  4  0  0  0  0
  5  8  1  0  0  0  0
  6  7  4  0  0  0  0
  8  9  1  0  0  0  0
  9 10  4  0  0  0  0
  9 13  4  0  0  0  0
 10 11  4  0  0  0  0
 10 30  4  0  0  0  0
 11 12  4  0  0  0  0
 11 27  4  0  0  0  0
 12 13  4  0  0  0  0
 13 14  1  0  0  0  0
 14 15  1  0  0  0  0
 14 26  1  0  0  0  0
 15 16  1  0  0  0  0
 16 17  1  0  0  0  0
 17 18  1  0  0  0  0
 17 25  1  0  0  0  0
 18 19  1  0  0  0  0
 18 23  1  0  0  0  0
 19 20  1  0  0  0  0
 20 21  1  0  0  0  0
 21 22  1  0  0  0  0
 22 23  1  0  0  0  0
 23 24  2  0  0  0  0
 25 26  1  0  0  0  0
 27 28  4  0  0  0  0
 28 29  4  0  0  0  0
 29 30  4  0  0  0  0
M  END
>  <Name_Molregno>
561176

>  <HISTAMINE H1>
8.18

$$$$
561195
  Marvin  02231216192D 0   1.00000     0.00000     0

 25 28  0  0  0  0  0  0  0  0999 V2000
    5.8159   -2.5908    0.0000 F   0  0  0  0  0  0  0  0  0
    5.2638   -1.9777    0.0000 C   0  0  0  0  0  0  0  0  0
    4.4568   -2.1492    0.0000 C   0  0  0  0  0  0  0  0  0
    3.9048   -1.5361    0.0000 C   0  0  0  0  0  0  0  0  0
    4.1598   -0.7515    0.0000 C   0  0  0  0  0  0  0  0  0
    4.9667   -0.5800    0.0000 C   0  0  0  0  0  0  0  0  0
    5.5188   -1.1931    0.0000 C   0  0  0  0  0  0  0  0  0
    3.6077   -0.1384    0.0000 C   0  0  0  0  0  0  0  0  0
    3.8627    0.6462    0.0000 N   0  0  0  0  0  0  0  0  0
    4.6473    0.9012    0.0000 C   0  0  0  0  0  0  0  0  0
    4.6473    1.7262    0.0000 C   0  0  0  0  0  0  0  0  0
    3.8627    1.9811    0.0000 N   0  0  0  0  0  0  0  0  0
    3.3777    1.3137    0.0000 C   0  0  0  0  0  0  0  0  0
    2.5527    1.3137    0.0000 N   0  0  0  0  0  0  0  0  0
    2.1402    0.5992    0.0000 C   0  0  0  0  0  0  0  0  0
    1.3152    0.5992    0.0000 C   0  0  0  0  0  0  0  0  0
    0.9027    1.3137    0.0000 C   0  0  0  0  0  0  0  0  0
    0.0777    1.3137    0.0000 N   0  0  0  0  0  0  0  0  0
   -0.3348    0.5992    0.0000 C   0  0  0  0  0  0  0  0  0
    1.3152    2.0281    0.0000 C   0  0  0  0  0  0  0  0  0
    2.1402    2.0281    0.0000 C   0  0  0  0  0  0  0  0  0
    5.3618    2.1387    0.0000 C   0  0  0  0  0  0  0  0  0
    6.0762    1.7262    0.0000 C   0  0  0  0  0  0  0  0  0
    6.0762    0.9012    0.0000 C   0  0  0  0  0  0  0  0  0
    5.3618    0.4887    0.0000 C   0  0  0  0  0  0  0  0  0
  1  2  1  0  0  0  0
  2  3  4  0  0  0  0
  2  7  4  0  0  0  0
  3  4  4  0  0  0  0
  4  5  4  0  0  0  0
  5  6  4  0  0  0  0
  5  8  1  0  0  0  0
  6  7  4  0  0  0  0
  8  9  1  0  0  0  0
  9 10  4  0  0  0  0
  9 13  4  0  0  0  0
 10 11  4  0  0  0  0
 10 25  4  0  0  0  0
 11 12  4  0  0  0  0
 11 22  4  0  0  0  0
 12 13  4  0  0  0  0
 13 14  1  0  0  0  0
 14 15  1  0  0  0  0
 14 21  1  0  0  0  0
 15 16  1  0  0  0  0
 16 17  1  0  0  0  0
 17 18  1  0  0  0  0
 17 20  1  0  0  0  0
 18 19  1  0  0  0  0
 20 21  1  0  0  0  0
 22 23  4  0  0  0  0
 23 24  4  0  0  0  0
 24 25  4  0  0  0  0
M  END
>  <Name_Molregno>
561195

>  <HISTAMINE H1>
8.62

>  <Muscarinic acetylcholine receptor M1>
6.01

$$$$
562713
  Marvin  02231216192D 0   1.00000     0.00000     0

 22 24  0  0  0  0  0  0  0  0999 V2000
   -1.5883   -1.0729    0.0000 S   0  0  0  0  0  0  0  0  0
   -0.8037   -0.8179    0.0000 C   0  0  0  0  0  0  0  0  0
   -0.8037    0.0071    0.0000 C   0  0  0  0  0  0  0  0  0
   -0.0892    0.4196    0.0000 C   0  0  0  0  0  0  0  0  0
    0.6253    0.0071    0.0000 C   0  0  0  0  0  0  0  0  0
    0.6253   -0.8179    0.0000 C   0  0  0  0  0  0  0  0  0
   -0.0892   -1.2304    0.0000 C   0  0  0  0  0  0  0  0  0
   -1.5883    0.2620    0.0000 C   0  0  0  0  0  0  0  0  0
   -1.8432    1.0466    0.0000 C   0  0  0  0  0  0  0  0  0
   -1.2912    1.6597    0.0000 C   0  0  0  0  0  0  0  0  0
   -1.5461    2.4443    0.0000 C   0  0  0  0  0  0  0  0  0
   -0.9941    3.0574    0.0000 C   0  0  0  0  0  0  0  0  0
   -0.1871    2.8859    0.0000 C   0  0  0  0  0  0  0  0  0
    0.3649    3.4990    0.0000 F   0  0  0  0  0  0  0  0  0
    0.0678    2.1013    0.0000 C   0  0  0  0  0  0  0  0  0
   -0.4842    1.4882    0.0000 C   0  0  0  0  0  0  0  0  0
   -2.0732   -0.4054    0.0000 C   0  0  0  0  0  0  0  0  0
   -2.8982   -0.4054    0.0000 C   0  0  0  0  0  0  0  0  0
   -3.3107   -1.1199    0.0000 C   0  0  0  0  0  0  0  0  0
   -4.1357   -1.1199    0.0000 N   0  0  0  0  0  0  0  0  0
   -4.5482   -1.8344    0.0000 C   0  0  0  0  0  0  0  0  0
   -4.5482   -0.4054    0.0000 C   0  0  0  0  0  0  0  0  0
  1  2  4  0  0  0  0
  1 17  4  0  0  0  0
  2  3  4  0  0  0  0
  2  7  4  0  0  0  0
  3  4  4  0  0  0  0
  3  8  4  0  0  0  0
  4  5  4  0  0  0  0
  5  6  4  0  0  0  0
  6  7  4  0  0  0  0
  8  9  1  0  0  0  0
  8 17  4  0  0  0  0
  9 10  1  0  0  0  0
 10 11  4  0  0  0  0
 10 16  4  0  0  0  0
 11 12  4  0  0  0  0
 12 13  4  0  0  0  0
 13 14  1  0  0  0  0
 13 15  4  0  0  0  0
 15 16  4  0  0  0  0
 17 18  1  0  0  0  0
 18 19  1  0  0  0  0
 19 20  1  0  0  0  0
 20 21  1  0  0  0  0
 20 22  1  0  0  0  0
M  END
>  <Name_Molregno>
562713

>  <5-HT2A>
10.05

>  <HISTAMINE H1>
7.96

>  <Muscarinic acetylcholine receptor M1>
8.7

$$$$
562937
  Marvin  02231216192D 0   1.00000     0.00000     0

 30 34  0  0  0  0  0  0  0  0999 V2000
    6.7279   -3.1009    0.0000 O   0  0  0  0  0  0  0  0  0
    7.5349   -2.9294    0.0000 C   0  0  0  0  0  0  0  0  0
    6.1759   -2.4878    0.0000 C   0  0  0  0  0  0  0  0  0
    5.3689   -2.6593    0.0000 C   0  0  0  0  0  0  0  0  0
    4.8169   -2.0462    0.0000 C   0  0  0  0  0  0  0  0  0
    5.0718   -1.2616    0.0000 C   0  0  0  0  0  0  0  0  0
    5.8788   -1.0901    0.0000 C   0  0  0  0  0  0  0  0  0
    6.4308   -1.7032    0.0000 C   0  0  0  0  0  0  0  0  0
    4.5198   -0.6485    0.0000 C   0  0  0  0  0  0  0  0  0
    4.7747    0.1361    0.0000 N   0  0  0  0  0  0  0  0  0
    5.5594    0.3911    0.0000 C   0  0  0  0  0  0  0  0  0
    5.5594    1.2161    0.0000 C   0  0  0  0  0  0  0  0  0
    4.7747    1.4710    0.0000 N   0  0  0  0  0  0  0  0  0
    4.2898    0.8036    0.0000 C   0  0  0  0  0  0  0  0  0
    3.4648    0.8036    0.0000 N   0  0  0  0  0  0  0  0  0
    3.0523    0.0891    0.0000 C   0  0  0  0  0  0  0  0  0
    2.2273    0.0891    0.0000 C   0  0  0  0  0  0  0  0  0
    1.8148    0.8036    0.0000 C   0  0  0  0  0  0  0  0  0
    0.9898    0.8036    0.0000 N   0  0  0  0  0  0  0  0  0
    0.5049    0.1361    0.0000 N   0  0  0  0  0  0  0  0  0
   -0.2797    0.3911    0.0000 C   0  0  0  0  0  0  0  0  0
   -0.2797    1.2161    0.0000 C   0  0  0  0  0  0  0  0  0
    0.5049    1.4710    0.0000 C   0  0  0  0  0  0  0  0  0
   -0.9472    1.7010    0.0000 C   0  0  0  0  0  0  0  0  0
    2.2273    1.5180    0.0000 C   0  0  0  0  0  0  0  0  0
    3.0523    1.5180    0.0000 C   0  0  0  0  0  0  0  0  0
    6.2738    1.6286    0.0000 C   0  0  0  0  0  0  0  0  0
    6.9883    1.2161    0.0000 C   0  0  0  0  0  0  0  0  0
    6.9883    0.3911    0.0000 C   0  0  0  0  0  0  0  0  0
    6.2738   -0.0214    0.0000 C   0  0  0  0  0  0  0  0  0
  1  2  1  0  0  0  0
  1  3  1  0  0  0  0
  3  4  4  0  0  0  0
  3  8  4  0  0  0  0
  4  5  4  0  0  0  0
  5  6  4  0  0  0  0
  6  7  4  0  0  0  0
  6  9  1  0  0  0  0
  7  8  4  0  0  0  0
  9 10  1  0  0  0  0
 10 11  4  0  0  0  0
 10 14  4  0  0  0  0
 11 12  4  0  0  0  0
 11 30  4  0  0  0  0
 12 13  4  0  0  0  0
 12 27  4  0  0  0  0
 13 14  4  0  0  0  0
 14 15  1  0  0  0  0
 15 16  1  0  0  0  0
 15 26  1  0  0  0  0
 16 17  1  0  0  0  0
 17 18  1  0  0  0  0
 18 19  1  0  0  0  0
 18 25  1  0  0  0  0
 19 20  4  0  0  0  0
 19 23  4  0  0  0  0
 20 21  4  0  0  0  0
 21 22  4  0  0  0  0
 22 23  4  0  0  0  0
 22 24  1  0  0  0  0
 25 26  1  0  0  0  0
 27 28  4  0  0  0  0
 28 29  4  0  0  0  0
 29 30  4  0  0  0  0
M  END
>  <Name_Molregno>
562937

>  <HISTAMINE H1>
8.15

$$$$
562938
  Marvin  02231216192D 0   1.00000     0.00000     0

 32 36  0  0  0  0  0  0  0  0999 V2000
    7.9774   -3.2944    0.0000 F   0  0  0  0  0  0  0  0  0
    7.4253   -2.6813    0.0000 C   0  0  0  0  0  0  0  0  0
    6.6184   -2.8528    0.0000 C   0  0  0  0  0  0  0  0  0
    6.0663   -2.2397    0.0000 C   0  0  0  0  0  0  0  0  0
    6.3213   -1.4551    0.0000 C   0  0  0  0  0  0  0  0  0
    7.1282   -1.2835    0.0000 C   0  0  0  0  0  0  0  0  0
    7.6803   -1.8966    0.0000 C   0  0  0  0  0  0  0  0  0
    5.7692   -0.8420    0.0000 C   0  0  0  0  0  0  0  0  0
    6.0242   -0.0574    0.0000 N   0  0  0  0  0  0  0  0  0
    6.8088    0.1976    0.0000 C   0  0  0  0  0  0  0  0  0
    6.8088    1.0226    0.0000 C   0  0  0  0  0  0  0  0  0
    6.0242    1.2775    0.0000 N   0  0  0  0  0  0  0  0  0
    5.5392    0.6101    0.0000 C   0  0  0  0  0  0  0  0  0
    4.7142    0.6101    0.0000 N   0  0  0  0  0  0  0  0  0
    4.3017   -0.1044    0.0000 C   0  0  0  0  0  0  0  0  0
    3.4767   -0.1044    0.0000 C   0  0  0  0  0  0  0  0  0
    3.0642    0.6101    0.0000 C   0  0  0  0  0  0  0  0  0
    2.2392    0.6101    0.0000 N   0  0  0  0  0  0  0  0  0
    1.8267   -0.1044    0.0000 C   0  0  0  0  0  0  0  0  0
    1.0017   -0.1044    0.0000 C   0  0  0  0  0  0  0  0  0
    0.5892   -0.8189    0.0000 C   0  0  0  0  0  0  0  0  0
   -0.2358   -0.8189    0.0000 C   0  0  0  0  0  0  0  0  0
   -0.6483   -0.1044    0.0000 C   0  0  0  0  0  0  0  0  0
   -0.2358    0.6101    0.0000 C   0  0  0  0  0  0  0  0  0
    0.5892    0.6101    0.0000 C   0  0  0  0  0  0  0  0  0
    1.8267    1.3246    0.0000 C   0  0  0  0  0  0  0  0  0
    3.4767    1.3246    0.0000 C   0  0  0  0  0  0  0  0  0
    4.3017    1.3246    0.0000 C   0  0  0  0  0  0  0  0  0
    7.5233    1.4351    0.0000 C   0  0  0  0  0  0  0  0  0
    8.2377    1.0226    0.0000 C   0  0  0  0  0  0  0  0  0
    8.2377    0.1976    0.0000 C   0  0  0  0  0  0  0  0  0
    7.5233   -0.2149    0.0000 C   0  0  0  0  0  0  0  0  0
  1  2  1  0  0  0  0
  2  3  4  0  0  0  0
  2  7  4  0  0  0  0
  3  4  4  0  0  0  0
  4  5  4  0  0  0  0
  5  6  4  0  0  0  0
  5  8  1  0  0  0  0
  6  7  4  0  0  0  0
  8  9  1  0  0  0  0
  9 10  4  0  0  0  0
  9 13  4  0  0  0  0
 10 11  4  0  0  0  0
 10 32  4  0  0  0  0
 11 12  4  0  0  0  0
 11 29  4  0  0  0  0
 12 13  4  0  0  0  0
 13 14  1  0  0  0  0
 14 15  1  0  0  0  0
 14 28  1  0  0  0  0
 15 16  1  0  0  0  0
 16 17  1  0  0  0  0
 17 18  1  0  0  0  0
 17 27  1  0  0  0  0
 18 19  1  0  0  0  0
 18 26  1  0  0  0  0
 19 20  1  0  0  0  0
 20 21  4  0  0  0  0
 20 25  4  0  0  0  0
 21 22  4  0  0  0  0
 22 23  4  0  0  0  0
 23 24  4  0  0  0  0
 24 25  4  0  0  0  0
 27 28  1  0  0  0  0
 29 30  4  0  0  0  0
 30 31  4  0  0  0  0
 31 32  4  0  0  0  0
M  END
>  <Name_Molregno>
562938

>  <HISTAMINE H1>
8.44

>  <Muscarinic acetylcholine receptor M1>
5.45

$$$$
564418
  Marvin  02231216192D 0   1.00000     0.00000     0

 22 24  0  0  1  0  0  0  0  0999 V2000
    2.5908    0.4861    0.0000 N   0  0  0  0  0  0  0  0  0
    3.1429   -0.1270    0.0000 C   0  0  0  0  0  0  0  0  0
    2.8879   -0.9116    0.0000 C   0  0  0  0  0  0  0  0  0
    2.0810   -1.0831    0.0000 C   0  0  0  0  0  0  0  0  0
    1.5289   -0.4700    0.0000 C   0  0  0  0  0  0  0  0  0
    1.7839    0.3146    0.0000 C   0  0  0  0  0  0  0  0  0
    1.2318    0.9277    0.0000 C   0  0  0  0  0  0  0  0  0
    0.4249    0.7562    0.0000 C   0  0  0  0  0  0  0  0  0
    1.4868    1.7123    0.0000 C   0  0  0  0  0  0  0  0  0
    2.2714    1.9672    0.0000 C   0  0  0  0  0  0  0  0  0
    2.2714    2.7922    0.0000 C   0  0  0  0  0  0  0  0  0
    1.4868    3.0472    0.0000 C   0  0  0  0  0  0  0  0  0
    1.0019    2.3797    0.0000 C   0  0  0  0  0  0  0  0  0
    0.1769    2.3797    0.0000 C   0  0  0  0  0  0  0  0  0
   -0.2356    1.6653    0.0000 C   0  0  0  0  0  0  0  0  0
   -1.0606    1.6653    0.0000 N   0  0  0  0  0  0  0  0  0
   -1.4731    0.9508    0.0000 C   0  0  0  0  0  0  0  0  0
   -1.4731    2.3797    0.0000 C   0  0  0  0  0  0  0  0  0
    2.9859    3.2047    0.0000 C   0  0  0  0  0  0  0  0  0
    3.7003    2.7922    0.0000 C   0  0  0  0  0  0  0  0  0
    3.7003    1.9672    0.0000 C   0  0  0  0  0  0  0  0  0
    2.9859    1.5547    0.0000 C   0  0  0  0  0  0  0  0  0
  1  2  4  0  0  0  0
  1  6  4  0  0  0  0
  2  3  4  0  0  0  0
  3  4  4  0  0  0  0
  4  5  4  0  0  0  0
  5  6  4  0  0  0  0
  6  7  1  0  0  0  0
  7  8  1  0  0  0  0
  7  9  1  0  0  0  0
  9 10  1  0  0  0  0
  9 13  2  0  0  0  0
 10 11  4  0  0  0  0
 10 22  4  0  0  0  0
 11 12  1  0  0  0  0
 11 19  4  0  0  0  0
 12 13  1  0  0  0  0
 13 14  1  0  0  0  0
 14 15  1  0  0  0  0
 15 16  1  0  0  0  0
 16 17  1  0  0  0  0
 16 18  1  0  0  0  0
 19 20  4  0  0  0  0
 20 21  4  0  0  0  0
 21 22  4  0  0  0  0
M  END
>  <Name_Molregno>
564418

>  <HISTAMINE H1>
9.4

>  <Muscarinic acetylcholine receptor M1>
8.62

$$$$
564421
  Marvin  02231216192D 0   1.00000     0.00000     0

 21 23  0  0  0  0  0  0  0  0999 V2000
   -1.3405   -0.9094    0.0000 S   0  0  0  0  0  0  0  0  0
   -0.5559   -0.6545    0.0000 C   0  0  0  0  0  0  0  0  0
   -0.5559    0.1705    0.0000 C   0  0  0  0  0  0  0  0  0
    0.1586    0.5830    0.0000 C   0  0  0  0  0  0  0  0  0
    0.8730    0.1705    0.0000 C   0  0  0  0  0  0  0  0  0
    0.8730   -0.6545    0.0000 C   0  0  0  0  0  0  0  0  0
    0.1586   -1.0670    0.0000 C   0  0  0  0  0  0  0  0  0
   -1.3405    0.4254    0.0000 C   0  0  0  0  0  0  0  0  0
   -1.5955    1.2101    0.0000 C   0  0  0  0  0  0  0  0  0
   -1.0434    1.8232    0.0000 C   0  0  0  0  0  0  0  0  0
   -1.2984    2.6078    0.0000 N   0  0  0  0  0  0  0  0  0
   -0.7463    3.2209    0.0000 C   0  0  0  0  0  0  0  0  0
    0.0606    3.0493    0.0000 C   0  0  0  0  0  0  0  0  0
    0.3156    2.2647    0.0000 N   0  0  0  0  0  0  0  0  0
   -0.2365    1.6516    0.0000 C   0  0  0  0  0  0  0  0  0
   -1.8255   -0.2420    0.0000 C   0  0  0  0  0  0  0  0  0
   -2.6505   -0.2420    0.0000 C   0  0  0  0  0  0  0  0  0
   -3.0630   -0.9565    0.0000 C   0  0  0  0  0  0  0  0  0
   -3.8880   -0.9565    0.0000 N   0  0  0  0  0  0  0  0  0
   -4.3005   -1.6709    0.0000 C   0  0  0  0  0  0  0  0  0
   -4.3005   -0.2420    0.0000 C   0  0  0  0  0  0  0  0  0
  1  2  4  0  0  0  0
  1 16  4  0  0  0  0
  2  3  4  0  0  0  0
  2  7  4  0  0  0  0
  3  4  4  0  0  0  0
  3  8  4  0  0  0  0
  4  5  4  0  0  0  0
  5  6  4  0  0  0  0
  6  7  4  0  0  0  0
  8  9  1  0  0  0  0
  8 16  4  0  0  0  0
  9 10  1  0  0  0  0
 10 11  4  0  0  0  0
 10 15  4  0  0  0  0
 11 12  4  0  0  0  0
 12 13  4  0  0  0  0
 13 14  4  0  0  0  0
 14 15  4  0  0  0  0
 16 17  1  0  0  0  0
 17 18  1  0  0  0  0
 18 19  1  0  0  0  0
 19 20  1  0  0  0  0
 19 21  1  0  0  0  0
M  END
>  <Name_Molregno>
564421

>  <HISTAMINE H1>
7.12

$$$$
564651
  Marvin  02231216192D 0   1.00000     0.00000     0

 29 32  0  0  0  0  0  0  0  0999 V2000
    6.9628   -2.1757    0.0000 F   0  0  0  0  0  0  0  0  0
    6.4108   -1.5626    0.0000 C   0  0  0  0  0  0  0  0  0
    5.6038   -1.7341    0.0000 C   0  0  0  0  0  0  0  0  0
    5.0518   -1.1210    0.0000 C   0  0  0  0  0  0  0  0  0
    5.3067   -0.3364    0.0000 C   0  0  0  0  0  0  0  0  0
    6.1137   -0.1649    0.0000 C   0  0  0  0  0  0  0  0  0
    6.6657   -0.7780    0.0000 C   0  0  0  0  0  0  0  0  0
    4.7547    0.2767    0.0000 C   0  0  0  0  0  0  0  0  0
    5.0096    1.0613    0.0000 N   0  0  0  0  0  0  0  0  0
    5.7942    1.3162    0.0000 C   0  0  0  0  0  0  0  0  0
    5.7942    2.1412    0.0000 C   0  0  0  0  0  0  0  0  0
    5.0096    2.3962    0.0000 N   0  0  0  0  0  0  0  0  0
    4.5247    1.7287    0.0000 C   0  0  0  0  0  0  0  0  0
    3.6997    1.7287    0.0000 N   0  0  0  0  0  0  0  0  0
    3.2872    1.0143    0.0000 C   0  0  0  0  0  0  0  0  0
    2.4622    1.0143    0.0000 C   0  0  0  0  0  0  0  0  0
    2.0497    1.7287    0.0000 C   0  0  0  0  0  0  0  0  0
    1.2247    1.7287    0.0000 N   0  0  0  0  0  0  0  0  0
    0.8122    2.4432    0.0000 C   0  0  0  0  0  0  0  0  0
   -0.0128    2.4432    0.0000 C   0  0  0  0  0  0  0  0  0
   -0.4253    3.1577    0.0000 O   0  0  0  0  0  0  0  0  0
   -1.2503    3.1577    0.0000 C   0  0  0  0  0  0  0  0  0
    0.8122    1.0143    0.0000 C   0  0  0  0  0  0  0  0  0
    2.4622    2.4432    0.0000 C   0  0  0  0  0  0  0  0  0
    3.2872    2.4432    0.0000 C   0  0  0  0  0  0  0  0  0
    6.5087    2.5537    0.0000 C   0  0  0  0  0  0  0  0  0
    7.2232    2.1412    0.0000 C   0  0  0  0  0  0  0  0  0
    7.2232    1.3162    0.0000 C   0  0  0  0  0  0  0  0  0
    6.5087    0.9037    0.0000 C   0  0  0  0  0  0  0  0  0
  1  2  1  0  0  0  0
  2  3  4  0  0  0  0
  2  7  4  0  0  0  0
  3  4  4  0  0  0  0
  4  5  4  0  0  0  0
  5  6  4  0  0  0  0
  5  8  1  0  0  0  0
  6  7  4  0  0  0  0
  8  9  1  0  0  0  0
  9 10  4  0  0  0  0
  9 13  4  0  0  0  0
 10 11  4  0  0  0  0
 10 29  4  0  0  0  0
 11 12  4  0  0  0  0
 11 26  4  0  0  0  0
 12 13  4  0  0  0  0
 13 14  1  0  0  0  0
 14 15  1  0  0  0  0
 14 25  1  0  0  0  0
 15 16  1  0  0  0  0
 16 17  1  0  0  0  0
 17 18  1  0  0  0  0
 17 24  1  0  0  0  0
 18 19  1  0  0  0  0
 18 23  1  0  0  0  0
 19 20  1  0  0  0  0
 20 21  1  0  0  0  0
 21 22  1  0  0  0  0
 24 25  1  0  0  0  0
 26 27  4  0  0  0  0
 27 28  4  0  0  0  0
 28 29  4  0  0  0  0
M  END
>  <Name_Molregno>
564651

>  <HISTAMINE H1>
8.66

$$$$
564683
  Marvin  02231216192D 0   1.00000     0.00000     0

 28 32  0  0  0  0  0  0  0  0999 V2000
    6.6753   -3.0409    0.0000 F   0  0  0  0  0  0  0  0  0
    6.1233   -2.4278    0.0000 C   0  0  0  0  0  0  0  0  0
    5.3163   -2.5993    0.0000 C   0  0  0  0  0  0  0  0  0
    4.7642   -1.9862    0.0000 C   0  0  0  0  0  0  0  0  0
    5.0192   -1.2016    0.0000 C   0  0  0  0  0  0  0  0  0
    5.8262   -1.0301    0.0000 C   0  0  0  0  0  0  0  0  0
    6.3782   -1.6432    0.0000 C   0  0  0  0  0  0  0  0  0
    4.4672   -0.5885    0.0000 C   0  0  0  0  0  0  0  0  0
    4.7221    0.1961    0.0000 N   0  0  0  0  0  0  0  0  0
    5.5067    0.4511    0.0000 C   0  0  0  0  0  0  0  0  0
    5.5067    1.2761    0.0000 C   0  0  0  0  0  0  0  0  0
    4.7221    1.5310    0.0000 N   0  0  0  0  0  0  0  0  0
    4.2372    0.8636    0.0000 C   0  0  0  0  0  0  0  0  0
    3.4122    0.8636    0.0000 N   0  0  0  0  0  0  0  0  0
    2.9997    0.1491    0.0000 C   0  0  0  0  0  0  0  0  0
    2.1747    0.1491    0.0000 C   0  0  0  0  0  0  0  0  0
    1.7622    0.8636    0.0000 C   0  0  0  0  0  0  0  0  0
    0.9372    0.8636    0.0000 N   0  0  0  0  0  0  0  0  0
    0.4522    0.1961    0.0000 N   0  0  0  0  0  0  0  0  0
   -0.3324    0.4511    0.0000 C   0  0  0  0  0  0  0  0  0
   -0.3324    1.2761    0.0000 C   0  0  0  0  0  0  0  0  0
    0.4522    1.5310    0.0000 C   0  0  0  0  0  0  0  0  0
    2.1747    1.5780    0.0000 C   0  0  0  0  0  0  0  0  0
    2.9997    1.5780    0.0000 C   0  0  0  0  0  0  0  0  0
    6.2212    1.6886    0.0000 C   0  0  0  0  0  0  0  0  0
    6.9357    1.2761    0.0000 C   0  0  0  0  0  0  0  0  0
    6.9357    0.4511    0.0000 C   0  0  0  0  0  0  0  0  0
    6.2212    0.0386    0.0000 C   0  0  0  0  0  0  0  0  0
  1  2  1  0  0  0  0
  2  3  4  0  0  0  0
  2  7  4  0  0  0  0
  3  4  4  0  0  0  0
  4  5  4  0  0  0  0
  5  6  4  0  0  0  0
  5  8  1  0  0  0  0
  6  7  4  0  0  0  0
  8  9  1  0  0  0  0
  9 10  4  0  0  0  0
  9 13  4  0  0  0  0
 10 11  4  0  0  0  0
 10 28  4  0  0  0  0
 11 12  4  0  0  0  0
 11 25  4  0  0  0  0
 12 13  4  0  0  0  0
 13 14  1  0  0  0  0
 14 15  1  0  0  0  0
 14 24  1  0  0  0  0
 15 16  1  0  0  0  0
 16 17  1  0  0  0  0
 17 18  1  0  0  0  0
 17 23  1  0  0  0  0
 18 19  4  0  0  0  0
 18 22  4  0  0  0  0
 19 20  4  0  0  0  0
 20 21  4  0  0  0  0
 21 22  4  0  0  0  0
 23 24  1  0  0  0  0
 25 26  4  0  0  0  0
 26 27  4  0  0  0  0
 27 28  4  0  0  0  0
M  END
>  <Name_Molregno>
564683

>  <HISTAMINE H1>
7.74

$$$$
566207
  Marvin  02231216192D 0   1.00000     0.00000     0

 21 23  0  0  0  0  0  0  0  0999 V2000
    2.5436   -0.8872    0.0000 N   0  0  0  0  0  0  0  0  0
    3.0956   -1.5003    0.0000 C   0  0  0  0  0  0  0  0  0
    2.8407   -2.2850    0.0000 C   0  0  0  0  0  0  0  0  0
    2.0337   -2.4565    0.0000 N   0  0  0  0  0  0  0  0  0
    1.4817   -1.8434    0.0000 C   0  0  0  0  0  0  0  0  0
    1.7366   -1.0588    0.0000 C   0  0  0  0  0  0  0  0  0
    1.1846   -0.4457    0.0000 C   0  0  0  0  0  0  0  0  0
    1.4395    0.3390    0.0000 C   0  0  0  0  0  0  0  0  0
    2.2242    0.5939    0.0000 C   0  0  0  0  0  0  0  0  0
    2.2242    1.4189    0.0000 C   0  0  0  0  0  0  0  0  0
    1.4395    1.6738    0.0000 C   0  0  0  0  0  0  0  0  0
    0.9546    1.0064    0.0000 C   0  0  0  0  0  0  0  0  0
    0.1296    1.0064    0.0000 C   0  0  0  0  0  0  0  0  0
   -0.2829    0.2919    0.0000 C   0  0  0  0  0  0  0  0  0
   -1.1079    0.2919    0.0000 N   0  0  0  0  0  0  0  0  0
   -1.5204   -0.4225    0.0000 C   0  0  0  0  0  0  0  0  0
   -1.5204    1.0064    0.0000 C   0  0  0  0  0  0  0  0  0
    2.9386    1.8314    0.0000 C   0  0  0  0  0  0  0  0  0
    3.6531    1.4189    0.0000 C   0  0  0  0  0  0  0  0  0
    3.6531    0.5939    0.0000 C   0  0  0  0  0  0  0  0  0
    2.9386    0.1814    0.0000 C   0  0  0  0  0  0  0  0  0
  1  2  4  0  0  0  0
  1  6  4  0  0  0  0
  2  3  4  0  0  0  0
  3  4  4  0  0  0  0
  4  5  4  0  0  0  0
  5  6  4  0  0  0  0
  6  7  1  0  0  0  0
  7  8  1  0  0  0  0
  8  9  1  0  0  0  0
  8 12  2  0  0  0  0
  9 10  4  0  0  0  0
  9 21  4  0  0  0  0
 10 11  1  0  0  0  0
 10 18  4  0  0  0  0
 11 12  1  0  0  0  0
 12 13  1  0  0  0  0
 13 14  1  0  0  0  0
 14 15  1  0  0  0  0
 15 16  1  0  0  0  0
 15 17  1  0  0  0  0
 18 19  4  0  0  0  0
 19 20  4  0  0  0  0
 20 21  4  0  0  0  0
M  END
>  <Name_Molregno>
566207

>  <5-HT2A>
9.22

>  <HISTAMINE H1>
8.4

>  <Muscarinic acetylcholine receptor M1>
7.72

$$$$
566436
  Marvin  02231216192D 0   1.00000     0.00000     0

 26 29  0  0  0  0  0  0  0  0999 V2000
    6.0734   -2.7822    0.0000 F   0  0  0  0  0  0  0  0  0
    5.5214   -2.1691    0.0000 C   0  0  0  0  0  0  0  0  0
    4.7144   -2.3406    0.0000 C   0  0  0  0  0  0  0  0  0
    4.1624   -1.7275    0.0000 C   0  0  0  0  0  0  0  0  0
    4.4173   -0.9429    0.0000 C   0  0  0  0  0  0  0  0  0
    5.2243   -0.7714    0.0000 C   0  0  0  0  0  0  0  0  0
    5.7763   -1.3845    0.0000 C   0  0  0  0  0  0  0  0  0
    3.8653   -0.3298    0.0000 C   0  0  0  0  0  0  0  0  0
    4.1202    0.4548    0.0000 N   0  0  0  0  0  0  0  0  0
    4.9049    0.7098    0.0000 C   0  0  0  0  0  0  0  0  0
    4.9049    1.5348    0.0000 C   0  0  0  0  0  0  0  0  0
    4.1202    1.7897    0.0000 N   0  0  0  0  0  0  0  0  0
    3.6353    1.1223    0.0000 C   0  0  0  0  0  0  0  0  0
    2.8103    1.1223    0.0000 N   0  0  0  0  0  0  0  0  0
    2.3978    0.4078    0.0000 C   0  0  0  0  0  0  0  0  0
    1.5728    0.4078    0.0000 C   0  0  0  0  0  0  0  0  0
    1.1603    1.1223    0.0000 C   0  0  0  0  0  0  0  0  0
    0.3353    1.1223    0.0000 N   0  0  0  0  0  0  0  0  0
   -0.0772    0.4078    0.0000 C   0  0  0  0  0  0  0  0  0
   -0.0772    1.8367    0.0000 C   0  0  0  0  0  0  0  0  0
    1.5728    1.8367    0.0000 C   0  0  0  0  0  0  0  0  0
    2.3978    1.8367    0.0000 C   0  0  0  0  0  0  0  0  0
    5.6193    1.9473    0.0000 C   0  0  0  0  0  0  0  0  0
    6.3338    1.5348    0.0000 C   0  0  0  0  0  0  0  0  0
    6.3338    0.7098    0.0000 C   0  0  0  0  0  0  0  0  0
    5.6193    0.2973    0.0000 C   0  0  0  0  0  0  0  0  0
  1  2  1  0  0  0  0
  2  3  4  0  0  0  0
  2  7  4  0  0  0  0
  3  4  4  0  0  0  0
  4  5  4  0  0  0  0
  5  6  4  0  0  0  0
  5  8  1  0  0  0  0
  6  7  4  0  0  0  0
  8  9  1  0  0  0  0
  9 10  4  0  0  0  0
  9 13  4  0  0  0  0
 10 11  4  0  0  0  0
 10 26  4  0  0  0  0
 11 12  4  0  0  0  0
 11 23  4  0  0  0  0
 12 13  4  0  0  0  0
 13 14  1  0  0  0  0
 14 15  1  0  0  0  0
 14 22  1  0  0  0  0
 15 16  1  0  0  0  0
 16 17  1  0  0  0  0
 17 18  1  0  0  0  0
 17 21  1  0  0  0  0
 18 19  1  0  0  0  0
 18 20  1  0  0  0  0
 21 22  1  0  0  0  0
 23 24  4  0  0  0  0
 24 25  4  0  0  0  0
 25 26  4  0  0  0  0
M  END
>  <Name_Molregno>
566436

>  <HISTAMINE H1>
8.74

$$$$
566437
  Marvin  02231216192D 0   1.00000     0.00000     0

 26 29  0  0  0  0  0  0  0  0999 V2000
    0.1738   -0.0073    0.0000 N   0  0  0  0  0  0  0  0  0
    0.9584    0.2476    0.0000 C   0  0  0  0  0  0  0  0  0
    0.9584    1.0726    0.0000 C   0  0  0  0  0  0  0  0  0
    0.1738    1.3275    0.0000 N   0  0  0  0  0  0  0  0  0
   -0.0812    2.1122    0.0000 C   0  0  0  0  0  0  0  0  0
    0.4708    2.7253    0.0000 C   0  0  0  0  0  0  0  0  0
    0.2159    3.5099    0.0000 C   0  0  0  0  0  0  0  0  0
    0.7679    4.1230    0.0000 C   0  0  0  0  0  0  0  0  0
    1.5749    3.9514    0.0000 C   0  0  0  0  0  0  0  0  0
    1.8299    3.1668    0.0000 C   0  0  0  0  0  0  0  0  0
    1.2778    2.5537    0.0000 C   0  0  0  0  0  0  0  0  0
    2.1269    4.5645    0.0000 C   0  0  0  0  0  0  0  0  0
   -0.3112    0.6601    0.0000 C   0  0  0  0  0  0  0  0  0
   -1.1362    0.6601    0.0000 N   0  0  0  0  0  0  0  0  0
   -1.5487   -0.0544    0.0000 C   0  0  0  0  0  0  0  0  0
   -2.3737   -0.0544    0.0000 C   0  0  0  0  0  0  0  0  0
   -2.7862    0.6601    0.0000 C   0  0  0  0  0  0  0  0  0
   -3.6112    0.6601    0.0000 N   0  0  0  0  0  0  0  0  0
   -4.0237   -0.0544    0.0000 C   0  0  0  0  0  0  0  0  0
   -4.0237    1.3746    0.0000 C   0  0  0  0  0  0  0  0  0
   -2.3737    1.3746    0.0000 C   0  0  0  0  0  0  0  0  0
   -1.5487    1.3746    0.0000 C   0  0  0  0  0  0  0  0  0
    1.6728    1.4851    0.0000 C   0  0  0  0  0  0  0  0  0
    2.3873    1.0726    0.0000 C   0  0  0  0  0  0  0  0  0
    2.3873    0.2476    0.0000 C   0  0  0  0  0  0  0  0  0
    1.6728   -0.1649    0.0000 C   0  0  0  0  0  0  0  0  0
  1  2  4  0  0  0  0
  1 13  4  0  0  0  0
  2  3  4  0  0  0  0
  2 26  4  0  0  0  0
  3  4  4  0  0  0  0
  3 23  4  0  0  0  0
  4  5  1  0  0  0  0
  4 13  4  0  0  0  0
  5  6  1  0  0  0  0
  6  7  4  0  0  0  0
  6 11  4  0  0  0  0
  7  8  4  0  0  0  0
  8  9  4  0  0  0  0
  9 10  4  0  0  0  0
  9 12  1  0  0  0  0
 10 11  4  0  0  0  0
 13 14  1  0  0  0  0
 14 15  1  0  0  0  0
 14 22  1  0  0  0  0
 15 16  1  0  0  0  0
 16 17  1  0  0  0  0
 17 18  1  0  0  0  0
 17 21  1  0  0  0  0
 18 19  1  0  0  0  0
 18 20  1  0  0  0  0
 21 22  1  0  0  0  0
 23 24  4  0  0  0  0
 24 25  4  0  0  0  0
 25 26  4  0  0  0  0
M  END
>  <Name_Molregno>
566437

>  <HISTAMINE H1>
8.82

$$$$
566438
  Marvin  02231216192D 0   1.00000     0.00000     0

 27 30  0  0  0  0  0  0  0  0999 V2000
    5.7995   -2.6594    0.0000 O   0  0  0  0  0  0  0  0  0
    6.6064   -2.4879    0.0000 C   0  0  0  0  0  0  0  0  0
    5.2474   -2.0463    0.0000 C   0  0  0  0  0  0  0  0  0
    4.4405   -2.2179    0.0000 C   0  0  0  0  0  0  0  0  0
    3.8884   -1.6048    0.0000 C   0  0  0  0  0  0  0  0  0
    4.1434   -0.8201    0.0000 C   0  0  0  0  0  0  0  0  0
    4.9503   -0.6486    0.0000 C   0  0  0  0  0  0  0  0  0
    5.5024   -1.2617    0.0000 C   0  0  0  0  0  0  0  0  0
    3.5913   -0.2071    0.0000 C   0  0  0  0  0  0  0  0  0
    3.8463    0.5776    0.0000 N   0  0  0  0  0  0  0  0  0
    4.6309    0.8325    0.0000 C   0  0  0  0  0  0  0  0  0
    4.6309    1.6575    0.0000 C   0  0  0  0  0  0  0  0  0
    3.8463    1.9124    0.0000 N   0  0  0  0  0  0  0  0  0
    3.3614    1.2450    0.0000 C   0  0  0  0  0  0  0  0  0
    2.5364    1.2450    0.0000 N   0  0  0  0  0  0  0  0  0
    2.1239    0.5305    0.0000 C   0  0  0  0  0  0  0  0  0
    1.2989    0.5305    0.0000 C   0  0  0  0  0  0  0  0  0
    0.8864    1.2450    0.0000 C   0  0  0  0  0  0  0  0  0
    0.0614    1.2450    0.0000 N   0  0  0  0  0  0  0  0  0
   -0.3511    0.5305    0.0000 C   0  0  0  0  0  0  0  0  0
   -0.3511    1.9595    0.0000 C   0  0  0  0  0  0  0  0  0
    1.2989    1.9595    0.0000 C   0  0  0  0  0  0  0  0  0
    2.1239    1.9595    0.0000 C   0  0  0  0  0  0  0  0  0
    5.3454    2.0700    0.0000 C   0  0  0  0  0  0  0  0  0
    6.0598    1.6575    0.0000 C   0  0  0  0  0  0  0  0  0
    6.0598    0.8325    0.0000 C   0  0  0  0  0  0  0  0  0
    5.3454    0.4200    0.0000 C   0  0  0  0  0  0  0  0  0
  1  2  1  0  0  0  0
  1  3  1  0  0  0  0
  3  4  4  0  0  0  0
  3  8  4  0  0  0  0
  4  5  4  0  0  0  0
  5  6  4  0  0  0  0
  6  7  4  0  0  0  0
  6  9  1  0  0  0  0
  7  8  4  0  0  0  0
  9 10  1  0  0  0  0
 10 11  4  0  0  0  0
 10 14  4  0  0  0  0
 11 12  4  0  0  0  0
 11 27  4  0  0  0  0
 12 13  4  0  0  0  0
 12 24  4  0  0  0  0
 13 14  4  0  0  0  0
 14 15  1  0  0  0  0
 15 16  1  0  0  0  0
 15 23  1  0  0  0  0
 16 17  1  0  0  0  0
 17 18  1  0  0  0  0
 18 19  1  0  0  0  0
 18 22  1  0  0  0  0
 19 20  1  0  0  0  0
 19 21  1  0  0  0  0
 22 23  1  0  0  0  0
 24 25  4  0  0  0  0
 25 26  4  0  0  0  0
 26 27  4  0  0  0  0
M  END
>  <Name_Molregno>
566438

>  <HISTAMINE H1>
8.62

$$$$
566439
  Marvin  02231216192D 0   1.00000     0.00000     0

 33 37  0  0  0  0  0  0  0  0999 V2000
   -0.1296   -2.6775    0.0000 O   0  0  0  0  0  0  0  0  0
    0.2829   -1.9631    0.0000 C   0  0  0  0  0  0  0  0  0
    1.1079   -1.9631    0.0000 C   0  0  0  0  0  0  0  0  0
    1.5204   -2.6775    0.0000 C   0  0  0  0  0  0  0  0  0
    1.1079   -3.3920    0.0000 C   0  0  0  0  0  0  0  0  0
    0.2829   -3.3920    0.0000 C   0  0  0  0  0  0  0  0  0
    2.3454   -2.6775    0.0000 C   0  0  0  0  0  0  0  0  0
    2.7579   -1.9631    0.0000 N   0  0  0  0  0  0  0  0  0
    2.3454   -1.2486    0.0000 C   0  0  0  0  0  0  0  0  0
    3.5829   -1.9631    0.0000 C   0  0  0  0  0  0  0  0  0
    3.9954   -1.2486    0.0000 C   0  0  0  0  0  0  0  0  0
    4.8204   -1.2486    0.0000 C   0  0  0  0  0  0  0  0  0
    5.2329   -1.9631    0.0000 N   0  0  0  0  0  0  0  0  0
    4.8204   -2.6775    0.0000 C   0  0  0  0  0  0  0  0  0
    3.9954   -2.6775    0.0000 C   0  0  0  0  0  0  0  0  0
    6.0579   -1.9631    0.0000 C   0  0  0  0  0  0  0  0  0
    6.5428   -2.6305    0.0000 N   0  0  0  0  0  0  0  0  0
    7.3274   -2.3756    0.0000 C   0  0  0  0  0  0  0  0  0
    7.3274   -1.5506    0.0000 C   0  0  0  0  0  0  0  0  0
    6.5428   -1.2956    0.0000 N   0  0  0  0  0  0  0  0  0
    6.2878   -0.5110    0.0000 C   0  0  0  0  0  0  0  0  0
    6.8399    0.1021    0.0000 C   0  0  0  0  0  0  0  0  0
    6.5849    0.8867    0.0000 C   0  0  0  0  0  0  0  0  0
    7.1370    1.4998    0.0000 C   0  0  0  0  0  0  0  0  0
    7.9439    1.3283    0.0000 C   0  0  0  0  0  0  0  0  0
    8.4960    1.9414    0.0000 O   0  0  0  0  0  0  0  0  0
    8.2410    2.7260    0.0000 C   0  0  0  0  0  0  0  0  0
    8.1989    0.5437    0.0000 C   0  0  0  0  0  0  0  0  0
    7.6468   -0.0694    0.0000 C   0  0  0  0  0  0  0  0  0
    8.0419   -1.1381    0.0000 C   0  0  0  0  0  0  0  0  0
    8.7563   -1.5506    0.0000 C   0  0  0  0  0  0  0  0  0
    8.7563   -2.3756    0.0000 C   0  0  0  0  0  0  0  0  0
    8.0419   -2.7881    0.0000 C   0  0  0  0  0  0  0  0  0
  1  2  1  0  0  0  0
  1  6  1  0  0  0  0
  2  3  1  0  0  0  0
  3  4  1  0  0  0  0
  4  5  1  0  0  0  0
  4  7  1  0  0  0  0
  5  6  1  0  0  0  0
  7  8  1  0  0  0  0
  8  9  1  0  0  0  0
  8 10  1  0  0  0  0
 10 11  1  0  0  0  0
 10 15  1  0  0  0  0
 11 12  1  0  0  0  0
 12 13  1  0  0  0  0
 13 14  1  0  0  0  0
 13 16  1  0  0  0  0
 14 15  1  0  0  0  0
 16 17  4  0  0  0  0
 16 20  4  0  0  0  0
 17 18  4  0  0  0  0
 18 19  4  0  0  0  0
 18 33  4  0  0  0  0
 19 20  4  0  0  0  0
 19 30  4  0  0  0  0
 20 21  1  0  0  0  0
 21 22  1  0  0  0  0
 22 23  4  0  0  0  0
 22 29  4  0  0  0  0
 23 24  4  0  0  0  0
 24 25  4  0  0  0  0
 25 26  1  0  0  0  0
 25 28  4  0  0  0  0
 26 27  1  0  0  0  0
 28 29  4  0  0  0  0
 30 31  4  0  0  0  0
 31 32  4  0  0  0  0
 32 33  4  0  0  0  0
M  END
>  <Name_Molregno>
566439

>  <HISTAMINE H1>
7.85

$$$$
566455
  Marvin  02231216192D 0   1.00000     0.00000     0

 31 35  0  0  0  0  0  0  0  0999 V2000
    7.7215   -2.0456    0.0000 F   0  0  0  0  0  0  0  0  0
    7.1694   -1.4325    0.0000 C   0  0  0  0  0  0  0  0  0
    6.3625   -1.6040    0.0000 C   0  0  0  0  0  0  0  0  0
    5.8104   -0.9909    0.0000 C   0  0  0  0  0  0  0  0  0
    6.0654   -0.2063    0.0000 C   0  0  0  0  0  0  0  0  0
    6.8723   -0.0348    0.0000 C   0  0  0  0  0  0  0  0  0
    7.4244   -0.6478    0.0000 C   0  0  0  0  0  0  0  0  0
    5.5133    0.4068    0.0000 C   0  0  0  0  0  0  0  0  0
    5.7683    1.1914    0.0000 N   0  0  0  0  0  0  0  0  0
    6.5529    1.4464    0.0000 C   0  0  0  0  0  0  0  0  0
    6.5529    2.2714    0.0000 C   0  0  0  0  0  0  0  0  0
    5.7683    2.5263    0.0000 N   0  0  0  0  0  0  0  0  0
    5.2833    1.8589    0.0000 C   0  0  0  0  0  0  0  0  0
    4.4583    1.8589    0.0000 N   0  0  0  0  0  0  0  0  0
    4.0458    1.1444    0.0000 C   0  0  0  0  0  0  0  0  0
    3.2208    1.1444    0.0000 C   0  0  0  0  0  0  0  0  0
    2.8083    1.8589    0.0000 C   0  0  0  0  0  0  0  0  0
    1.9833    1.8589    0.0000 N   0  0  0  0  0  0  0  0  0
    1.5708    1.1444    0.0000 C   0  0  0  0  0  0  0  0  0
    0.7458    1.1444    0.0000 C   0  0  0  0  0  0  0  0  0
    0.3333    0.4299    0.0000 C   0  0  0  0  0  0  0  0  0
   -0.4917    0.4299    0.0000 C   0  0  0  0  0  0  0  0  0
   -0.9042    1.1444    0.0000 O   0  0  0  0  0  0  0  0  0
   -0.4917    1.8589    0.0000 C   0  0  0  0  0  0  0  0  0
    0.3333    1.8589    0.0000 C   0  0  0  0  0  0  0  0  0
    3.2208    2.5733    0.0000 C   0  0  0  0  0  0  0  0  0
    4.0458    2.5733    0.0000 C   0  0  0  0  0  0  0  0  0
    7.2674    2.6839    0.0000 C   0  0  0  0  0  0  0  0  0
    7.9818    2.2714    0.0000 C   0  0  0  0  0  0  0  0  0
    7.9818    1.4464    0.0000 C   0  0  0  0  0  0  0  0  0
    7.2674    1.0339    0.0000 C   0  0  0  0  0  0  0  0  0
  1  2  1  0  0  0  0
  2  3  4  0  0  0  0
  2  7  4  0  0  0  0
  3  4  4  0  0  0  0
  4  5  4  0  0  0  0
  5  6  4  0  0  0  0
  5  8  1  0  0  0  0
  6  7  4  0  0  0  0
  8  9  1  0  0  0  0
  9 10  4  0  0  0  0
  9 13  4  0  0  0  0
 10 11  4  0  0  0  0
 10 31  4  0  0  0  0
 11 12  4  0  0  0  0
 11 28  4  0  0  0  0
 12 13  4  0  0  0  0
 13 14  1  0  0  0  0
 14 15  1  0  0  0  0
 14 27  1  0  0  0  0
 15 16  1  0  0  0  0
 16 17  1  0  0  0  0
 17 18  1  0  0  0  0
 17 26  1  0  0  0  0
 18 19  1  0  0  0  0
 19 20  1  0  0  0  0
 20 21  1  0  0  0  0
 20 25  1  0  0  0  0
 21 22  1  0  0  0  0
 22 23  1  0  0  0  0
 23 24  1  0  0  0  0
 24 25  1  0  0  0  0
 26 27  1  0  0  0  0
 28 29  4  0  0  0  0
 29 30  4  0  0  0  0
 30 31  4  0  0  0  0
M  END
>  <Name_Molregno>
566455

>  <HISTAMINE H1>
8.35

$$$$
566456
  Marvin  02231216192D 0   1.00000     0.00000     0

 30 33  0  0  0  0  0  0  0  0999 V2000
    7.2488   -2.2229    0.0000 F   0  0  0  0  0  0  0  0  0
    6.6967   -1.6098    0.0000 C   0  0  0  0  0  0  0  0  0
    5.8898   -1.7814    0.0000 C   0  0  0  0  0  0  0  0  0
    5.3377   -1.1683    0.0000 C   0  0  0  0  0  0  0  0  0
    5.5927   -0.3836    0.0000 C   0  0  0  0  0  0  0  0  0
    6.3996   -0.2121    0.0000 C   0  0  0  0  0  0  0  0  0
    6.9517   -0.8252    0.0000 C   0  0  0  0  0  0  0  0  0
    5.0406    0.2295    0.0000 C   0  0  0  0  0  0  0  0  0
    5.2956    1.0141    0.0000 N   0  0  0  0  0  0  0  0  0
    6.0802    1.2690    0.0000 C   0  0  0  0  0  0  0  0  0
    6.0802    2.0940    0.0000 C   0  0  0  0  0  0  0  0  0
    5.2956    2.3490    0.0000 N   0  0  0  0  0  0  0  0  0
    4.8106    1.6815    0.0000 C   0  0  0  0  0  0  0  0  0
    3.9856    1.6815    0.0000 N   0  0  0  0  0  0  0  0  0
    3.5731    0.9670    0.0000 C   0  0  0  0  0  0  0  0  0
    2.7481    0.9670    0.0000 C   0  0  0  0  0  0  0  0  0
    2.3356    1.6815    0.0000 C   0  0  0  0  0  0  0  0  0
    1.5106    1.6815    0.0000 N   0  0  0  0  0  0  0  0  0
    1.0981    2.3960    0.0000 C   0  0  0  0  0  0  0  0  0
    0.2731    2.3960    0.0000 C   0  0  0  0  0  0  0  0  0
   -0.1394    3.1105    0.0000 N   0  0  0  0  0  0  0  0  0
   -0.9644    3.1105    0.0000 C   0  0  0  0  0  0  0  0  0
    0.2731    3.8249    0.0000 C   0  0  0  0  0  0  0  0  0
    1.0981    0.9670    0.0000 C   0  0  0  0  0  0  0  0  0
    2.7481    2.3960    0.0000 C   0  0  0  0  0  0  0  0  0
    3.5731    2.3960    0.0000 C   0  0  0  0  0  0  0  0  0
    6.7947    2.5065    0.0000 C   0  0  0  0  0  0  0  0  0
    7.5091    2.0940    0.0000 C   0  0  0  0  0  0  0  0  0
    7.5091    1.2690    0.0000 C   0  0  0  0  0  0  0  0  0
    6.7947    0.8565    0.0000 C   0  0  0  0  0  0  0  0  0
  1  2  1  0  0  0  0
  2  3  4  0  0  0  0
  2  7  4  0  0  0  0
  3  4  4  0  0  0  0
  4  5  4  0  0  0  0
  5  6  4  0  0  0  0
  5  8  1  0  0  0  0
  6  7  4  0  0  0  0
  8  9  1  0  0  0  0
  9 10  4  0  0  0  0
  9 13  4  0  0  0  0
 10 11  4  0  0  0  0
 10 30  4  0  0  0  0
 11 12  4  0  0  0  0
 11 27  4  0  0  0  0
 12 13  4  0  0  0  0
 13 14  1  0  0  0  0
 14 15  1  0  0  0  0
 14 26  1  0  0  0  0
 15 16  1  0  0  0  0
 16 17  1  0  0  0  0
 17 18  1  0  0  0  0
 17 25  1  0  0  0  0
 18 19  1  0  0  0  0
 18 24  1  0  0  0  0
 19 20  1  0  0  0  0
 20 21  1  0  0  0  0
 21 22  1  0  0  0  0
 21 23  1  0  0  0  0
 25 26  1  0  0  0  0
 27 28  4  0  0  0  0
 28 29  4  0  0  0  0
 29 30  4  0  0  0  0
M  END
>  <Name_Molregno>
566456

>  <HISTAMINE H1>
8.54

$$$$
566468
  Marvin  02231216192D 0   1.00000     0.00000     0

 28 32  0  0  0  0  0  0  0  0999 V2000
    6.6753   -3.0409    0.0000 F   0  0  0  0  0  0  0  0  0
    6.1233   -2.4278    0.0000 C   0  0  0  0  0  0  0  0  0
    5.3163   -2.5993    0.0000 C   0  0  0  0  0  0  0  0  0
    4.7642   -1.9862    0.0000 C   0  0  0  0  0  0  0  0  0
    5.0192   -1.2016    0.0000 C   0  0  0  0  0  0  0  0  0
    5.8262   -1.0301    0.0000 C   0  0  0  0  0  0  0  0  0
    6.3782   -1.6432    0.0000 C   0  0  0  0  0  0  0  0  0
    4.4672   -0.5885    0.0000 C   0  0  0  0  0  0  0  0  0
    4.7221    0.1961    0.0000 N   0  0  0  0  0  0  0  0  0
    5.5067    0.4511    0.0000 C   0  0  0  0  0  0  0  0  0
    5.5067    1.2761    0.0000 C   0  0  0  0  0  0  0  0  0
    4.7221    1.5310    0.0000 N   0  0  0  0  0  0  0  0  0
    4.2372    0.8636    0.0000 C   0  0  0  0  0  0  0  0  0
    3.4122    0.8636    0.0000 N   0  0  0  0  0  0  0  0  0
    2.9997    0.1491    0.0000 C   0  0  0  0  0  0  0  0  0
    2.1747    0.1491    0.0000 C   0  0  0  0  0  0  0  0  0
    1.7622    0.8636    0.0000 C   0  0  0  0  0  0  0  0  0
    0.9372    0.8636    0.0000 N   0  0  0  0  0  0  0  0  0
    0.4522    0.1961    0.0000 C   0  0  0  0  0  0  0  0  0
   -0.3324    0.4511    0.0000 C   0  0  0  0  0  0  0  0  0
   -0.3324    1.2761    0.0000 N   0  0  0  0  0  0  0  0  0
    0.4522    1.5310    0.0000 C   0  0  0  0  0  0  0  0  0
    2.1747    1.5780    0.0000 C   0  0  0  0  0  0  0  0  0
    2.9997    1.5780    0.0000 C   0  0  0  0  0  0  0  0  0
    6.2212    1.6886    0.0000 C   0  0  0  0  0  0  0  0  0
    6.9357    1.2761    0.0000 C   0  0  0  0  0  0  0  0  0
    6.9357    0.4511    0.0000 C   0  0  0  0  0  0  0  0  0
    6.2212    0.0386    0.0000 C   0  0  0  0  0  0  0  0  0
  1  2  1  0  0  0  0
  2  3  4  0  0  0  0
  2  7  4  0  0  0  0
  3  4  4  0  0  0  0
  4  5  4  0  0  0  0
  5  6  4  0  0  0  0
  5  8  1  0  0  0  0
  6  7  4  0  0  0  0
  8  9  1  0  0  0  0
  9 10  4  0  0  0  0
  9 13  4  0  0  0  0
 10 11  4  0  0  0  0
 10 28  4  0  0  0  0
 11 12  4  0  0  0  0
 11 25  4  0  0  0  0
 12 13  4  0  0  0  0
 13 14  1  0  0  0  0
 14 15  1  0  0  0  0
 14 24  1  0  0  0  0
 15 16  1  0  0  0  0
 16 17  1  0  0  0  0
 17 18  1  0  0  0  0
 17 23  1  0  0  0  0
 18 19  4  0  0  0  0
 18 22  4  0  0  0  0
 19 20  4  0  0  0  0
 20 21  4  0  0  0  0
 21 22  4  0  0  0  0
 23 24  1  0  0  0  0
 25 26  4  0  0  0  0
 26 27  4  0  0  0  0
 27 28  4  0  0  0  0
M  END
>  <Name_Molregno>
566468

>  <HISTAMINE H1>
8.89

$$$$
566469
  Marvin  02231216192D 0   1.00000     0.00000     0

 29 33  0  0  0  0  0  0  0  0999 V2000
    7.0017   -3.1743    0.0000 F   0  0  0  0  0  0  0  0  0
    6.4496   -2.5612    0.0000 C   0  0  0  0  0  0  0  0  0
    5.6427   -2.7327    0.0000 C   0  0  0  0  0  0  0  0  0
    5.0906   -2.1197    0.0000 C   0  0  0  0  0  0  0  0  0
    5.3456   -1.3350    0.0000 C   0  0  0  0  0  0  0  0  0
    6.1525   -1.1635    0.0000 C   0  0  0  0  0  0  0  0  0
    6.7046   -1.7766    0.0000 C   0  0  0  0  0  0  0  0  0
    4.7935   -0.7219    0.0000 C   0  0  0  0  0  0  0  0  0
    5.0485    0.0627    0.0000 N   0  0  0  0  0  0  0  0  0
    5.8331    0.3176    0.0000 C   0  0  0  0  0  0  0  0  0
    5.8331    1.1426    0.0000 C   0  0  0  0  0  0  0  0  0
    5.0485    1.3976    0.0000 N   0  0  0  0  0  0  0  0  0
    4.5636    0.7301    0.0000 C   0  0  0  0  0  0  0  0  0
    3.7386    0.7301    0.0000 N   0  0  0  0  0  0  0  0  0
    3.3261    0.0157    0.0000 C   0  0  0  0  0  0  0  0  0
    2.5011    0.0157    0.0000 C   0  0  0  0  0  0  0  0  0
    2.0886    0.7301    0.0000 C   0  0  0  0  0  0  0  0  0
    1.2636    0.7301    0.0000 N   0  0  0  0  0  0  0  0  0
    0.7786    0.0627    0.0000 N   0  0  0  0  0  0  0  0  0
   -0.0060    0.3176    0.0000 C   0  0  0  0  0  0  0  0  0
   -0.0060    1.1426    0.0000 C   0  0  0  0  0  0  0  0  0
    0.7786    1.3976    0.0000 C   0  0  0  0  0  0  0  0  0
   -0.6734    1.6275    0.0000 C   0  0  0  0  0  0  0  0  0
    2.5011    1.4446    0.0000 C   0  0  0  0  0  0  0  0  0
    3.3261    1.4446    0.0000 C   0  0  0  0  0  0  0  0  0
    6.5476    1.5551    0.0000 C   0  0  0  0  0  0  0  0  0
    7.2620    1.1426    0.0000 C   0  0  0  0  0  0  0  0  0
    7.2620    0.3176    0.0000 C   0  0  0  0  0  0  0  0  0
    6.5476   -0.0949    0.0000 C   0  0  0  0  0  0  0  0  0
  1  2  1  0  0  0  0
  2  3  4  0  0  0  0
  2  7  4  0  0  0  0
  3  4  4  0  0  0  0
  4  5  4  0  0  0  0
  5  6  4  0  0  0  0
  5  8  1  0  0  0  0
  6  7  4  0  0  0  0
  8  9  1  0  0  0  0
  9 10  4  0  0  0  0
  9 13  4  0  0  0  0
 10 11  4  0  0  0  0
 10 29  4  0  0  0  0
 11 12  4  0  0  0  0
 11 26  4  0  0  0  0
 12 13  4  0  0  0  0
 13 14  1  0  0  0  0
 14 15  1  0  0  0  0
 14 25  1  0  0  0  0
 15 16  1  0  0  0  0
 16 17  1  0  0  0  0
 17 18  1  0  0  0  0
 17 24  1  0  0  0  0
 18 19  4  0  0  0  0
 18 22  4  0  0  0  0
 19 20  4  0  0  0  0
 20 21  4  0  0  0  0
 21 22  4  0  0  0  0
 21 23  1  0  0  0  0
 24 25  1  0  0  0  0
 26 27  4  0  0  0  0
 27 28  4  0  0  0  0
 28 29  4  0  0  0  0
M  END
>  <Name_Molregno>
566469

>  <HISTAMINE H1>
8.16

>  <Muscarinic acetylcholine receptor M1>
5

$$$$
568066
  Marvin  02231216192D 0   1.00000     0.00000     0

 22 24  0  0  1  0  0  0  0  0999 V2000
    2.5908    0.4861    0.0000 N   0  0  0  0  0  0  0  0  0
    3.1429   -0.1270    0.0000 C   0  0  0  0  0  0  0  0  0
    2.8879   -0.9116    0.0000 C   0  0  0  0  0  0  0  0  0
    2.0810   -1.0831    0.0000 N   0  0  0  0  0  0  0  0  0
    1.5289   -0.4700    0.0000 C   0  0  0  0  0  0  0  0  0
    1.7839    0.3146    0.0000 C   0  0  0  0  0  0  0  0  0
    1.2318    0.9277    0.0000 C   0  0  0  0  0  0  0  0  0
    0.4249    0.7562    0.0000 C   0  0  0  0  0  0  0  0  0
    1.4868    1.7123    0.0000 C   0  0  0  0  0  0  0  0  0
    2.2714    1.9672    0.0000 C   0  0  0  0  0  0  0  0  0
    2.2714    2.7922    0.0000 C   0  0  0  0  0  0  0  0  0
    1.4868    3.0472    0.0000 C   0  0  0  0  0  0  0  0  0
    1.0019    2.3797    0.0000 C   0  0  0  0  0  0  0  0  0
    0.1769    2.3797    0.0000 C   0  0  0  0  0  0  0  0  0
   -0.2356    1.6653    0.0000 C   0  0  0  0  0  0  0  0  0
   -1.0606    1.6653    0.0000 N   0  0  0  0  0  0  0  0  0
   -1.4731    0.9508    0.0000 C   0  0  0  0  0  0  0  0  0
   -1.4731    2.3797    0.0000 C   0  0  0  0  0  0  0  0  0
    2.9859    3.2047    0.0000 C   0  0  0  0  0  0  0  0  0
    3.7003    2.7922    0.0000 C   0  0  0  0  0  0  0  0  0
    3.7003    1.9672    0.0000 C   0  0  0  0  0  0  0  0  0
    2.9859    1.5547    0.0000 C   0  0  0  0  0  0  0  0  0
  1  2  4  0  0  0  0
  1  6  4  0  0  0  0
  2  3  4  0  0  0  0
  3  4  4  0  0  0  0
  4  5  4  0  0  0  0
  5  6  4  0  0  0  0
  6  7  1  0  0  0  0
  7  8  1  0  0  0  0
  7  9  1  0  0  0  0
  9 10  1  0  0  0  0
  9 13  2  0  0  0  0
 10 11  4  0  0  0  0
 10 22  4  0  0  0  0
 11 12  1  0  0  0  0
 11 19  4  0  0  0  0
 12 13  1  0  0  0  0
 13 14  1  0  0  0  0
 14 15  1  0  0  0  0
 15 16  1  0  0  0  0
 16 17  1  0  0  0  0
 16 18  1  0  0  0  0
 19 20  4  0  0  0  0
 20 21  4  0  0  0  0
 21 22  4  0  0  0  0
M  END
>  <Name_Molregno>
568066

>  <HISTAMINE H1>
8.89

$$$$
568070
  Marvin  02231216192D 0   1.00000     0.00000     0

 22 24  0  0  1  0  0  0  0  0999 V2000
   -0.7444   -0.2333    0.0000 O   0  0  0  0  0  0  0  0  0
    0.0402    0.0216    0.0000 C   0  0  0  0  0  0  0  0  0
    0.0402    0.8466    0.0000 C   0  0  0  0  0  0  0  0  0
    0.7546    1.2591    0.0000 C   0  0  0  0  0  0  0  0  0
    1.4691    0.8466    0.0000 C   0  0  0  0  0  0  0  0  0
    1.4691    0.0216    0.0000 C   0  0  0  0  0  0  0  0  0
    0.7546   -0.3909    0.0000 C   0  0  0  0  0  0  0  0  0
   -0.7444    1.1015    0.0000 C   0  0  0  0  0  0  0  0  0
   -0.9994    1.8862    0.0000 C   0  0  0  0  0  0  0  0  0
   -1.8064    2.0577    0.0000 C   0  0  0  0  0  0  0  0  0
   -0.4473    2.4993    0.0000 C   0  0  0  0  0  0  0  0  0
   -0.7023    3.2839    0.0000 N   0  0  0  0  0  0  0  0  0
   -0.1503    3.8970    0.0000 C   0  0  0  0  0  0  0  0  0
    0.6567    3.7254    0.0000 C   0  0  0  0  0  0  0  0  0
    0.9117    2.9408    0.0000 C   0  0  0  0  0  0  0  0  0
    0.3596    2.3277    0.0000 C   0  0  0  0  0  0  0  0  0
   -1.2294    0.4341    0.0000 C   0  0  0  0  0  0  0  0  0
   -2.0544    0.4341    0.0000 C   0  0  0  0  0  0  0  0  0
   -2.4669   -0.2804    0.0000 C   0  0  0  0  0  0  0  0  0
   -3.2919   -0.2804    0.0000 N   0  0  0  0  0  0  0  0  0
   -3.7044   -0.9948    0.0000 C   0  0  0  0  0  0  0  0  0
   -3.7044    0.4341    0.0000 C   0  0  0  0  0  0  0  0  0
  1  2  4  0  0  0  0
  1 17  4  0  0  0  0
  2  3  4  0  0  0  0
  2  7  4  0  0  0  0
  3  4  4  0  0  0  0
  3  8  4  0  0  0  0
  4  5  4  0  0  0  0
  5  6  4  0  0  0  0
  6  7  4  0  0  0  0
  8  9  1  0  0  0  0
  8 17  4  0  0  0  0
  9 10  1  0  0  0  0
  9 11  1  0  0  0  0
 11 12  4  0  0  0  0
 11 16  4  0  0  0  0
 12 13  4  0  0  0  0
 13 14  4  0  0  0  0
 14 15  4  0  0  0  0
 15 16  4  0  0  0  0
 17 18  1  0  0  0  0
 18 19  1  0  0  0  0
 19 20  1  0  0  0  0
 20 21  1  0  0  0  0
 20 22  1  0  0  0  0
M  END
>  <Name_Molregno>
568070

>  <HISTAMINE H1>
9.05

>  <Muscarinic acetylcholine receptor M1>
9.49

>  <Muscarinic acetylcholine receptor M3>
7.12

$$$$
568291
  Marvin  02231216192D 0   1.00000     0.00000     0

 28 32  0  0  0  0  0  0  0  0999 V2000
    6.6753   -3.0409    0.0000 F   0  0  0  0  0  0  0  0  0
    6.1233   -2.4278    0.0000 C   0  0  0  0  0  0  0  0  0
    5.3163   -2.5993    0.0000 C   0  0  0  0  0  0  0  0  0
    4.7642   -1.9862    0.0000 C   0  0  0  0  0  0  0  0  0
    5.0192   -1.2016    0.0000 C   0  0  0  0  0  0  0  0  0
    5.8262   -1.0301    0.0000 C   0  0  0  0  0  0  0  0  0
    6.3782   -1.6432    0.0000 C   0  0  0  0  0  0  0  0  0
    4.4672   -0.5885    0.0000 C   0  0  0  0  0  0  0  0  0
    4.7221    0.1961    0.0000 N   0  0  0  0  0  0  0  0  0
    5.5067    0.4511    0.0000 C   0  0  0  0  0  0  0  0  0
    5.5067    1.2761    0.0000 C   0  0  0  0  0  0  0  0  0
    4.7221    1.5310    0.0000 N   0  0  0  0  0  0  0  0  0
    4.2372    0.8636    0.0000 C   0  0  0  0  0  0  0  0  0
    3.4122    0.8636    0.0000 N   0  0  0  0  0  0  0  0  0
    2.9997    0.1491    0.0000 C   0  0  0  0  0  0  0  0  0
    2.1747    0.1491    0.0000 C   0  0  0  0  0  0  0  0  0
    1.7622    0.8636    0.0000 C   0  0  0  0  0  0  0  0  0
    0.9372    0.8636    0.0000 N   0  0  0  0  0  0  0  0  0
    0.4522    0.1961    0.0000 C   0  0  0  0  0  0  0  0  0
   -0.3324    0.4511    0.0000 C   0  0  0  0  0  0  0  0  0
   -0.3324    1.2761    0.0000 C   0  0  0  0  0  0  0  0  0
    0.4522    1.5310    0.0000 C   0  0  0  0  0  0  0  0  0
    2.1747    1.5780    0.0000 C   0  0  0  0  0  0  0  0  0
    2.9997    1.5780    0.0000 C   0  0  0  0  0  0  0  0  0
    6.2212    1.6886    0.0000 C   0  0  0  0  0  0  0  0  0
    6.9357    1.2761    0.0000 C   0  0  0  0  0  0  0  0  0
    6.9357    0.4511    0.0000 C   0  0  0  0  0  0  0  0  0
    6.2212    0.0386    0.0000 C   0  0  0  0  0  0  0  0  0
  1  2  1  0  0  0  0
  2  3  4  0  0  0  0
  2  7  4  0  0  0  0
  3  4  4  0  0  0  0
  4  5  4  0  0  0  0
  5  6  4  0  0  0  0
  5  8  1  0  0  0  0
  6  7  4  0  0  0  0
  8  9  1  0  0  0  0
  9 10  4  0  0  0  0
  9 13  4  0  0  0  0
 10 11  4  0  0  0  0
 10 28  4  0  0  0  0
 11 12  4  0  0  0  0
 11 25  4  0  0  0  0
 12 13  4  0  0  0  0
 13 14  1  0  0  0  0
 14 15  1  0  0  0  0
 14 24  1  0  0  0  0
 15 16  1  0  0  0  0
 16 17  1  0  0  0  0
 17 18  1  0  0  0  0
 17 23  1  0  0  0  0
 18 19  4  0  0  0  0
 18 22  4  0  0  0  0
 19 20  4  0  0  0  0
 20 21  4  0  0  0  0
 21 22  4  0  0  0  0
 23 24  1  0  0  0  0
 25 26  4  0  0  0  0
 26 27  4  0  0  0  0
 27 28  4  0  0  0  0
M  END
>  <Name_Molregno>
568291

>  <HISTAMINE H1>
7.23

$$$$
568304
  Marvin  02231216192D 0   1.00000     0.00000     0

 31 35  0  0  0  0  0  0  0  0999 V2000
    7.3498   -2.3072    0.0000 F   0  0  0  0  0  0  0  0  0
    6.7977   -1.6941    0.0000 C   0  0  0  0  0  0  0  0  0
    5.9908   -1.8657    0.0000 C   0  0  0  0  0  0  0  0  0
    5.4387   -1.2526    0.0000 C   0  0  0  0  0  0  0  0  0
    5.6937   -0.4680    0.0000 C   0  0  0  0  0  0  0  0  0
    6.5007   -0.2964    0.0000 C   0  0  0  0  0  0  0  0  0
    7.0527   -0.9095    0.0000 C   0  0  0  0  0  0  0  0  0
    5.1417    0.1451    0.0000 C   0  0  0  0  0  0  0  0  0
    5.3966    0.9298    0.0000 N   0  0  0  0  0  0  0  0  0
    6.1812    1.1847    0.0000 C   0  0  0  0  0  0  0  0  0
    6.1812    2.0097    0.0000 C   0  0  0  0  0  0  0  0  0
    5.3966    2.2646    0.0000 N   0  0  0  0  0  0  0  0  0
    4.9117    1.5972    0.0000 C   0  0  0  0  0  0  0  0  0
    4.0867    1.5972    0.0000 N   0  0  0  0  0  0  0  0  0
    3.6742    0.8827    0.0000 C   0  0  0  0  0  0  0  0  0
    2.8492    0.8827    0.0000 C   0  0  0  0  0  0  0  0  0
    2.4367    1.5972    0.0000 C   0  0  0  0  0  0  0  0  0
    1.6117    1.5972    0.0000 N   0  0  0  0  0  0  0  0  0
    1.1992    0.8827    0.0000 C   0  0  0  0  0  0  0  0  0
    1.1992    2.3117    0.0000 C   0  0  0  0  0  0  0  0  0
    0.3742    2.3117    0.0000 C   0  0  0  0  0  0  0  0  0
   -0.0383    3.0261    0.0000 C   0  0  0  0  0  0  0  0  0
    0.3742    3.7406    0.0000 C   0  0  0  0  0  0  0  0  0
    1.1992    3.7406    0.0000 C   0  0  0  0  0  0  0  0  0
    1.6117    3.0261    0.0000 C   0  0  0  0  0  0  0  0  0
    2.8492    2.3117    0.0000 C   0  0  0  0  0  0  0  0  0
    3.6742    2.3117    0.0000 C   0  0  0  0  0  0  0  0  0
    6.8957    2.4222    0.0000 C   0  0  0  0  0  0  0  0  0
    7.6102    2.0097    0.0000 C   0  0  0  0  0  0  0  0  0
    7.6102    1.1847    0.0000 C   0  0  0  0  0  0  0  0  0
    6.8957    0.7722    0.0000 C   0  0  0  0  0  0  0  0  0
  1  2  1  0  0  0  0
  2  3  4  0  0  0  0
  2  7  4  0  0  0  0
  3  4  4  0  0  0  0
  4  5  4  0  0  0  0
  5  6  4  0  0  0  0
  5  8  1  0  0  0  0
  6  7  4  0  0  0  0
  8  9  1  0  0  0  0
  9 10  4  0  0  0  0
  9 13  4  0  0  0  0
 10 11  4  0  0  0  0
 10 31  4  0  0  0  0
 11 12  4  0  0  0  0
 11 28  4  0  0  0  0
 12 13  4  0  0  0  0
 13 14  1  0  0  0  0
 14 15  1  0  0  0  0
 14 27  1  0  0  0  0
 15 16  1  0  0  0  0
 16 17  1  0  0  0  0
 17 18  1  0  0  0  0
 17 26  1  0  0  0  0
 18 19  1  0  0  0  0
 18 20  1  0  0  0  0
 20 21  1  0  0  0  0
 20 25  1  0  0  0  0
 21 22  1  0  0  0  0
 22 23  1  0  0  0  0
 23 24  1  0  0  0  0
 24 25  1  0  0  0  0
 26 27  1  0  0  0  0
 28 29  4  0  0  0  0
 29 30  4  0  0  0  0
 30 31  4  0  0  0  0
M  END
>  <Name_Molregno>
568304

>  <HISTAMINE H1>
8.55

>  <Muscarinic acetylcholine receptor M1>
5.56

$$$$
578288
  Marvin  02231216192D 0   1.00000     0.00000     0

 31 34  0  0  0  0  0  0  0  0999 V2000
   -2.1246    0.4834    0.0000 O   0  0  0  0  0  0  0  0  0
   -1.2996    0.4834    0.0000 C   0  0  0  0  0  0  0  0  0
   -1.2996   -0.3416    0.0000 C   0  0  0  0  0  0  0  0  0
   -0.5851   -0.7541    0.0000 C   0  0  0  0  0  0  0  0  0
   -0.5851   -1.5791    0.0000 C   0  0  0  0  0  0  0  0  0
   -1.2996   -1.9916    0.0000 N   0  0  0  0  0  0  0  0  0
   -2.0140   -1.5791    0.0000 C   0  0  0  0  0  0  0  0  0
   -2.0140   -0.7541    0.0000 C   0  0  0  0  0  0  0  0  0
   -1.2996   -2.8166    0.0000 C   0  0  0  0  0  0  0  0  0
   -2.0140   -3.2291    0.0000 C   0  0  0  0  0  0  0  0  0
   -2.0140   -4.0541    0.0000 C   0  0  0  0  0  0  0  0  0
   -2.7285   -4.4666    0.0000 C   0  0  0  0  0  0  0  0  0
   -2.7285   -5.2916    0.0000 C   0  0  0  0  0  0  0  0  0
   -2.0140   -5.7041    0.0000 C   0  0  0  0  0  0  0  0  0
   -2.0140   -6.5291    0.0000 C   0  0  0  0  0  0  0  0  0
   -2.7285   -6.9416    0.0000 C   0  0  0  0  0  0  0  0  0
   -3.4430   -6.5291    0.0000 C   0  0  0  0  0  0  0  0  0
   -3.4430   -5.7041    0.0000 C   0  0  0  0  0  0  0  0  0
   -2.7285   -7.7666    0.0000 C   0  0  0  0  0  0  0  0  0
   -1.2996    1.3084    0.0000 C   0  0  0  0  0  0  0  0  0
   -2.0140    1.7209    0.0000 C   0  0  0  0  0  0  0  0  0
   -2.0140    2.5459    0.0000 C   0  0  0  0  0  0  0  0  0
   -1.2996    2.9584    0.0000 C   0  0  0  0  0  0  0  0  0
   -0.5851    2.5459    0.0000 C   0  0  0  0  0  0  0  0  0
   -0.5851    1.7209    0.0000 C   0  0  0  0  0  0  0  0  0
   -0.4746    0.4834    0.0000 C   0  0  0  0  0  0  0  0  0
   -0.0621    1.1979    0.0000 C   0  0  0  0  0  0  0  0  0
    0.7629    1.1979    0.0000 C   0  0  0  0  0  0  0  0  0
    1.1754    0.4834    0.0000 C   0  0  0  0  0  0  0  0  0
    0.7629   -0.2310    0.0000 C   0  0  0  0  0  0  0  0  0
   -0.0621   -0.2310    0.0000 C   0  0  0  0  0  0  0  0  0
  1  2  1  0  0  0  0
  2  3  1  0  0  0  0
  2 20  1  0  0  0  0
  2 26  1  0  0  0  0
  3  4  1  0  0  0  0
  3  8  1  0  0  0  0
  4  5  1  0  0  0  0
  5  6  1  0  0  0  0
  6  7  1  0  0  0  0
  6  9  1  0  0  0  0
  7  8  1  0  0  0  0
  9 10  1  0  0  0  0
 10 11  1  0  0  0  0
 11 12  1  0  0  0  0
 12 13  1  0  0  0  0
 13 14  4  0  0  0  0
 13 18  4  0  0  0  0
 14 15  4  0  0  0  0
 15 16  4  0  0  0  0
 16 17  4  0  0  0  0
 16 19  1  0  0  0  0
 17 18  4  0  0  0  0
 20 21  4  0  0  0  0
 20 25  4  0  0  0  0
 21 22  4  0  0  0  0
 22 23  4  0  0  0  0
 23 24  4  0  0  0  0
 24 25  4  0  0  0  0
 26 27  4  0  0  0  0
 26 31  4  0  0  0  0
 27 28  4  0  0  0  0
 28 29  4  0  0  0  0
 29 30  4  0  0  0  0
 30 31  4  0  0  0  0
M  END
>  <Name_Molregno>
578288

>  <HISTAMINE H1>
7.31

$$$$
578308
  Marvin  02231216192D 0   1.00000     0.00000     0

 34 37  0  0  0  0  0  0  0  0999 V2000
    7.1783    4.1491    0.0000 O   0  0  0  0  0  0  0  0  0
    6.4639    3.7366    0.0000 C   0  0  0  0  0  0  0  0  0
    5.7494    4.1491    0.0000 O   0  0  0  0  0  0  0  0  0
    6.4639    2.9116    0.0000 C   0  0  0  0  0  0  0  0  0
    7.1783    2.4991    0.0000 C   0  0  0  0  0  0  0  0  0
    7.1783    1.6741    0.0000 C   0  0  0  0  0  0  0  0  0
    6.4639    1.2616    0.0000 C   0  0  0  0  0  0  0  0  0
    5.7494    1.6741    0.0000 C   0  0  0  0  0  0  0  0  0
    5.7494    2.4991    0.0000 C   0  0  0  0  0  0  0  0  0
    6.4639    0.4366    0.0000 C   0  0  0  0  0  0  0  0  0
    5.7494    0.0241    0.0000 C   0  0  0  0  0  0  0  0  0
    5.7494   -0.8009    0.0000 C   0  0  0  0  0  0  0  0  0
    5.0349   -1.2134    0.0000 C   0  0  0  0  0  0  0  0  0
    5.0349   -2.0384    0.0000 N   0  0  0  0  0  0  0  0  0
    5.7494   -2.4509    0.0000 C   0  0  0  0  0  0  0  0  0
    5.7494   -3.2759    0.0000 C   0  0  0  0  0  0  0  0  0
    5.0349   -3.6884    0.0000 C   0  0  0  0  0  0  0  0  0
    4.3205   -3.2759    0.0000 C   0  0  0  0  0  0  0  0  0
    4.3205   -2.4509    0.0000 C   0  0  0  0  0  0  0  0  0
    5.0349   -4.5134    0.0000 C   0  0  0  0  0  0  0  0  0
    4.2099   -4.5134    0.0000 O   0  0  0  0  0  0  0  0  0
    5.0349   -5.3384    0.0000 C   0  0  0  0  0  0  0  0  0
    5.7494   -5.7509    0.0000 C   0  0  0  0  0  0  0  0  0
    5.7494   -6.5759    0.0000 C   0  0  0  0  0  0  0  0  0
    5.0349   -6.9884    0.0000 C   0  0  0  0  0  0  0  0  0
    4.3205   -6.5759    0.0000 C   0  0  0  0  0  0  0  0  0
    4.3205   -5.7509    0.0000 C   0  0  0  0  0  0  0  0  0
    5.8599   -4.5134    0.0000 C   0  0  0  0  0  0  0  0  0
    6.2724   -3.7990    0.0000 C   0  0  0  0  0  0  0  0  0
    7.0974   -3.7990    0.0000 C   0  0  0  0  0  0  0  0  0
    7.5099   -4.5134    0.0000 C   0  0  0  0  0  0  0  0  0
    7.0974   -5.2279    0.0000 C   0  0  0  0  0  0  0  0  0
    6.2724   -5.2279    0.0000 C   0  0  0  0  0  0  0  0  0
    7.1783    4.9741    0.0000 C   0  0  0  0  0  0  0  0  0
  1  2  1  0  0  0  0
  1 34  1  0  0  0  0
  2  3  2  0  0  0  0
  2  4  1  0  0  0  0
  4  5  4  0  0  0  0
  4  9  4  0  0  0  0
  5  6  4  0  0  0  0
  6  7  4  0  0  0  0
  7  8  4  0  0  0  0
  7 10  1  0  0  0  0
  8  9  4  0  0  0  0
 10 11  1  0  0  0  0
 11 12  1  0  0  0  0
 12 13  1  0  0  0  0
 13 14  1  0  0  0  0
 14 15  1  0  0  0  0
 14 19  1  0  0  0  0
 15 16  1  0  0  0  0
 16 17  1  0  0  0  0
 17 18  1  0  0  0  0
 17 20  1  0  0  0  0
 18 19  1  0  0  0  0
 20 21  1  0  0  0  0
 20 22  1  0  0  0  0
 20 28  1  0  0  0  0
 22 23  4  0  0  0  0
 22 27  4  0  0  0  0
 23 24  4  0  0  0  0
 24 25  4  0  0  0  0
 25 26  4  0  0  0  0
 26 27  4  0  0  0  0
 28 29  4  0  0  0  0
 28 33  4  0  0  0  0
 29 30  4  0  0  0  0
 30 31  4  0  0  0  0
 31 32  4  0  0  0  0
 32 33  4  0  0  0  0
M  END
>  <Name_Molregno>
578308

>  <HISTAMINE H1>
7.7

$$$$
578350
  Marvin  02231216192D 0   1.00000     0.00000     0

 17 18  0  0  0  0  0  0  0  0999 V2000
   -0.0501    0.5586    0.0000 N   0  0  0  0  0  0  0  0  0
   -0.7646    0.1461    0.0000 C   0  0  0  0  0  0  0  0  0
   -1.4791    0.5586    0.0000 C   0  0  0  0  0  0  0  0  0
   -1.4791    1.3836    0.0000 C   0  0  0  0  0  0  0  0  0
   -0.7646    1.7961    0.0000 C   0  0  0  0  0  0  0  0  0
   -0.0501    1.3836    0.0000 C   0  0  0  0  0  0  0  0  0
    0.6643    0.1461    0.0000 C   0  0  0  0  0  0  0  0  0
    1.3788    0.5586    0.0000 C   0  0  0  0  0  0  0  0  0
    2.0933    0.1461    0.0000 C   0  0  0  0  0  0  0  0  0
    2.8078    0.5586    0.0000 C   0  0  0  0  0  0  0  0  0
    3.5222    0.1461    0.0000 C   0  0  0  0  0  0  0  0  0
    4.2367    0.5586    0.0000 C   0  0  0  0  0  0  0  0  0
    4.9512    0.1461    0.0000 C   0  0  0  0  0  0  0  0  0
    4.9512   -0.6789    0.0000 C   0  0  0  0  0  0  0  0  0
    4.2367   -1.0914    0.0000 C   0  0  0  0  0  0  0  0  0
    3.5222   -0.6789    0.0000 C   0  0  0  0  0  0  0  0  0
    5.6656   -1.0914    0.0000 C   0  0  0  0  0  0  0  0  0
  1  2  1  0  0  0  0
  1  6  1  0  0  0  0
  1  7  1  0  0  0  0
  2  3  1  0  0  0  0
  3  4  1  0  0  0  0
  4  5  1  0  0  0  0
  5  6  1  0  0  0  0
  7  8  1  0  0  0  0
  8  9  1  0  0  0  0
  9 10  1  0  0  0  0
 10 11  1  0  0  0  0
 11 12  4  0  0  0  0
 11 16  4  0  0  0  0
 12 13  4  0  0  0  0
 13 14  4  0  0  0  0
 14 15  4  0  0  0  0
 14 17  1  0  0  0  0
 15 16  4  0  0  0  0
M  END
>  <Name_Molregno>
578350

>  <HISTAMINE H1>
5.49

$$$$
578403
  Marvin  02231216192D 0   1.00000     0.00000     0

 25 27  0  0  1  0  0  0  0  0999 V2000
   -5.5698   -2.5443    0.0000 O   0  0  0  0  0  0  0  0  0
   -5.5698   -1.7193    0.0000 C   0  0  0  0  0  0  0  0  0
   -4.8553   -1.3068    0.0000 C   0  0  0  0  0  0  0  0  0
   -4.8553   -0.4818    0.0000 C   0  0  0  0  0  0  0  0  0
   -4.1409   -0.0693    0.0000 C   0  0  0  0  0  0  0  0  0
   -3.4264   -0.4818    0.0000 N   0  0  0  0  0  0  0  0  0
   -3.4264   -1.3068    0.0000 C   0  0  0  0  0  0  0  0  0
   -4.1409   -1.7193    0.0000 C   0  0  0  0  0  0  0  0  0
   -2.7119   -0.0693    0.0000 C   0  0  0  0  0  0  0  0  0
   -1.9974   -0.4818    0.0000 C   0  0  0  0  0  0  0  0  0
   -1.2830   -0.0693    0.0000 C   0  0  0  0  0  0  0  0  0
   -0.5685   -0.4818    0.0000 C   0  0  0  0  0  0  0  0  0
    0.1460   -0.0693    0.0000 C   0  0  0  0  0  0  0  0  0
    0.1460    0.7557    0.0000 C   0  0  0  0  0  0  0  0  0
    0.8604    1.1682    0.0000 C   0  0  0  0  0  0  0  0  0
    1.5749    0.7557    0.0000 C   0  0  0  0  0  0  0  0  0
    1.5749   -0.0693    0.0000 C   0  0  0  0  0  0  0  0  0
    0.8604   -0.4818    0.0000 C   0  0  0  0  0  0  0  0  0
    2.2894    1.1682    0.0000 C   0  0  0  0  0  0  0  0  0
   -6.2843   -1.3068    0.0000 C   0  0  0  0  0  0  0  0  0
   -6.9987   -1.7193    0.0000 C   0  0  0  0  0  0  0  0  0
   -7.7132   -1.3068    0.0000 C   0  0  0  0  0  0  0  0  0
   -7.7132   -0.4818    0.0000 C   0  0  0  0  0  0  0  0  0
   -6.9987   -0.0693    0.0000 C   0  0  0  0  0  0  0  0  0
   -6.2843   -0.4818    0.0000 C   0  0  0  0  0  0  0  0  0
  1  2  1  0  0  0  0
  2  3  1  0  0  0  0
  2 20  1  0  0  0  0
  3  4  1  0  0  0  0
  3  8  1  0  0  0  0
  4  5  1  0  0  0  0
  5  6  1  0  0  0  0
  6  7  1  0  0  0  0
  6  9  1  0  0  0  0
  7  8  1  0  0  0  0
  9 10  1  0  0  0  0
 10 11  1  0  0  0  0
 11 12  1  0  0  0  0
 12 13  1  0  0  0  0
 13 14  4  0  0  0  0
 13 18  4  0  0  0  0
 14 15  4  0  0  0  0
 15 16  4  0  0  0  0
 16 17  4  0  0  0  0
 16 19  1  0  0  0  0
 17 18  4  0  0  0  0
 20 21  4  0  0  0  0
 20 25  4  0  0  0  0
 21 22  4  0  0  0  0
 22 23  4  0  0  0  0
 23 24  4  0  0  0  0
 24 25  4  0  0  0  0
M  END
>  <Name_Molregno>
578403

>  <HISTAMINE H1>
6.92

$$$$
578414
  Marvin  02231216192D 0   1.00000     0.00000     0

 28 31  0  0  0  0  0  0  0  0999 V2000
   -1.3655   -0.0249    0.0000 O   0  0  0  0  0  0  0  0  0
   -0.5405   -0.0249    0.0000 C   0  0  0  0  0  0  0  0  0
   -0.5405   -0.8499    0.0000 C   0  0  0  0  0  0  0  0  0
    0.1740   -1.2624    0.0000 C   0  0  0  0  0  0  0  0  0
    0.1740   -2.0874    0.0000 C   0  0  0  0  0  0  0  0  0
   -0.5405   -2.4999    0.0000 N   0  0  0  0  0  0  0  0  0
   -1.2550   -2.0874    0.0000 C   0  0  0  0  0  0  0  0  0
   -1.2550   -1.2624    0.0000 C   0  0  0  0  0  0  0  0  0
   -0.5405   -3.3249    0.0000 C   0  0  0  0  0  0  0  0  0
   -1.2550   -3.7374    0.0000 C   0  0  0  0  0  0  0  0  0
   -1.2550   -4.5624    0.0000 C   0  0  0  0  0  0  0  0  0
   -1.9694   -4.9749    0.0000 C   0  0  0  0  0  0  0  0  0
   -2.6839   -4.5624    0.0000 C   0  0  0  0  0  0  0  0  0
   -2.6839   -3.7374    0.0000 C   0  0  0  0  0  0  0  0  0
   -1.9694   -3.3249    0.0000 C   0  0  0  0  0  0  0  0  0
   -3.3984   -4.9749    0.0000 C   0  0  0  0  0  0  0  0  0
   -0.5405    0.8001    0.0000 C   0  0  0  0  0  0  0  0  0
   -1.2550    1.2126    0.0000 C   0  0  0  0  0  0  0  0  0
   -1.2550    2.0376    0.0000 C   0  0  0  0  0  0  0  0  0
   -0.5405    2.4501    0.0000 C   0  0  0  0  0  0  0  0  0
    0.1740    2.0376    0.0000 C   0  0  0  0  0  0  0  0  0
    0.1740    1.2126    0.0000 C   0  0  0  0  0  0  0  0  0
    0.2845   -0.0249    0.0000 C   0  0  0  0  0  0  0  0  0
    0.6970    0.6896    0.0000 C   0  0  0  0  0  0  0  0  0
    1.5220    0.6896    0.0000 C   0  0  0  0  0  0  0  0  0
    1.9345   -0.0249    0.0000 C   0  0  0  0  0  0  0  0  0
    1.5220   -0.7393    0.0000 C   0  0  0  0  0  0  0  0  0
    0.6970   -0.7393    0.0000 C   0  0  0  0  0  0  0  0  0
  1  2  1  0  0  0  0
  2  3  1  0  0  0  0
  2 17  1  0  0  0  0
  2 23  1  0  0  0  0
  3  4  1  0  0  0  0
  3  8  1  0  0  0  0
  4  5  1  0  0  0  0
  5  6  1  0  0  0  0
  6  7  1  0  0  0  0
  6  9  1  0  0  0  0
  7  8  1  0  0  0  0
  9 10  1  0  0  0  0
 10 11  4  0  0  0  0
 10 15  4  0  0  0  0
 11 12  4  0  0  0  0
 12 13  4  0  0  0  0
 13 14  4  0  0  0  0
 13 16  1  0  0  0  0
 14 15  4  0  0  0  0
 17 18  4  0  0  0  0
 17 22  4  0  0  0  0
 18 19  4  0  0  0  0
 19 20  4  0  0  0  0
 20 21  4  0  0  0  0
 21 22  4  0  0  0  0
 23 24  4  0  0  0  0
 23 28  4  0  0  0  0
 24 25  4  0  0  0  0
 25 26  4  0  0  0  0
 26 27  4  0  0  0  0
 27 28  4  0  0  0  0
M  END
>  <Name_Molregno>
578414

>  <HISTAMINE H1>
7.8

$$$$
578415
  Marvin  02231216192D 0   1.00000     0.00000     0

 29 32  0  0  0  0  0  0  0  0999 V2000
   -2.5138    0.7136    0.0000 O   0  0  0  0  0  0  0  0  0
   -1.6888    0.7136    0.0000 C   0  0  0  0  0  0  0  0  0
   -1.6888   -0.1114    0.0000 C   0  0  0  0  0  0  0  0  0
   -0.9743   -0.5239    0.0000 C   0  0  0  0  0  0  0  0  0
   -0.9743   -1.3489    0.0000 C   0  0  0  0  0  0  0  0  0
   -1.6888   -1.7614    0.0000 N   0  0  0  0  0  0  0  0  0
   -2.4032   -1.3489    0.0000 C   0  0  0  0  0  0  0  0  0
   -2.4032   -0.5239    0.0000 C   0  0  0  0  0  0  0  0  0
   -1.6888   -2.5864    0.0000 C   0  0  0  0  0  0  0  0  0
   -2.4032   -2.9989    0.0000 C   0  0  0  0  0  0  0  0  0
   -2.4032   -3.8239    0.0000 C   0  0  0  0  0  0  0  0  0
   -1.6888   -4.2364    0.0000 C   0  0  0  0  0  0  0  0  0
   -1.6888   -5.0614    0.0000 C   0  0  0  0  0  0  0  0  0
   -2.4032   -5.4739    0.0000 C   0  0  0  0  0  0  0  0  0
   -3.1177   -5.0614    0.0000 C   0  0  0  0  0  0  0  0  0
   -3.1177   -4.2364    0.0000 C   0  0  0  0  0  0  0  0  0
   -2.4032   -6.2989    0.0000 C   0  0  0  0  0  0  0  0  0
   -1.6888    1.5386    0.0000 C   0  0  0  0  0  0  0  0  0
   -2.4032    1.9511    0.0000 C   0  0  0  0  0  0  0  0  0
   -2.4032    2.7761    0.0000 C   0  0  0  0  0  0  0  0  0
   -1.6888    3.1886    0.0000 C   0  0  0  0  0  0  0  0  0
   -0.9743    2.7761    0.0000 C   0  0  0  0  0  0  0  0  0
   -0.9743    1.9511    0.0000 C   0  0  0  0  0  0  0  0  0
   -0.8638    0.7136    0.0000 C   0  0  0  0  0  0  0  0  0
   -0.4513    1.4281    0.0000 C   0  0  0  0  0  0  0  0  0
    0.3737    1.4281    0.0000 C   0  0  0  0  0  0  0  0  0
    0.7862    0.7136    0.0000 C   0  0  0  0  0  0  0  0  0
    0.3737   -0.0008    0.0000 C   0  0  0  0  0  0  0  0  0
   -0.4513   -0.0008    0.0000 C   0  0  0  0  0  0  0  0  0
  1  2  1  0  0  0  0
  2  3  1  0  0  0  0
  2 18  1  0  0  0  0
  2 24  1  0  0  0  0
  3  4  1  0  0  0  0
  3  8  1  0  0  0  0
  4  5  1  0  0  0  0
  5  6  1  0  0  0  0
  6  7  1  0  0  0  0
  6  9  1  0  0  0  0
  7  8  1  0  0  0  0
  9 10  1  0  0  0  0
 10 11  1  0  0  0  0
 11 12  4  0  0  0  0
 11 16  4  0  0  0  0
 12 13  4  0  0  0  0
 13 14  4  0  0  0  0
 14 15  4  0  0  0  0
 14 17  1  0  0  0  0
 15 16  4  0  0  0  0
 18 19  4  0  0  0  0
 18 23  4  0  0  0  0
 19 20  4  0  0  0  0
 20 21  4  0  0  0  0
 21 22  4  0  0  0  0
 22 23  4  0  0  0  0
 24 25  4  0  0  0  0
 24 29  4  0  0  0  0
 25 26  4  0  0  0  0
 26 27  4  0  0  0  0
 27 28  4  0  0  0  0
 28 29  4  0  0  0  0
M  END
>  <Name_Molregno>
578415

>  <HISTAMINE H1>
7.19

$$$$
578430
  Marvin  02231216192D 0   1.00000     0.00000     0

 30 33  0  0  0  0  0  0  0  0999 V2000
   -1.6798    0.4078    0.0000 O   0  0  0  0  0  0  0  0  0
   -0.8548    0.4078    0.0000 C   0  0  0  0  0  0  0  0  0
   -0.8548   -0.4172    0.0000 C   0  0  0  0  0  0  0  0  0
   -0.1404   -0.8297    0.0000 C   0  0  0  0  0  0  0  0  0
   -0.1404   -1.6547    0.0000 C   0  0  0  0  0  0  0  0  0
   -0.8548   -2.0672    0.0000 N   0  0  0  0  0  0  0  0  0
   -1.5693   -1.6547    0.0000 C   0  0  0  0  0  0  0  0  0
   -1.5693   -0.8297    0.0000 C   0  0  0  0  0  0  0  0  0
   -0.8548   -2.8922    0.0000 C   0  0  0  0  0  0  0  0  0
   -1.5693   -3.3047    0.0000 C   0  0  0  0  0  0  0  0  0
   -1.5693   -4.1297    0.0000 C   0  0  0  0  0  0  0  0  0
   -2.2838   -4.5422    0.0000 C   0  0  0  0  0  0  0  0  0
   -2.2838   -5.3672    0.0000 C   0  0  0  0  0  0  0  0  0
   -2.9983   -5.7797    0.0000 C   0  0  0  0  0  0  0  0  0
   -3.7127   -5.3672    0.0000 C   0  0  0  0  0  0  0  0  0
   -3.7127   -4.5422    0.0000 C   0  0  0  0  0  0  0  0  0
   -2.9983   -4.1297    0.0000 C   0  0  0  0  0  0  0  0  0
   -4.4272   -5.7797    0.0000 C   0  0  0  0  0  0  0  0  0
   -0.8548    1.2328    0.0000 C   0  0  0  0  0  0  0  0  0
   -1.5693    1.6453    0.0000 C   0  0  0  0  0  0  0  0  0
   -1.5693    2.4703    0.0000 C   0  0  0  0  0  0  0  0  0
   -0.8548    2.8828    0.0000 C   0  0  0  0  0  0  0  0  0
   -0.1404    2.4703    0.0000 C   0  0  0  0  0  0  0  0  0
   -0.1404    1.6453    0.0000 C   0  0  0  0  0  0  0  0  0
   -0.0298    0.4078    0.0000 C   0  0  0  0  0  0  0  0  0
    0.3827    1.1222    0.0000 C   0  0  0  0  0  0  0  0  0
    1.2077    1.1222    0.0000 C   0  0  0  0  0  0  0  0  0
    1.6202    0.4078    0.0000 C   0  0  0  0  0  0  0  0  0
    1.2077   -0.3067    0.0000 C   0  0  0  0  0  0  0  0  0
    0.3827   -0.3067    0.0000 C   0  0  0  0  0  0  0  0  0
  1  2  1  0  0  0  0
  2  3  1  0  0  0  0
  2 19  1  0  0  0  0
  2 25  1  0  0  0  0
  3  4  1  0  0  0  0
  3  8  1  0  0  0  0
  4  5  1  0  0  0  0
  5  6  1  0  0  0  0
  6  7  1  0  0  0  0
  6  9  1  0  0  0  0
  7  8  1  0  0  0  0
  9 10  1  0  0  0  0
 10 11  1  0  0  0  0
 11 12  1  0  0  0  0
 12 13  4  0  0  0  0
 12 17  4  0  0  0  0
 13 14  4  0  0  0  0
 14 15  4  0  0  0  0
 15 16  4  0  0  0  0
 15 18  1  0  0  0  0
 16 17  4  0  0  0  0
 19 20  4  0  0  0  0
 19 24  4  0  0  0  0
 20 21  4  0  0  0  0
 21 22  4  0  0  0  0
 22 23  4  0  0  0  0
 23 24  4  0  0  0  0
 25 26  4  0  0  0  0
 25 30  4  0  0  0  0
 26 27  4  0  0  0  0
 27 28  4  0  0  0  0
 28 29  4  0  0  0  0
 29 30  4  0  0  0  0
M  END
>  <Name_Molregno>
578430

>  <HISTAMINE H1>
6.81

$$$$
578470
  Marvin  02231216192D 0   1.00000     0.00000     0

 33 36  0  0  0  0  0  0  0  0999 V2000
   -3.0462    1.9162    0.0000 O   0  0  0  0  0  0  0  0  0
   -2.2212    1.9162    0.0000 C   0  0  0  0  0  0  0  0  0
   -2.2212    1.0912    0.0000 C   0  0  0  0  0  0  0  0  0
   -1.5067    0.6787    0.0000 C   0  0  0  0  0  0  0  0  0
   -1.5067   -0.1463    0.0000 C   0  0  0  0  0  0  0  0  0
   -2.2212   -0.5588    0.0000 N   0  0  0  0  0  0  0  0  0
   -2.9356   -0.1463    0.0000 C   0  0  0  0  0  0  0  0  0
   -2.9356    0.6787    0.0000 C   0  0  0  0  0  0  0  0  0
   -2.2212   -1.3838    0.0000 C   0  0  0  0  0  0  0  0  0
   -2.9356   -1.7963    0.0000 C   0  0  0  0  0  0  0  0  0
   -2.9356   -2.6213    0.0000 C   0  0  0  0  0  0  0  0  0
   -3.6501   -3.0338    0.0000 C   0  0  0  0  0  0  0  0  0
   -3.6501   -3.8588    0.0000 C   0  0  0  0  0  0  0  0  0
   -2.9356   -4.2713    0.0000 C   0  0  0  0  0  0  0  0  0
   -2.9356   -5.0963    0.0000 C   0  0  0  0  0  0  0  0  0
   -3.6501   -5.5088    0.0000 C   0  0  0  0  0  0  0  0  0
   -4.3646   -5.0963    0.0000 C   0  0  0  0  0  0  0  0  0
   -4.3646   -4.2713    0.0000 C   0  0  0  0  0  0  0  0  0
   -3.6501   -6.3338    0.0000 C   0  0  0  0  0  0  0  0  0
   -4.3646   -6.7463    0.0000 O   0  0  0  0  0  0  0  0  0
   -2.9356   -6.7463    0.0000 O   0  0  0  0  0  0  0  0  0
   -2.2212    2.7412    0.0000 C   0  0  0  0  0  0  0  0  0
   -2.9356    3.1537    0.0000 C   0  0  0  0  0  0  0  0  0
   -2.9356    3.9787    0.0000 C   0  0  0  0  0  0  0  0  0
   -2.2212    4.3912    0.0000 C   0  0  0  0  0  0  0  0  0
   -1.5067    3.9787    0.0000 C   0  0  0  0  0  0  0  0  0
   -1.5067    3.1537    0.0000 C   0  0  0  0  0  0  0  0  0
   -1.3962    1.9162    0.0000 C   0  0  0  0  0  0  0  0  0
   -0.9837    2.6307    0.0000 C   0  0  0  0  0  0  0  0  0
   -0.1587    2.6307    0.0000 C   0  0  0  0  0  0  0  0  0
    0.2538    1.9162    0.0000 C   0  0  0  0  0  0  0  0  0
   -0.1587    1.2017    0.0000 C   0  0  0  0  0  0  0  0  0
   -0.9837    1.2017    0.0000 C   0  0  0  0  0  0  0  0  0
  1  2  1  0  0  0  0
  2  3  1  0  0  0  0
  2 22  1  0  0  0  0
  2 28  1  0  0  0  0
  3  4  1  0  0  0  0
  3  8  1  0  0  0  0
  4  5  1  0  0  0  0
  5  6  1  0  0  0  0
  6  7  1  0  0  0  0
  6  9  1  0  0  0  0
  7  8  1  0  0  0  0
  9 10  1  0  0  0  0
 10 11  1  0  0  0  0
 11 12  1  0  0  0  0
 12 13  1  0  0  0  0
 13 14  4  0  0  0  0
 13 18  4  0  0  0  0
 14 15  4  0  0  0  0
 15 16  4  0  0  0  0
 16 17  4  0  0  0  0
 16 19  1  0  0  0  0
 17 18  4  0  0  0  0
 19 20  1  0  0  0  0
 19 21  2  0  0  0  0
 22 23  4  0  0  0  0
 22 27  4  0  0  0  0
 23 24  4  0  0  0  0
 24 25  4  0  0  0  0
 25 26  4  0  0  0  0
 26 27  4  0  0  0  0
 28 29  4  0  0  0  0
 28 33  4  0  0  0  0
 29 30  4  0  0  0  0
 30 31  4  0  0  0  0
 31 32  4  0  0  0  0
 32 33  4  0  0  0  0
M  END
>  <Name_Molregno>
578470

>  <HISTAMINE H1>
6.69

$$$$
591110
  Marvin  02231216192D 0   1.00000     0.00000     0

 27 31  0  0  1  0  0  0  0  0999 V2000
    0.4188    1.2437    0.0000 O   0  0  0  0  0  0  0  0  0
   -0.3658    0.9887    0.0000 C   0  0  0  0  0  0  0  0  0
   -0.3658    0.1637    0.0000 C   0  0  0  0  0  0  0  0  0
    0.4188   -0.0912    0.0000 O   0  0  0  0  0  0  0  0  0
    0.9037    0.5762    0.0000 C   0  0  0  0  0  0  0  0  0
   -1.0803   -0.2488    0.0000 C   0  0  0  0  0  0  0  0  0
   -1.7947    0.1637    0.0000 C   0  0  0  0  0  0  0  0  0
   -2.5092   -0.2488    0.0000 C   0  0  0  0  0  0  0  0  0
   -3.2237    0.1637    0.0000 C   0  0  0  0  0  0  0  0  0
   -3.9382   -0.2488    0.0000 N   0  0  0  0  0  0  0  0  0
   -4.6526    0.1637    0.0000 C   0  0  0  0  0  0  0  0  0
   -4.6526    0.9887    0.0000 C   0  0  0  0  0  0  0  0  0
   -3.9382    1.4012    0.0000 C   0  0  0  0  0  0  0  0  0
   -3.9382    2.2262    0.0000 C   0  0  0  0  0  0  0  0  0
   -3.2237    2.6387    0.0000 C   0  0  0  0  0  0  0  0  0
   -3.2237    3.4637    0.0000 C   0  0  0  0  0  0  0  0  0
   -3.9382    3.8762    0.0000 O   0  0  0  0  0  0  0  0  0
   -2.5092    3.8762    0.0000 C   0  0  0  0  0  0  0  0  0
   -2.5092    2.2262    0.0000 C   0  0  0  0  0  0  0  0  0
   -2.5092    1.4012    0.0000 C   0  0  0  0  0  0  0  0  0
   -3.2237    0.9887    0.0000 C   0  0  0  0  0  0  0  0  0
   -1.7947    0.9887    0.0000 C   0  0  0  0  0  0  0  0  0
   -1.0803    1.4012    0.0000 C   0  0  0  0  0  0  0  0  0
   -1.7947    2.6387    0.0000 C   0  0  0  0  0  0  0  0  0
   -1.0803    2.2262    0.0000 O   0  0  0  0  0  0  0  0  0
   -1.7947    3.4637    0.0000 C   0  0  0  0  0  0  0  0  0
   -3.9382   -1.0738    0.0000 C   0  0  0  0  0  0  0  0  0
  1  2  1  0  0  0  0
  1  5  1  0  0  0  0
  2  3  4  0  0  0  0
  2 23  4  0  0  0  0
  3  4  1  0  0  0  0
  3  6  4  0  0  0  0
  4  5  1  0  0  0  0
  6  7  4  0  0  0  0
  7  8  1  0  0  0  0
  7 22  4  0  0  0  0
  8  9  1  0  0  0  0
  9 10  1  0  0  0  0
  9 21  1  0  0  0  0
 10 11  1  0  0  0  0
 10 27  1  0  0  0  0
 11 12  1  0  0  0  0
 12 13  1  0  0  0  0
 13 14  4  0  0  0  0
 13 21  4  0  0  0  0
 14 15  4  0  0  0  0
 15 16  1  0  0  0  0
 15 19  4  0  0  0  0
 16 17  2  0  0  0  0
 16 18  1  0  0  0  0
 19 20  4  0  0  0  0
 19 24  1  0  0  0  0
 20 21  4  0  0  0  0
 20 22  1  0  0  0  0
 22 23  4  0  0  0  0
 24 25  2  0  0  0  0
 24 26  1  0  0  0  0
M  END
>  <Name_Molregno>
591110

>  <5-HT1B>
7

>  <5-HT1D>
7.31

>  <5-HT1E>
5

>  <5-HT2A>
6.08

>  <5-HT2C>
5.97

>  <5-HT3>
5

>  <5-HT5>
5.65

>  <5-HT6>
6.59

>  <5-HT7>
7.17

>  <Alpha-1A>
8.7

>  <Alpha-1B>
5.92

>  <Alpha-2A>
5.89

>  <Alpha-2B>
6.6

>  <Alpha-2C>
6.74

>  <Beta-1>
5.07

>  <Beta-2>
5

>  <DOPAMINE D1>
6.05

>  <DOPAMINE D2>
6.07

>  <DOPAMINE D3>
6.51

>  <DOPAMINE D4>
6.58

>  <DOPAMINE D5>
5.62

>  <Dopamine transporter>
5

>  <HISTAMINE H1>
5

>  <HISTAMINE H2>
6.17

>  <HISTAMINE H3>
5

>  <HISTAMINE H4>
5

>  <Muscarinic acetylcholine receptor M1>
5

>  <Muscarinic acetylcholine receptor M2>
5

>  <Muscarinic acetylcholine receptor M3>
5

>  <Muscarinic acetylcholine receptor M4>
5

>  <Norepinephrine transporter>
5

>  <Serotonin transporter>
6.61

$$$$
591828
  Marvin  02231216192D 0   1.00000     0.00000     0

 19 21  0  0  0  0  0  0  0  0999 V2000
    2.1041   -3.7713    0.0000 N   0  0  0  0  0  0  0  0  0
    2.1041   -2.9463    0.0000 C   0  0  0  0  0  0  0  0  0
    1.3897   -2.5338    0.0000 C   0  0  0  0  0  0  0  0  0
    1.3897   -1.7088    0.0000 C   0  0  0  0  0  0  0  0  0
    2.1041   -1.2963    0.0000 C   0  0  0  0  0  0  0  0  0
    2.1041   -0.4713    0.0000 C   0  0  0  0  0  0  0  0  0
    1.3897   -0.0588    0.0000 C   0  0  0  0  0  0  0  0  0
    0.6752   -0.4713    0.0000 C   0  0  0  0  0  0  0  0  0
    0.6752   -1.2963    0.0000 C   0  0  0  0  0  0  0  0  0
   -0.0393   -1.7088    0.0000 C   0  0  0  0  0  0  0  0  0
   -0.7538   -1.2963    0.0000 C   0  0  0  0  0  0  0  0  0
   -0.7538   -0.4713    0.0000 C   0  0  0  0  0  0  0  0  0
   -0.0393   -0.0588    0.0000 C   0  0  0  0  0  0  0  0  0
    2.8186   -0.0588    0.0000 C   0  0  0  0  0  0  0  0  0
    3.5331   -0.4713    0.0000 C   0  0  0  0  0  0  0  0  0
    3.5331   -1.2963    0.0000 C   0  0  0  0  0  0  0  0  0
    2.8186   -1.7088    0.0000 C   0  0  0  0  0  0  0  0  0
    2.8186   -4.1838    0.0000 C   0  0  0  0  0  0  0  0  0
    1.3897   -4.1838    0.0000 C   0  0  0  0  0  0  0  0  0
  1  2  1  0  0  0  0
  1 18  1  0  0  0  0
  1 19  1  0  0  0  0
  2  3  1  0  0  0  0
  3  4  1  0  0  0  0
  4  5  1  0  0  0  0
  4  9  1  0  0  0  0
  5  6  4  0  0  0  0
  5 17  4  0  0  0  0
  6  7  1  0  0  0  0
  6 14  4  0  0  0  0
  7  8  1  0  0  0  0
  8  9  4  0  0  0  0
  8 13  4  0  0  0  0
  9 10  4  0  0  0  0
 10 11  4  0  0  0  0
 11 12  4  0  0  0  0
 12 13  4  0  0  0  0
 14 15  4  0  0  0  0
 15 16  4  0  0  0  0
 16 17  4  0  0  0  0
M  END
>  <Name_Molregno>
591828

>  <5-HT2A>
7.08

>  <HISTAMINE H1>
8.22

$$$$
591856
  Marvin  02231216192D 0   1.00000     0.00000     0

 16 17  0  0  0  0  0  0  0  0999 V2000
   -1.1753   -0.6068    0.0000 N   0  0  0  0  0  0  0  0  0
   -0.4608   -1.0193    0.0000 C   0  0  0  0  0  0  0  0  0
   -0.4608   -1.8443    0.0000 C   0  0  0  0  0  0  0  0  0
    0.2537   -2.2568    0.0000 C   0  0  0  0  0  0  0  0  0
    0.2537   -3.0818    0.0000 C   0  0  0  0  0  0  0  0  0
    0.9682   -3.4943    0.0000 C   0  0  0  0  0  0  0  0  0
    0.9682   -4.3193    0.0000 C   0  0  0  0  0  0  0  0  0
    0.2537   -4.7318    0.0000 C   0  0  0  0  0  0  0  0  0
   -0.4608   -4.3193    0.0000 C   0  0  0  0  0  0  0  0  0
   -0.4608   -3.4943    0.0000 C   0  0  0  0  0  0  0  0  0
    0.9682   -1.8443    0.0000 C   0  0  0  0  0  0  0  0  0
    0.9682   -1.0193    0.0000 C   0  0  0  0  0  0  0  0  0
    1.6826   -0.6068    0.0000 C   0  0  0  0  0  0  0  0  0
    2.3971   -1.0193    0.0000 C   0  0  0  0  0  0  0  0  0
    2.3971   -1.8443    0.0000 C   0  0  0  0  0  0  0  0  0
    1.6826   -2.2568    0.0000 C   0  0  0  0  0  0  0  0  0
  1  2  1  0  0  0  0
  2  3  1  0  0  0  0
  3  4  1  0  0  0  0
  4  5  1  0  0  0  0
  4 11  1  0  0  0  0
  5  6  4  0  0  0  0
  5 10  4  0  0  0  0
  6  7  4  0  0  0  0
  7  8  4  0  0  0  0
  8  9  4  0  0  0  0
  9 10  4  0  0  0  0
 11 12  4  0  0  0  0
 11 16  4  0  0  0  0
 12 13  4  0  0  0  0
 13 14  4  0  0  0  0
 14 15  4  0  0  0  0
 15 16  4  0  0  0  0
M  END
>  <Name_Molregno>
591856

>  <5-HT2A>
5

>  <HISTAMINE H1>
5.56

$$$$
591867
  Marvin  02231216192D 0   1.00000     0.00000     0

 17 18  0  0  0  0  0  0  0  0999 V2000
   -0.6729   -2.2976    0.0000 N   0  0  0  0  0  0  0  0  0
    0.0416   -1.8851    0.0000 C   0  0  0  0  0  0  0  0  0
    0.7560   -2.2976    0.0000 C   0  0  0  0  0  0  0  0  0
    1.4705   -1.8851    0.0000 C   0  0  0  0  0  0  0  0  0
    2.1850   -2.2976    0.0000 C   0  0  0  0  0  0  0  0  0
    2.8994   -1.8851    0.0000 C   0  0  0  0  0  0  0  0  0
    3.6139   -2.2976    0.0000 C   0  0  0  0  0  0  0  0  0
    3.6139   -3.1226    0.0000 C   0  0  0  0  0  0  0  0  0
    2.8994   -3.5351    0.0000 C   0  0  0  0  0  0  0  0  0
    2.1850   -3.1226    0.0000 C   0  0  0  0  0  0  0  0  0
    1.4705   -1.0601    0.0000 C   0  0  0  0  0  0  0  0  0
    0.7560   -0.6476    0.0000 C   0  0  0  0  0  0  0  0  0
    0.7560    0.1774    0.0000 C   0  0  0  0  0  0  0  0  0
    1.4705    0.5899    0.0000 C   0  0  0  0  0  0  0  0  0
    2.1850    0.1774    0.0000 C   0  0  0  0  0  0  0  0  0
    2.1850   -0.6476    0.0000 C   0  0  0  0  0  0  0  0  0
   -1.3874   -1.8851    0.0000 C   0  0  0  0  0  0  0  0  0
  1  2  1  0  0  0  0
  1 17  1  0  0  0  0
  2  3  1  0  0  0  0
  3  4  1  0  0  0  0
  4  5  1  0  0  0  0
  4 11  1  0  0  0  0
  5  6  4  0  0  0  0
  5 10  4  0  0  0  0
  6  7  4  0  0  0  0
  7  8  4  0  0  0  0
  8  9  4  0  0  0  0
  9 10  4  0  0  0  0
 11 12  4  0  0  0  0
 11 16  4  0  0  0  0
 12 13  4  0  0  0  0
 13 14  4  0  0  0  0
 14 15  4  0  0  0  0
 15 16  4  0  0  0  0
M  END
>  <Name_Molregno>
591867

>  <5-HT2A>
5.82

>  <HISTAMINE H1>
7.19

$$$$
591869
  Marvin  02231216192D 0   1.00000     0.00000     0

 18 19  0  0  0  0  0  0  0  0999 V2000
   -0.5985   -2.0710    0.0000 N   0  0  0  0  0  0  0  0  0
    0.1160   -1.6585    0.0000 C   0  0  0  0  0  0  0  0  0
    0.8305   -2.0710    0.0000 C   0  0  0  0  0  0  0  0  0
    1.5450   -1.6585    0.0000 C   0  0  0  0  0  0  0  0  0
    2.2594   -2.0710    0.0000 C   0  0  0  0  0  0  0  0  0
    2.9739   -1.6585    0.0000 C   0  0  0  0  0  0  0  0  0
    3.6884   -2.0710    0.0000 C   0  0  0  0  0  0  0  0  0
    3.6884   -2.8960    0.0000 C   0  0  0  0  0  0  0  0  0
    2.9739   -3.3085    0.0000 C   0  0  0  0  0  0  0  0  0
    2.2594   -2.8960    0.0000 C   0  0  0  0  0  0  0  0  0
    1.5450   -0.8335    0.0000 C   0  0  0  0  0  0  0  0  0
    0.8305   -0.4210    0.0000 C   0  0  0  0  0  0  0  0  0
    0.8305    0.4040    0.0000 C   0  0  0  0  0  0  0  0  0
    1.5450    0.8165    0.0000 C   0  0  0  0  0  0  0  0  0
    2.2594    0.4040    0.0000 C   0  0  0  0  0  0  0  0  0
    2.2594   -0.4210    0.0000 C   0  0  0  0  0  0  0  0  0
   -0.5985   -2.8960    0.0000 C   0  0  0  0  0  0  0  0  0
   -1.3129   -1.6585    0.0000 C   0  0  0  0  0  0  0  0  0
  1  2  1  0  0  0  0
  1 17  1  0  0  0  0
  1 18  1  0  0  0  0
  2  3  1  0  0  0  0
  3  4  1  0  0  0  0
  4  5  1  0  0  0  0
  4 11  1  0  0  0  0
  5  6  4  0  0  0  0
  5 10  4  0  0  0  0
  6  7  4  0  0  0  0
  7  8  4  0  0  0  0
  8  9  4  0  0  0  0
  9 10  4  0  0  0  0
 11 12  4  0  0  0  0
 11 16  4  0  0  0  0
 12 13  4  0  0  0  0
 13 14  4  0  0  0  0
 14 15  4  0  0  0  0
 15 16  4  0  0  0  0
M  END
>  <Name_Molregno>
591869

>  <5-HT2A>
5.79

>  <HISTAMINE H1>
7.12

$$$$
591870
  Marvin  02231216192D 0   1.00000     0.00000     0

 17 18  0  0  0  0  0  0  0  0999 V2000
   -0.5839   -1.8877    0.0000 N   0  0  0  0  0  0  0  0  0
    0.1306   -2.3002    0.0000 C   0  0  0  0  0  0  0  0  0
    0.8451   -1.8877    0.0000 C   0  0  0  0  0  0  0  0  0
    1.5596   -2.3002    0.0000 C   0  0  0  0  0  0  0  0  0
    2.2740   -1.8877    0.0000 C   0  0  0  0  0  0  0  0  0
    2.9885   -2.3002    0.0000 C   0  0  0  0  0  0  0  0  0
    3.7030   -1.8877    0.0000 C   0  0  0  0  0  0  0  0  0
    4.4174   -2.3002    0.0000 C   0  0  0  0  0  0  0  0  0
    4.4174   -3.1252    0.0000 C   0  0  0  0  0  0  0  0  0
    3.7030   -3.5377    0.0000 C   0  0  0  0  0  0  0  0  0
    2.9885   -3.1252    0.0000 C   0  0  0  0  0  0  0  0  0
    2.2740   -1.0627    0.0000 C   0  0  0  0  0  0  0  0  0
    1.5596   -0.6502    0.0000 C   0  0  0  0  0  0  0  0  0
    1.5596    0.1748    0.0000 C   0  0  0  0  0  0  0  0  0
    2.2740    0.5873    0.0000 C   0  0  0  0  0  0  0  0  0
    2.9885    0.1748    0.0000 C   0  0  0  0  0  0  0  0  0
    2.9885   -0.6502    0.0000 C   0  0  0  0  0  0  0  0  0
  1  2  1  0  0  0  0
  2  3  1  0  0  0  0
  3  4  1  0  0  0  0
  4  5  1  0  0  0  0
  5  6  1  0  0  0  0
  5 12  1  0  0  0  0
  6  7  4  0  0  0  0
  6 11  4  0  0  0  0
  7  8  4  0  0  0  0
  8  9  4  0  0  0  0
  9 10  4  0  0  0  0
 10 11  4  0  0  0  0
 12 13  4  0  0  0  0
 12 17  4  0  0  0  0
 13 14  4  0  0  0  0
 14 15  4  0  0  0  0
 15 16  4  0  0  0  0
 16 17  4  0  0  0  0
M  END
>  <Name_Molregno>
591870

>  <5-HT2A>
5.59

>  <HISTAMINE H1>
5.78

$$$$
591871
  Marvin  02231216192D 0   1.00000     0.00000     0

 18 19  0  0  0  0  0  0  0  0999 V2000
   -0.5262   -1.7099    0.0000 N   0  0  0  0  0  0  0  0  0
    0.1883   -2.1224    0.0000 C   0  0  0  0  0  0  0  0  0
    0.9027   -1.7099    0.0000 C   0  0  0  0  0  0  0  0  0
    1.6172   -2.1224    0.0000 C   0  0  0  0  0  0  0  0  0
    2.3317   -1.7099    0.0000 C   0  0  0  0  0  0  0  0  0
    3.0461   -2.1224    0.0000 C   0  0  0  0  0  0  0  0  0
    3.7606   -1.7099    0.0000 C   0  0  0  0  0  0  0  0  0
    4.4751   -2.1224    0.0000 C   0  0  0  0  0  0  0  0  0
    4.4751   -2.9474    0.0000 C   0  0  0  0  0  0  0  0  0
    3.7606   -3.3599    0.0000 C   0  0  0  0  0  0  0  0  0
    3.0461   -2.9474    0.0000 C   0  0  0  0  0  0  0  0  0
    2.3317   -0.8849    0.0000 C   0  0  0  0  0  0  0  0  0
    1.6172   -0.4724    0.0000 C   0  0  0  0  0  0  0  0  0
    1.6172    0.3526    0.0000 C   0  0  0  0  0  0  0  0  0
    2.3317    0.7651    0.0000 C   0  0  0  0  0  0  0  0  0
    3.0461    0.3526    0.0000 C   0  0  0  0  0  0  0  0  0
    3.0461   -0.4724    0.0000 C   0  0  0  0  0  0  0  0  0
   -1.2407   -2.1224    0.0000 C   0  0  0  0  0  0  0  0  0
  1  2  1  0  0  0  0
  1 18  1  0  0  0  0
  2  3  1  0  0  0  0
  3  4  1  0  0  0  0
  4  5  1  0  0  0  0
  5  6  1  0  0  0  0
  5 12  1  0  0  0  0
  6  7  4  0  0  0  0
  6 11  4  0  0  0  0
  7  8  4  0  0  0  0
  8  9  4  0  0  0  0
  9 10  4  0  0  0  0
 10 11  4  0  0  0  0
 12 13  4  0  0  0  0
 12 17  4  0  0  0  0
 13 14  4  0  0  0  0
 14 15  4  0  0  0  0
 15 16  4  0  0  0  0
 16 17  4  0  0  0  0
M  END
>  <Name_Molregno>
591871

>  <5-HT2A>
6.12

>  <HISTAMINE H1>
6.41

$$$$
591883
  Marvin  02231216192D 0   1.00000     0.00000     0

 19 20  0  0  0  0  0  0  0  0999 V2000
   -0.5317   -1.7172    0.0000 N   0  0  0  0  0  0  0  0  0
    0.1828   -2.1297    0.0000 C   0  0  0  0  0  0  0  0  0
    0.8972   -1.7172    0.0000 C   0  0  0  0  0  0  0  0  0
    1.6117   -2.1297    0.0000 C   0  0  0  0  0  0  0  0  0
    2.3262   -1.7172    0.0000 C   0  0  0  0  0  0  0  0  0
    3.0406   -2.1297    0.0000 C   0  0  0  0  0  0  0  0  0
    3.7551   -1.7172    0.0000 C   0  0  0  0  0  0  0  0  0
    4.4696   -2.1297    0.0000 C   0  0  0  0  0  0  0  0  0
    4.4696   -2.9547    0.0000 C   0  0  0  0  0  0  0  0  0
    3.7551   -3.3672    0.0000 C   0  0  0  0  0  0  0  0  0
    3.0406   -2.9547    0.0000 C   0  0  0  0  0  0  0  0  0
    2.3262   -0.8922    0.0000 C   0  0  0  0  0  0  0  0  0
    1.6117   -0.4797    0.0000 C   0  0  0  0  0  0  0  0  0
    1.6117    0.3453    0.0000 C   0  0  0  0  0  0  0  0  0
    2.3262    0.7578    0.0000 C   0  0  0  0  0  0  0  0  0
    3.0406    0.3453    0.0000 C   0  0  0  0  0  0  0  0  0
    3.0406   -0.4797    0.0000 C   0  0  0  0  0  0  0  0  0
   -1.2462   -2.1297    0.0000 C   0  0  0  0  0  0  0  0  0
   -0.5317   -0.8922    0.0000 C   0  0  0  0  0  0  0  0  0
  1  2  1  0  0  0  0
  1 18  1  0  0  0  0
  1 19  1  0  0  0  0
  2  3  1  0  0  0  0
  3  4  1  0  0  0  0
  4  5  1  0  0  0  0
  5  6  1  0  0  0  0
  5 12  1  0  0  0  0
  6  7  4  0  0  0  0
  6 11  4  0  0  0  0
  7  8  4  0  0  0  0
  8  9  4  0  0  0  0
  9 10  4  0  0  0  0
 10 11  4  0  0  0  0
 12 13  4  0  0  0  0
 12 17  4  0  0  0  0
 13 14  4  0  0  0  0
 14 15  4  0  0  0  0
 15 16  4  0  0  0  0
 16 17  4  0  0  0  0
M  END
>  <Name_Molregno>
591883

>  <5-HT2A>
5.94

>  <HISTAMINE H1>
7.15

$$$$
591899
  Marvin  02231216192D 0   1.00000     0.00000     0

 18 20  0  0  0  0  0  0  0  0999 V2000
   -1.0442   -4.0454    0.0000 N   0  0  0  0  0  0  0  0  0
   -1.0442   -3.2204    0.0000 C   0  0  0  0  0  0  0  0  0
   -1.7587   -2.8079    0.0000 C   0  0  0  0  0  0  0  0  0
   -1.7587   -1.9829    0.0000 C   0  0  0  0  0  0  0  0  0
   -1.0442   -1.5704    0.0000 C   0  0  0  0  0  0  0  0  0
   -1.0442   -0.7454    0.0000 C   0  0  0  0  0  0  0  0  0
   -1.7587   -0.3329    0.0000 C   0  0  0  0  0  0  0  0  0
   -2.4731   -0.7454    0.0000 C   0  0  0  0  0  0  0  0  0
   -2.4731   -1.5704    0.0000 C   0  0  0  0  0  0  0  0  0
   -3.1876   -1.9829    0.0000 C   0  0  0  0  0  0  0  0  0
   -3.9021   -1.5704    0.0000 C   0  0  0  0  0  0  0  0  0
   -3.9021   -0.7454    0.0000 C   0  0  0  0  0  0  0  0  0
   -3.1876   -0.3329    0.0000 C   0  0  0  0  0  0  0  0  0
   -0.3297   -0.3329    0.0000 C   0  0  0  0  0  0  0  0  0
    0.3848   -0.7454    0.0000 C   0  0  0  0  0  0  0  0  0
    0.3848   -1.5704    0.0000 C   0  0  0  0  0  0  0  0  0
   -0.3297   -1.9829    0.0000 C   0  0  0  0  0  0  0  0  0
   -0.3297   -4.4579    0.0000 C   0  0  0  0  0  0  0  0  0
  1  2  1  0  0  0  0
  1 18  1  0  0  0  0
  2  3  1  0  0  0  0
  3  4  1  0  0  0  0
  4  5  1  0  0  0  0
  4  9  1  0  0  0  0
  5  6  4  0  0  0  0
  5 17  4  0  0  0  0
  6  7  1  0  0  0  0
  6 14  4  0  0  0  0
  7  8  1  0  0  0  0
  8  9  4  0  0  0  0
  8 13  4  0  0  0  0
  9 10  4  0  0  0  0
 10 11  4  0  0  0  0
 11 12  4  0  0  0  0
 12 13  4  0  0  0  0
 14 15  4  0  0  0  0
 15 16  4  0  0  0  0
 16 17  4  0  0  0  0
M  END
>  <Name_Molregno>
591899

>  <5-HT2A>
7.04

>  <HISTAMINE H1>
7.32

$$$$
594448
  Marvin  02231216192D 0   1.00000     0.00000     0

 24 27  0  0  1  0  0  0  0  0999 V2000
   -0.1249   -0.5370    0.0000 O   0  0  0  0  0  0  0  0  0
    0.6852   -0.6929    0.0000 C   0  0  0  0  0  0  0  0  0
   -0.3950    0.2426    0.0000 C   0  0  0  0  0  0  0  0  0
   -1.2051    0.3985    0.0000 C   0  0  0  0  0  0  0  0  0
   -1.4751    1.1780    0.0000 C   0  0  0  0  0  0  0  0  0
   -2.2853    1.3340    0.0000 C   0  0  0  0  0  0  0  0  0
   -2.8254    0.7103    0.0000 C   0  0  0  0  0  0  0  0  0
   -2.5553   -0.0692    0.0000 N   0  0  0  0  0  0  0  0  0
   -1.7452   -0.2251    0.0000 C   0  0  0  0  0  0  0  0  0
   -3.0954   -0.6929    0.0000 C   0  0  0  0  0  0  0  0  0
   -3.9055   -0.5370    0.0000 C   0  0  0  0  0  0  0  0  0
   -4.1756    0.2426    0.0000 C   0  0  0  0  0  0  0  0  0
   -4.9857    0.3985    0.0000 C   0  0  0  0  0  0  0  0  0
   -5.2558    1.1780    0.0000 C   0  0  0  0  0  0  0  0  0
   -6.0659    1.3340    0.0000 O   0  0  0  0  0  0  0  0  0
   -6.6060    0.7103    0.0000 C   0  0  0  0  0  0  0  0  0
   -4.7157    1.8017    0.0000 C   0  0  0  0  0  0  0  0  0
   -4.9857    2.5812    0.0000 O   0  0  0  0  0  0  0  0  0
   -3.9055    1.6458    0.0000 C   0  0  0  0  0  0  0  0  0
   -3.6355    0.8662    0.0000 C   0  0  0  0  0  0  0  0  0
   -0.9351    1.8017    0.0000 C   0  0  0  0  0  0  0  0  0
   -0.1249    1.6458    0.0000 C   0  0  0  0  0  0  0  0  0
    0.1451    0.8662    0.0000 C   0  0  0  0  0  0  0  0  0
    0.9553    0.7103    0.0000 O   0  0  0  0  0  0  0  0  0
  1  2  1  0  0  0  0
  1  3  1  0  0  0  0
  3  4  4  0  0  0  0
  3 23  4  0  0  0  0
  4  5  4  0  0  0  0
  4  9  1  0  0  0  0
  5  6  1  0  0  0  0
  5 21  4  0  0  0  0
  6  7  1  0  0  0  0
  7  8  1  0  0  0  0
  7 20  1  0  0  0  0
  8  9  1  0  0  0  0
  8 10  1  0  0  0  0
 10 11  1  0  0  0  0
 11 12  1  0  0  0  0
 12 13  4  0  0  0  0
 12 20  4  0  0  0  0
 13 14  4  0  0  0  0
 14 15  1  0  0  0  0
 14 17  4  0  0  0  0
 15 16  1  0  0  0  0
 17 18  1  0  0  0  0
 17 19  4  0  0  0  0
 19 20  4  0  0  0  0
 21 22  4  0  0  0  0
 22 23  4  0  0  0  0
 23 24  1  0  0  0  0
M  END
>  <Name_Molregno>
594448

>  <5-HT1A>
6.84

>  <5-HT1B>
5.16

>  <5-HT1D>
5

>  <5-HT1E>
5

>  <5-HT2A>
5

>  <5-HT3>
5

>  <5-HT5>
5

>  <5-HT6>
5

>  <5-HT7>
5

>  <Alpha-1A>
5

>  <Alpha-1B>
5

>  <Alpha-2A>
5

>  <Alpha-2B>
5.16

>  <Alpha-2C>
6.67

>  <Beta-1>
5

>  <Beta-2>
5

>  <DOPAMINE D1>
8.23

>  <DOPAMINE D2>
6.01

>  <DOPAMINE D4>
5.43

>  <DOPAMINE D5>
8.36

>  <Dopamine transporter>
5

>  <HISTAMINE H1>
5

>  <HISTAMINE H2>
5

>  <HISTAMINE H4>
5

>  <Muscarinic acetylcholine receptor M2>
5

>  <Muscarinic acetylcholine receptor M5>
5

>  <Norepinephrine transporter>
5

>  <Serotonin transporter>
5

$$$$
595595
  Marvin  02231216192D 0   1.00000     0.00000     0

 24 26  0  0  0  0  0  0  0  0999 V2000
    0.4034    0.5918    0.0000 Cl  0  0  0  0  0  0  0  0  0
    0.4034   -0.2332    0.0000 C   0  0  0  0  0  0  0  0  0
    1.1178   -0.6457    0.0000 C   0  0  0  0  0  0  0  0  0
    1.1178   -1.4707    0.0000 C   0  0  0  0  0  0  0  0  0
    0.4034   -1.8832    0.0000 C   0  0  0  0  0  0  0  0  0
   -0.3111   -1.4707    0.0000 C   0  0  0  0  0  0  0  0  0
   -1.0256   -1.8832    0.0000 Cl  0  0  0  0  0  0  0  0  0
   -0.3111   -0.6457    0.0000 C   0  0  0  0  0  0  0  0  0
   -1.0256   -0.2332    0.0000 C   0  0  0  0  0  0  0  0  0
   -1.0256    0.5918    0.0000 N   0  0  0  0  0  0  0  0  0
   -1.7401    1.0043    0.0000 C   0  0  0  0  0  0  0  0  0
   -2.4545    0.5918    0.0000 N   0  0  0  0  0  0  0  0  0
   -3.1690    1.0043    0.0000 C   0  0  0  0  0  0  0  0  0
   -3.1690    1.8293    0.0000 N   0  0  0  0  0  0  0  0  0
   -2.4545    2.2418    0.0000 C   0  0  0  0  0  0  0  0  0
   -2.4545    3.0668    0.0000 N   0  0  0  0  0  0  0  0  0
   -3.1690    3.4793    0.0000 C   0  0  0  0  0  0  0  0  0
   -3.1690    4.3043    0.0000 C   0  0  0  0  0  0  0  0  0
   -2.4545    4.7168    0.0000 N   0  0  0  0  0  0  0  0  0
   -1.7401    4.3043    0.0000 C   0  0  0  0  0  0  0  0  0
   -1.7401    3.4793    0.0000 C   0  0  0  0  0  0  0  0  0
   -2.4545    5.5418    0.0000 C   0  0  0  0  0  0  0  0  0
   -1.7401    1.8293    0.0000 C   0  0  0  0  0  0  0  0  0
   -3.8835    0.5918    0.0000 N   0  0  0  0  0  0  0  0  0
  1  2  1  0  0  0  0
  2  3  4  0  0  0  0
  2  8  4  0  0  0  0
  3  4  4  0  0  0  0
  4  5  4  0  0  0  0
  5  6  4  0  0  0  0
  6  7  1  0  0  0  0
  6  8  4  0  0  0  0
  8  9  1  0  0  0  0
  9 10  1  0  0  0  0
 10 11  1  0  0  0  0
 11 12  4  0  0  0  0
 11 23  4  0  0  0  0
 12 13  4  0  0  0  0
 13 14  4  0  0  0  0
 13 24  1  0  0  0  0
 14 15  4  0  0  0  0
 15 16  1  0  0  0  0
 15 23  4  0  0  0  0
 16 17  1  0  0  0  0
 16 21  1  0  0  0  0
 17 18  1  0  0  0  0
 18 19  1  0  0  0  0
 19 20  1  0  0  0  0
 19 22  1  0  0  0  0
 20 21  1  0  0  0  0
M  END
>  <Name_Molregno>
595595

>  <HISTAMINE H1>
6

>  <HISTAMINE H2>
6

>  <HISTAMINE H3>
6.29

>  <HISTAMINE H4>
7.93

$$$$
595768
  Marvin  02231216192D 0   1.00000     0.00000     0

 23 25  0  0  0  0  0  0  0  0999 V2000
    4.8973   -1.8913    0.0000 Cl  0  0  0  0  0  0  0  0  0
    4.8973   -2.7163    0.0000 C   0  0  0  0  0  0  0  0  0
    5.6117   -3.1288    0.0000 C   0  0  0  0  0  0  0  0  0
    5.6117   -3.9538    0.0000 C   0  0  0  0  0  0  0  0  0
    4.8973   -4.3663    0.0000 C   0  0  0  0  0  0  0  0  0
    4.1828   -3.9538    0.0000 C   0  0  0  0  0  0  0  0  0
    4.1828   -3.1288    0.0000 C   0  0  0  0  0  0  0  0  0
    3.4683   -2.7163    0.0000 C   0  0  0  0  0  0  0  0  0
    3.4683   -1.8913    0.0000 N   0  0  0  0  0  0  0  0  0
    2.7539   -1.4788    0.0000 C   0  0  0  0  0  0  0  0  0
    2.0394   -1.8913    0.0000 N   0  0  0  0  0  0  0  0  0
    1.3249   -1.4788    0.0000 C   0  0  0  0  0  0  0  0  0
    1.3249   -0.6538    0.0000 N   0  0  0  0  0  0  0  0  0
    2.0394   -0.2413    0.0000 C   0  0  0  0  0  0  0  0  0
    2.0394    0.5837    0.0000 N   0  0  0  0  0  0  0  0  0
    1.3249    0.9962    0.0000 C   0  0  0  0  0  0  0  0  0
    1.3249    1.8212    0.0000 C   0  0  0  0  0  0  0  0  0
    2.0394    2.2337    0.0000 N   0  0  0  0  0  0  0  0  0
    2.7539    1.8212    0.0000 C   0  0  0  0  0  0  0  0  0
    2.7539    0.9962    0.0000 C   0  0  0  0  0  0  0  0  0
    2.0394    3.0587    0.0000 C   0  0  0  0  0  0  0  0  0
    2.7539   -0.6538    0.0000 C   0  0  0  0  0  0  0  0  0
    0.6104   -1.8913    0.0000 N   0  0  0  0  0  0  0  0  0
  1  2  1  0  0  0  0
  2  3  4  0  0  0  0
  2  7  4  0  0  0  0
  3  4  4  0  0  0  0
  4  5  4  0  0  0  0
  5  6  4  0  0  0  0
  6  7  4  0  0  0  0
  7  8  1  0  0  0  0
  8  9  1  0  0  0  0
  9 10  1  0  0  0  0
 10 11  4  0  0  0  0
 10 22  4  0  0  0  0
 11 12  4  0  0  0  0
 12 13  4  0  0  0  0
 12 23  1  0  0  0  0
 13 14  4  0  0  0  0
 14 15  1  0  0  0  0
 14 22  4  0  0  0  0
 15 16  1  0  0  0  0
 15 20  1  0  0  0  0
 16 17  1  0  0  0  0
 17 18  1  0  0  0  0
 18 19  1  0  0  0  0
 18 21  1  0  0  0  0
 19 20  1  0  0  0  0
M  END
>  <Name_Molregno>
595768

>  <HISTAMINE H1>
6

>  <HISTAMINE H2>
6

>  <HISTAMINE H3>
6.46

>  <HISTAMINE H4>
7.75

$$$$
595783
  Marvin  02231216192D 0   1.00000     0.00000     0

 23 25  0  0  0  0  0  0  0  0999 V2000
    1.4919    3.0883    0.0000 N   0  0  0  0  0  0  0  0  0
    1.4919    2.2633    0.0000 C   0  0  0  0  0  0  0  0  0
    2.2064    1.8508    0.0000 N   0  0  0  0  0  0  0  0  0
    2.9209    2.2633    0.0000 C   0  0  0  0  0  0  0  0  0
    3.6353    1.8508    0.0000 C   0  0  0  0  0  0  0  0  0
    3.6353    1.0258    0.0000 N   0  0  0  0  0  0  0  0  0
    2.9209    0.6133    0.0000 C   0  0  0  0  0  0  0  0  0
    2.2064    1.0258    0.0000 C   0  0  0  0  0  0  0  0  0
    4.3498    0.6133    0.0000 C   0  0  0  0  0  0  0  0  0
    0.7775    1.8508    0.0000 C   0  0  0  0  0  0  0  0  0
    0.0630    2.2633    0.0000 C   0  0  0  0  0  0  0  0  0
    0.0630    3.0883    0.0000 N   0  0  0  0  0  0  0  0  0
    0.7775    3.5008    0.0000 C   0  0  0  0  0  0  0  0  0
    0.7775    4.3258    0.0000 N   0  0  0  0  0  0  0  0  0
   -0.6515    1.8508    0.0000 N   0  0  0  0  0  0  0  0  0
   -0.6515    1.0258    0.0000 C   0  0  0  0  0  0  0  0  0
   -1.3659    0.6133    0.0000 C   0  0  0  0  0  0  0  0  0
   -1.3659   -0.2117    0.0000 C   0  0  0  0  0  0  0  0  0
   -2.0804   -0.6242    0.0000 C   0  0  0  0  0  0  0  0  0
   -2.7949   -0.2117    0.0000 C   0  0  0  0  0  0  0  0  0
   -2.7949    0.6133    0.0000 C   0  0  0  0  0  0  0  0  0
   -2.0804    1.0258    0.0000 C   0  0  0  0  0  0  0  0  0
   -2.0804    1.8508    0.0000 C   0  0  0  0  0  0  0  0  0
  1  2  4  0  0  0  0
  1 13  4  0  0  0  0
  2  3  1  0  0  0  0
  2 10  4  0  0  0  0
  3  4  1  0  0  0  0
  3  8  1  0  0  0  0
  4  5  1  0  0  0  0
  5  6  1  0  0  0  0
  6  7  1  0  0  0  0
  6  9  1  0  0  0  0
  7  8  1  0  0  0  0
 10 11  4  0  0  0  0
 11 12  4  0  0  0  0
 11 15  1  0  0  0  0
 12 13  4  0  0  0  0
 13 14  1  0  0  0  0
 15 16  1  0  0  0  0
 16 17  1  0  0  0  0
 17 18  4  0  0  0  0
 17 22  4  0  0  0  0
 18 19  4  0  0  0  0
 19 20  4  0  0  0  0
 20 21  4  0  0  0  0
 21 22  4  0  0  0  0
 22 23  1  0  0  0  0
M  END
>  <Name_Molregno>
595783

>  <HISTAMINE H1>
6

>  <HISTAMINE H2>
6

>  <HISTAMINE H3>
6.35

>  <HISTAMINE H4>
7.62

$$$$
595785
  Marvin  02231216192D 0   1.00000     0.00000     0

 23 25  0  0  0  0  0  0  0  0999 V2000
    5.4481    5.5471    0.0000 F   0  0  0  0  0  0  0  0  0
    5.4481    4.7221    0.0000 C   0  0  0  0  0  0  0  0  0
    6.1626    4.3096    0.0000 C   0  0  0  0  0  0  0  0  0
    6.1626    3.4846    0.0000 C   0  0  0  0  0  0  0  0  0
    5.4481    3.0721    0.0000 C   0  0  0  0  0  0  0  0  0
    4.7336    3.4846    0.0000 C   0  0  0  0  0  0  0  0  0
    4.7336    4.3096    0.0000 C   0  0  0  0  0  0  0  0  0
    5.4481    2.2471    0.0000 C   0  0  0  0  0  0  0  0  0
    4.7336    1.8346    0.0000 N   0  0  0  0  0  0  0  0  0
    4.7336    1.0096    0.0000 C   0  0  0  0  0  0  0  0  0
    5.4481    0.5971    0.0000 N   0  0  0  0  0  0  0  0  0
    5.4481   -0.2279    0.0000 C   0  0  0  0  0  0  0  0  0
    4.7336   -0.6404    0.0000 N   0  0  0  0  0  0  0  0  0
    4.0191   -0.2279    0.0000 C   0  0  0  0  0  0  0  0  0
    3.3047   -0.6404    0.0000 N   0  0  0  0  0  0  0  0  0
    3.3047   -1.4654    0.0000 C   0  0  0  0  0  0  0  0  0
    2.5902   -1.8779    0.0000 C   0  0  0  0  0  0  0  0  0
    1.8757   -1.4654    0.0000 N   0  0  0  0  0  0  0  0  0
    1.8757   -0.6404    0.0000 C   0  0  0  0  0  0  0  0  0
    2.5902   -0.2279    0.0000 C   0  0  0  0  0  0  0  0  0
    1.1613   -1.8779    0.0000 C   0  0  0  0  0  0  0  0  0
    4.0191    0.5971    0.0000 C   0  0  0  0  0  0  0  0  0
    6.1626   -0.6404    0.0000 N   0  0  0  0  0  0  0  0  0
  1  2  1  0  0  0  0
  2  3  4  0  0  0  0
  2  7  4  0  0  0  0
  3  4  4  0  0  0  0
  4  5  4  0  0  0  0
  5  6  4  0  0  0  0
  5  8  1  0  0  0  0
  6  7  4  0  0  0  0
  8  9  1  0  0  0  0
  9 10  1  0  0  0  0
 10 11  4  0  0  0  0
 10 22  4  0  0  0  0
 11 12  4  0  0  0  0
 12 13  4  0  0  0  0
 12 23  1  0  0  0  0
 13 14  4  0  0  0  0
 14 15  1  0  0  0  0
 14 22  4  0  0  0  0
 15 16  1  0  0  0  0
 15 20  1  0  0  0  0
 16 17  1  0  0  0  0
 17 18  1  0  0  0  0
 18 19  1  0  0  0  0
 18 21  1  0  0  0  0
 19 20  1  0  0  0  0
M  END
>  <Name_Molregno>
595785

>  <HISTAMINE H1>
6

>  <HISTAMINE H2>
6

>  <HISTAMINE H3>
6.49

>  <HISTAMINE H4>
7.36

$$$$
599916
  Marvin  02231216192D 0   1.00000     0.00000     0

 22 25  0  0  1  0  0  0  0  0999 V2000
    0.0672   -0.5836    0.0000 O   0  0  0  0  0  0  0  0  0
    0.3372   -1.3631    0.0000 C   0  0  0  0  0  0  0  0  0
   -0.7429   -0.4277    0.0000 C   0  0  0  0  0  0  0  0  0
   -1.0130    0.3519    0.0000 C   0  0  0  0  0  0  0  0  0
   -1.8231    0.5078    0.0000 C   0  0  0  0  0  0  0  0  0
   -2.3632   -0.1159    0.0000 C   0  0  0  0  0  0  0  0  0
   -3.1733    0.0401    0.0000 C   0  0  0  0  0  0  0  0  0
   -3.4434    0.8196    0.0000 C   0  0  0  0  0  0  0  0  0
   -4.2535    0.9755    0.0000 C   0  0  0  0  0  0  0  0  0
   -4.7936    0.3519    0.0000 C   0  0  0  0  0  0  0  0  0
   -4.5236   -0.4277    0.0000 C   0  0  0  0  0  0  0  0  0
   -5.0637   -1.0513    0.0000 C   0  0  0  0  0  0  0  0  0
   -5.8738   -0.8954    0.0000 C   0  0  0  0  0  0  0  0  0
   -6.1438   -0.1159    0.0000 C   0  0  0  0  0  0  0  0  0
   -5.6037    0.5078    0.0000 C   0  0  0  0  0  0  0  0  0
   -3.7134   -0.5836    0.0000 C   0  0  0  0  0  0  0  0  0
   -3.4434   -1.3631    0.0000 C   0  0  0  0  0  0  0  0  0
   -3.9835   -1.9868    0.0000 N   0  0  0  0  0  0  0  0  0
   -2.9033    1.4433    0.0000 C   0  0  0  0  0  0  0  0  0
   -2.0932    1.2873    0.0000 C   0  0  0  0  0  0  0  0  0
   -2.0932   -0.8954    0.0000 C   0  0  0  0  0  0  0  0  0
   -1.2830   -1.0513    0.0000 C   0  0  0  0  0  0  0  0  0
  1  2  1  0  0  0  0
  1  3  1  0  0  0  0
  3  4  4  0  0  0  0
  3 22  4  0  0  0  0
  4  5  4  0  0  0  0
  5  6  4  0  0  0  0
  5 20  4  0  0  0  0
  6  7  4  0  0  0  0
  6 21  4  0  0  0  0
  7  8  4  0  0  0  0
  7 16  1  0  0  0  0
  8  9  1  0  0  0  0
  8 19  4  0  0  0  0
  9 10  1  0  0  0  0
 10 11  4  0  0  0  0
 10 15  4  0  0  0  0
 11 12  4  0  0  0  0
 11 16  1  0  0  0  0
 12 13  4  0  0  0  0
 13 14  4  0  0  0  0
 14 15  4  0  0  0  0
 16 17  1  0  0  0  0
 17 18  1  0  0  0  0
 19 20  4  0  0  0  0
 21 22  4  0  0  0  0
M  END
>  <Name_Molregno>
599916

>  <5-HT2A>
7.68

>  <HISTAMINE H1>
5.58

$$$$
599996
  Marvin  02231216192D 0   1.00000     0.00000     0

 24 27  0  0  0  0  0  0  0  0999 V2000
    0.6407   -0.6432    0.0000 N   0  0  0  0  0  0  0  0  0
   -0.0737   -0.2307    0.0000 C   0  0  0  0  0  0  0  0  0
   -0.0737    0.5943    0.0000 C   0  0  0  0  0  0  0  0  0
    0.6407    1.0068    0.0000 C   0  0  0  0  0  0  0  0  0
    0.6407    1.8318    0.0000 C   0  0  0  0  0  0  0  0  0
   -0.0737    2.2443    0.0000 C   0  0  0  0  0  0  0  0  0
   -0.7882    1.8318    0.0000 C   0  0  0  0  0  0  0  0  0
   -0.7882    1.0068    0.0000 C   0  0  0  0  0  0  0  0  0
   -1.5027    0.5943    0.0000 C   0  0  0  0  0  0  0  0  0
   -2.2171    1.0068    0.0000 C   0  0  0  0  0  0  0  0  0
   -2.2171    1.8318    0.0000 C   0  0  0  0  0  0  0  0  0
   -1.5027    2.2443    0.0000 C   0  0  0  0  0  0  0  0  0
    1.3552    2.2443    0.0000 C   0  0  0  0  0  0  0  0  0
    2.0697    1.8318    0.0000 C   0  0  0  0  0  0  0  0  0
    2.0697    1.0068    0.0000 C   0  0  0  0  0  0  0  0  0
    1.3552    0.5943    0.0000 C   0  0  0  0  0  0  0  0  0
    0.6407   -1.4682    0.0000 C   0  0  0  0  0  0  0  0  0
    1.3552   -1.8807    0.0000 C   0  0  0  0  0  0  0  0  0
    1.3552   -2.7057    0.0000 C   0  0  0  0  0  0  0  0  0
    2.0697   -3.1182    0.0000 C   0  0  0  0  0  0  0  0  0
    2.0697   -3.9432    0.0000 C   0  0  0  0  0  0  0  0  0
    1.3552   -4.3557    0.0000 C   0  0  0  0  0  0  0  0  0
    0.6407   -3.9432    0.0000 C   0  0  0  0  0  0  0  0  0
    0.6407   -3.1182    0.0000 C   0  0  0  0  0  0  0  0  0
  1  2  1  0  0  0  0
  1 17  1  0  0  0  0
  2  3  1  0  0  0  0
  3  4  1  0  0  0  0
  3  8  1  0  0  0  0
  4  5  4  0  0  0  0
  4 16  4  0  0  0  0
  5  6  1  0  0  0  0
  5 13  4  0  0  0  0
  6  7  1  0  0  0  0
  7  8  4  0  0  0  0
  7 12  4  0  0  0  0
  8  9  4  0  0  0  0
  9 10  4  0  0  0  0
 10 11  4  0  0  0  0
 11 12  4  0  0  0  0
 13 14  4  0  0  0  0
 14 15  4  0  0  0  0
 15 16  4  0  0  0  0
 17 18  1  0  0  0  0
 18 19  1  0  0  0  0
 19 20  4  0  0  0  0
 19 24  4  0  0  0  0
 20 21  4  0  0  0  0
 21 22  4  0  0  0  0
 22 23  4  0  0  0  0
 23 24  4  0  0  0  0
M  END
>  <Name_Molregno>
599996

>  <5-HT2A>
6.4

>  <HISTAMINE H1>
6.62

$$$$
599997
  Marvin  02231216192D 0   1.00000     0.00000     0

 25 28  0  0  0  0  0  0  0  0999 V2000
    0.3950    0.5536    0.0000 N   0  0  0  0  0  0  0  0  0
   -0.3195    0.9661    0.0000 C   0  0  0  0  0  0  0  0  0
   -1.0339    0.5537    0.0000 C   0  0  0  0  0  0  0  0  0
   -1.7484    0.9662    0.0000 C   0  0  0  0  0  0  0  0  0
   -2.4629    0.5537    0.0000 C   0  0  0  0  0  0  0  0  0
   -2.4629   -0.2713    0.0000 C   0  0  0  0  0  0  0  0  0
   -1.7484   -0.6838    0.0000 C   0  0  0  0  0  0  0  0  0
   -1.0339   -0.2713    0.0000 C   0  0  0  0  0  0  0  0  0
   -0.3195   -0.6838    0.0000 C   0  0  0  0  0  0  0  0  0
   -0.3195   -1.5088    0.0000 C   0  0  0  0  0  0  0  0  0
   -1.0339   -1.9213    0.0000 C   0  0  0  0  0  0  0  0  0
   -1.7484   -1.5088    0.0000 C   0  0  0  0  0  0  0  0  0
   -3.1773    0.9662    0.0000 C   0  0  0  0  0  0  0  0  0
   -3.1773    1.7912    0.0000 C   0  0  0  0  0  0  0  0  0
   -2.4629    2.2037    0.0000 C   0  0  0  0  0  0  0  0  0
   -1.7484    1.7912    0.0000 C   0  0  0  0  0  0  0  0  0
    1.1095    0.9661    0.0000 C   0  0  0  0  0  0  0  0  0
    1.8240    0.5536    0.0000 C   0  0  0  0  0  0  0  0  0
    2.5384    0.9661    0.0000 C   0  0  0  0  0  0  0  0  0
    3.2529    0.5536    0.0000 C   0  0  0  0  0  0  0  0  0
    3.9674    0.9661    0.0000 C   0  0  0  0  0  0  0  0  0
    4.6818    0.5536    0.0000 C   0  0  0  0  0  0  0  0  0
    4.6818   -0.2714    0.0000 C   0  0  0  0  0  0  0  0  0
    3.9674   -0.6839    0.0000 C   0  0  0  0  0  0  0  0  0
    3.2529   -0.2714    0.0000 C   0  0  0  0  0  0  0  0  0
  1  2  1  0  0  0  0
  1 17  1  0  0  0  0
  2  3  1  0  0  0  0
  3  4  1  0  0  0  0
  3  8  1  0  0  0  0
  4  5  4  0  0  0  0
  4 16  4  0  0  0  0
  5  6  1  0  0  0  0
  5 13  4  0  0  0  0
  6  7  1  0  0  0  0
  7  8  4  0  0  0  0
  7 12  4  0  0  0  0
  8  9  4  0  0  0  0
  9 10  4  0  0  0  0
 10 11  4  0  0  0  0
 11 12  4  0  0  0  0
 13 14  4  0  0  0  0
 14 15  4  0  0  0  0
 15 16  4  0  0  0  0
 17 18  1  0  0  0  0
 18 19  1  0  0  0  0
 19 20  1  0  0  0  0
 20 21  4  0  0  0  0
 20 25  4  0  0  0  0
 21 22  4  0  0  0  0
 22 23  4  0  0  0  0
 23 24  4  0  0  0  0
 24 25  4  0  0  0  0
M  END
>  <Name_Molregno>
599997

>  <5-HT2A>
6.65

>  <HISTAMINE H1>
6.14

$$$$
599998
  Marvin  02231216192D 0   1.00000     0.00000     0

 26 29  0  0  0  0  0  0  0  0999 V2000
   -0.1627    0.0003    0.0000 N   0  0  0  0  0  0  0  0  0
   -0.8772   -0.4122    0.0000 C   0  0  0  0  0  0  0  0  0
   -1.5916    0.0003    0.0000 C   0  0  0  0  0  0  0  0  0
   -1.5916    0.8253    0.0000 C   0  0  0  0  0  0  0  0  0
   -2.3061    1.2378    0.0000 C   0  0  0  0  0  0  0  0  0
   -3.0206    0.8253    0.0000 C   0  0  0  0  0  0  0  0  0
   -3.0206    0.0003    0.0000 C   0  0  0  0  0  0  0  0  0
   -2.3061   -0.4122    0.0000 C   0  0  0  0  0  0  0  0  0
   -2.3061   -1.2372    0.0000 C   0  0  0  0  0  0  0  0  0
   -3.0206   -1.6497    0.0000 C   0  0  0  0  0  0  0  0  0
   -3.7350   -1.2372    0.0000 C   0  0  0  0  0  0  0  0  0
   -3.7350   -0.4122    0.0000 C   0  0  0  0  0  0  0  0  0
   -2.3061    2.0628    0.0000 C   0  0  0  0  0  0  0  0  0
   -1.5916    2.4753    0.0000 C   0  0  0  0  0  0  0  0  0
   -0.8772    2.0628    0.0000 C   0  0  0  0  0  0  0  0  0
   -0.8772    1.2378    0.0000 C   0  0  0  0  0  0  0  0  0
    0.5518   -0.4122    0.0000 C   0  0  0  0  0  0  0  0  0
    1.2662    0.0003    0.0000 C   0  0  0  0  0  0  0  0  0
    1.9807   -0.4122    0.0000 C   0  0  0  0  0  0  0  0  0
    2.6952    0.0003    0.0000 C   0  0  0  0  0  0  0  0  0
    3.4097   -0.4122    0.0000 C   0  0  0  0  0  0  0  0  0
    4.1241    0.0003    0.0000 C   0  0  0  0  0  0  0  0  0
    4.8386   -0.4122    0.0000 C   0  0  0  0  0  0  0  0  0
    4.8386   -1.2372    0.0000 C   0  0  0  0  0  0  0  0  0
    4.1241   -1.6497    0.0000 C   0  0  0  0  0  0  0  0  0
    3.4097   -1.2372    0.0000 C   0  0  0  0  0  0  0  0  0
  1  2  1  0  0  0  0
  1 17  1  0  0  0  0
  2  3  1  0  0  0  0
  3  4  1  0  0  0  0
  3  8  1  0  0  0  0
  4  5  4  0  0  0  0
  4 16  4  0  0  0  0
  5  6  1  0  0  0  0
  5 13  4  0  0  0  0
  6  7  1  0  0  0  0
  7  8  4  0  0  0  0
  7 12  4  0  0  0  0
  8  9  4  0  0  0  0
  9 10  4  0  0  0  0
 10 11  4  0  0  0  0
 11 12  4  0  0  0  0
 13 14  4  0  0  0  0
 14 15  4  0  0  0  0
 15 16  4  0  0  0  0
 17 18  1  0  0  0  0
 18 19  1  0  0  0  0
 19 20  1  0  0  0  0
 20 21  1  0  0  0  0
 21 22  4  0  0  0  0
 21 26  4  0  0  0  0
 22 23  4  0  0  0  0
 23 24  4  0  0  0  0
 24 25  4  0  0  0  0
 25 26  4  0  0  0  0
M  END
>  <Name_Molregno>
599998

>  <5-HT2A>
6.44

>  <HISTAMINE H1>
6.02

$$$$
608576
  Marvin  02231216192D 0   1.00000     0.00000     0

 26 29  0  0  1  0  0  0  0  0999 V2000
    0.8469   -3.8121    0.0000 S   0  0  0  0  0  0  0  0  0
    1.5614   -3.3996    0.0000 C   0  0  0  0  0  0  0  0  0
    1.5614   -2.5746    0.0000 C   0  0  0  0  0  0  0  0  0
    0.8469   -2.1621    0.0000 N   0  0  0  0  0  0  0  0  0
    0.1324   -2.5746    0.0000 C   0  0  0  0  0  0  0  0  0
    0.1324   -3.3996    0.0000 C   0  0  0  0  0  0  0  0  0
   -0.5820   -3.8121    0.0000 C   0  0  0  0  0  0  0  0  0
   -1.2965   -3.3996    0.0000 C   0  0  0  0  0  0  0  0  0
   -1.2965   -2.5746    0.0000 C   0  0  0  0  0  0  0  0  0
   -0.5820   -2.1621    0.0000 C   0  0  0  0  0  0  0  0  0
    0.8469   -1.3371    0.0000 C   0  0  0  0  0  0  0  0  0
    0.1324   -0.9246    0.0000 C   0  0  0  0  0  0  0  0  0
    0.1324   -0.0996    0.0000 C   0  0  0  0  0  0  0  0  0
   -0.5820    0.3129    0.0000 N   0  0  0  0  0  0  0  0  0
   -0.5820    1.1379    0.0000 C   0  0  0  0  0  0  0  0  0
    0.1324    1.5504    0.0000 C   0  0  0  0  0  0  0  0  0
    0.8469    1.1379    0.0000 C   0  0  0  0  0  0  0  0  0
    0.8469    0.3129    0.0000 C   0  0  0  0  0  0  0  0  0
   -1.2965   -0.0996    0.0000 C   0  0  0  0  0  0  0  0  0
    2.2758   -2.1621    0.0000 C   0  0  0  0  0  0  0  0  0
    2.9903   -2.5746    0.0000 C   0  0  0  0  0  0  0  0  0
    3.7048   -2.1621    0.0000 S   0  0  0  0  0  0  0  0  0
    3.7048   -1.3371    0.0000 O   0  0  0  0  0  0  0  0  0
    4.4193   -2.5746    0.0000 C   0  0  0  0  0  0  0  0  0
    2.9903   -3.3996    0.0000 C   0  0  0  0  0  0  0  0  0
    2.2758   -3.8121    0.0000 C   0  0  0  0  0  0  0  0  0
  1  2  1  0  0  0  0
  1  6  1  0  0  0  0
  2  3  4  0  0  0  0
  2 26  4  0  0  0  0
  3  4  1  0  0  0  0
  3 20  4  0  0  0  0
  4  5  1  0  0  0  0
  4 11  1  0  0  0  0
  5  6  4  0  0  0  0
  5 10  4  0  0  0  0
  6  7  4  0  0  0  0
  7  8  4  0  0  0  0
  8  9  4  0  0  0  0
  9 10  4  0  0  0  0
 11 12  1  0  0  0  0
 12 13  1  0  0  0  0
 13 14  1  0  0  0  0
 13 18  1  0  0  0  0
 14 15  1  0  0  0  0
 14 19  1  0  0  0  0
 15 16  1  0  0  0  0
 16 17  1  0  0  0  0
 17 18  1  0  0  0  0
 20 21  4  0  0  0  0
 21 22  1  0  0  0  0
 21 25  4  0  0  0  0
 22 23  2  0  0  0  0
 22 24  1  0  0  0  0
 25 26  4  0  0  0  0
M  END
>  <Name_Molregno>
608576

>  <5-HT1A>
6.76

>  <5-HT2A>
8.12

>  <5-HT2C>
6.8

>  <5-HT6>
6.42

>  <DOPAMINE D1>
6.35

>  <DOPAMINE D2>
7.31

>  <DOPAMINE D3>
7.51

>  <DOPAMINE D4>
8.04

>  <HISTAMINE H1>
8.74

>  <Muscarinic acetylcholine receptor M1>
8

>  <Muscarinic acetylcholine receptor M2>
7.82

>  <Muscarinic acetylcholine receptor M3>
7.05

>  <Muscarinic acetylcholine receptor M4>
7.72

>  <Muscarinic acetylcholine receptor M5>
7.22

$$$$
616625
  Marvin  02231216192D 0   1.00000     0.00000     0

 35 39  0  0  0  0  0  0  0  0999 V2000
    3.2406    1.5168    0.0000 O   0  0  0  0  0  0  0  0  0
    4.0252    1.7717    0.0000 C   0  0  0  0  0  0  0  0  0
    4.0252    2.5967    0.0000 C   0  0  0  0  0  0  0  0  0
    3.2406    2.8517    0.0000 N   0  0  0  0  0  0  0  0  0
    2.7557    2.1842    0.0000 C   0  0  0  0  0  0  0  0  0
    1.9307    2.1842    0.0000 N   0  0  0  0  0  0  0  0  0
    1.5182    1.4697    0.0000 C   0  0  0  0  0  0  0  0  0
    1.9307    0.7553    0.0000 C   0  0  0  0  0  0  0  0  0
    1.5182    0.0408    0.0000 C   0  0  0  0  0  0  0  0  0
    0.6932    0.0408    0.0000 N   0  0  0  0  0  0  0  0  0
    0.2807    0.7553    0.0000 C   0  0  0  0  0  0  0  0  0
    0.6932    1.4697    0.0000 C   0  0  0  0  0  0  0  0  0
    0.2807   -0.6737    0.0000 C   0  0  0  0  0  0  0  0  0
   -0.5443   -0.6737    0.0000 C   0  0  0  0  0  0  0  0  0
   -0.9568   -1.3881    0.0000 C   0  0  0  0  0  0  0  0  0
   -1.7818   -1.3881    0.0000 C   0  0  0  0  0  0  0  0  0
   -2.1943   -2.1026    0.0000 O   0  0  0  0  0  0  0  0  0
   -3.0193   -2.1026    0.0000 C   0  0  0  0  0  0  0  0  0
   -3.4318   -2.8171    0.0000 C   0  0  0  0  0  0  0  0  0
   -2.1943   -0.6737    0.0000 C   0  0  0  0  0  0  0  0  0
   -3.0193   -0.6737    0.0000 O   0  0  0  0  0  0  0  0  0
   -3.4318    0.0408    0.0000 C   0  0  0  0  0  0  0  0  0
   -1.7818    0.0408    0.0000 C   0  0  0  0  0  0  0  0  0
   -0.9568    0.0408    0.0000 C   0  0  0  0  0  0  0  0  0
    4.7397    3.0092    0.0000 C   0  0  0  0  0  0  0  0  0
    5.4542    2.5967    0.0000 C   0  0  0  0  0  0  0  0  0
    6.1686    3.0092    0.0000 N   0  0  0  0  0  0  0  0  0
    6.1686    3.8342    0.0000 C   0  0  0  0  0  0  0  0  0
    5.4542    4.2467    0.0000 O   0  0  0  0  0  0  0  0  0
    6.8831    4.2467    0.0000 C   0  0  0  0  0  0  0  0  0
    7.0966    5.0436    0.0000 C   0  0  0  0  0  0  0  0  0
    7.8935    4.8301    0.0000 C   0  0  0  0  0  0  0  0  0
    7.6800    4.0332    0.0000 C   0  0  0  0  0  0  0  0  0
    5.4542    1.7717    0.0000 C   0  0  0  0  0  0  0  0  0
    4.7397    1.3592    0.0000 C   0  0  0  0  0  0  0  0  0
  1  2  4  0  0  0  0
  1  5  4  0  0  0  0
  2  3  4  0  0  0  0
  2 35  4  0  0  0  0
  3  4  4  0  0  0  0
  3 25  4  0  0  0  0
  4  5  4  0  0  0  0
  5  6  1  0  0  0  0
  6  7  1  0  0  0  0
  7  8  1  0  0  0  0
  7 12  1  0  0  0  0
  8  9  1  0  0  0  0
  9 10  1  0  0  0  0
 10 11  1  0  0  0  0
 10 13  1  0  0  0  0
 11 12  1  0  0  0  0
 13 14  1  0  0  0  0
 14 15  4  0  0  0  0
 14 24  4  0  0  0  0
 15 16  4  0  0  0  0
 16 17  1  0  0  0  0
 16 20  4  0  0  0  0
 17 18  1  0  0  0  0
 18 19  1  0  0  0  0
 20 21  1  0  0  0  0
 20 23  4  0  0  0  0
 21 22  1  0  0  0  0
 23 24  4  0  0  0  0
 25 26  4  0  0  0  0
 26 27  1  0  0  0  0
 26 34  4  0  0  0  0
 27 28  1  0  0  0  0
 28 29  2  0  0  0  0
 28 30  1  0  0  0  0
 30 31  1  0  0  0  0
 30 33  1  0  0  0  0
 31 32  1  0  0  0  0
 32 33  1  0  0  0  0
 34 35  4  0  0  0  0
M  END
>  <Name_Molregno>
616625

>  <HISTAMINE H1>
6.03

$$$$
616697
  Marvin  02231216192D 0   1.00000     0.00000     0

 32 35  0  0  0  0  0  0  0  0999 V2000
    7.2877   -4.4847    0.0000 Cl  0  0  0  0  0  0  0  0  0
    6.5732   -4.0722    0.0000 C   0  0  0  0  0  0  0  0  0
    5.8587   -4.4847    0.0000 C   0  0  0  0  0  0  0  0  0
    5.1443   -4.0722    0.0000 C   0  0  0  0  0  0  0  0  0
    4.3597   -4.3271    0.0000 N   0  0  0  0  0  0  0  0  0
    3.8747   -3.6597    0.0000 C   0  0  0  0  0  0  0  0  0
    4.3597   -2.9923    0.0000 O   0  0  0  0  0  0  0  0  0
    5.1443   -3.2472    0.0000 C   0  0  0  0  0  0  0  0  0
    5.8587   -2.8347    0.0000 C   0  0  0  0  0  0  0  0  0
    6.5732   -3.2472    0.0000 C   0  0  0  0  0  0  0  0  0
    7.2877   -2.8347    0.0000 S   0  0  0  0  0  0  0  0  0
    8.0022   -2.4222    0.0000 O   0  0  0  0  0  0  0  0  0
    6.8752   -2.1202    0.0000 O   0  0  0  0  0  0  0  0  0
    7.7002   -3.5492    0.0000 N   0  0  0  0  0  0  0  0  0
    3.0497   -3.6597    0.0000 N   0  0  0  0  0  0  0  0  0
    2.6372   -2.9452    0.0000 C   0  0  0  0  0  0  0  0  0
    1.8122   -2.9452    0.0000 C   0  0  0  0  0  0  0  0  0
    1.3997   -2.2308    0.0000 C   0  0  0  0  0  0  0  0  0
    1.8122   -1.5163    0.0000 N   0  0  0  0  0  0  0  0  0
    2.6372   -1.5163    0.0000 C   0  0  0  0  0  0  0  0  0
    3.0497   -2.2308    0.0000 C   0  0  0  0  0  0  0  0  0
    1.3997   -0.8018    0.0000 C   0  0  0  0  0  0  0  0  0
    1.8122   -0.0873    0.0000 C   0  0  0  0  0  0  0  0  0
    1.3997    0.6271    0.0000 C   0  0  0  0  0  0  0  0  0
    1.8122    1.3416    0.0000 C   0  0  0  0  0  0  0  0  0
    1.3997    2.0561    0.0000 O   0  0  0  0  0  0  0  0  0
    1.8122    2.7705    0.0000 C   0  0  0  0  0  0  0  0  0
    1.3997    3.4850    0.0000 C   0  0  0  0  0  0  0  0  0
    2.6372    1.3416    0.0000 C   0  0  0  0  0  0  0  0  0
    3.0497    2.0561    0.0000 F   0  0  0  0  0  0  0  0  0
    3.0497    0.6271    0.0000 C   0  0  0  0  0  0  0  0  0
    2.6372   -0.0873    0.0000 C   0  0  0  0  0  0  0  0  0
  1  2  1  0  0  0  0
  2  3  4  0  0  0  0
  2 10  4  0  0  0  0
  3  4  4  0  0  0  0
  4  5  4  0  0  0  0
  4  8  4  0  0  0  0
  5  6  4  0  0  0  0
  6  7  4  0  0  0  0
  6 15  1  0  0  0  0
  7  8  4  0  0  0  0
  8  9  4  0  0  0  0
  9 10  4  0  0  0  0
 10 11  1  0  0  0  0
 11 12  2  0  0  0  0
 11 13  2  0  0  0  0
 11 14  1  0  0  0  0
 15 16  1  0  0  0  0
 16 17  1  0  0  0  0
 16 21  1  0  0  0  0
 17 18  1  0  0  0  0
 18 19  1  0  0  0  0
 19 20  1  0  0  0  0
 19 22  1  0  0  0  0
 20 21  1  0  0  0  0
 22 23  1  0  0  0  0
 23 24  4  0  0  0  0
 23 32  4  0  0  0  0
 24 25  4  0  0  0  0
 25 26  1  0  0  0  0
 25 29  4  0  0  0  0
 26 27  1  0  0  0  0
 27 28  1  0  0  0  0
 29 30  1  0  0  0  0
 29 31  4  0  0  0  0
 31 32  4  0  0  0  0
M  END
>  <Name_Molregno>
616697

>  <HISTAMINE H1>
5.86

$$$$
616698
  Marvin  02231216192D 0   1.00000     0.00000     0

 38 42  0  0  0  0  0  0  0  0999 V2000
    7.0732   -1.1123    0.0000 S   0  0  0  0  0  0  0  0  0
    6.2482   -1.1123    0.0000 O   0  0  0  0  0  0  0  0  0
    7.8982   -1.1123    0.0000 O   0  0  0  0  0  0  0  0  0
    7.0732   -0.2873    0.0000 N   0  0  0  0  0  0  0  0  0
    6.3587    0.1252    0.0000 C   0  0  0  0  0  0  0  0  0
    5.6443   -0.2873    0.0000 C   0  0  0  0  0  0  0  0  0
    4.9298    0.1252    0.0000 C   0  0  0  0  0  0  0  0  0
    4.1452   -0.1298    0.0000 N   0  0  0  0  0  0  0  0  0
    3.6602    0.5377    0.0000 C   0  0  0  0  0  0  0  0  0
    4.1452    1.2051    0.0000 O   0  0  0  0  0  0  0  0  0
    4.9298    0.9502    0.0000 C   0  0  0  0  0  0  0  0  0
    5.6443    1.3627    0.0000 C   0  0  0  0  0  0  0  0  0
    6.3587    0.9502    0.0000 C   0  0  0  0  0  0  0  0  0
    2.8352    0.5377    0.0000 N   0  0  0  0  0  0  0  0  0
    2.4227    1.2522    0.0000 C   0  0  0  0  0  0  0  0  0
    1.5977    1.2522    0.0000 C   0  0  0  0  0  0  0  0  0
    1.1852    1.9666    0.0000 C   0  0  0  0  0  0  0  0  0
    1.5977    2.6811    0.0000 N   0  0  0  0  0  0  0  0  0
    2.4227    2.6811    0.0000 C   0  0  0  0  0  0  0  0  0
    2.8352    1.9666    0.0000 C   0  0  0  0  0  0  0  0  0
    1.1852    3.3956    0.0000 C   0  0  0  0  0  0  0  0  0
    1.5977    4.1100    0.0000 C   0  0  0  0  0  0  0  0  0
    1.1852    4.8245    0.0000 C   0  0  0  0  0  0  0  0  0
    1.5977    5.5390    0.0000 C   0  0  0  0  0  0  0  0  0
    1.1852    6.2534    0.0000 O   0  0  0  0  0  0  0  0  0
    1.5977    6.9679    0.0000 C   0  0  0  0  0  0  0  0  0
    1.1852    7.6824    0.0000 C   0  0  0  0  0  0  0  0  0
    2.4227    5.5390    0.0000 C   0  0  0  0  0  0  0  0  0
    2.8352    6.2534    0.0000 O   0  0  0  0  0  0  0  0  0
    3.6602    6.2534    0.0000 C   0  0  0  0  0  0  0  0  0
    2.8352    4.8245    0.0000 C   0  0  0  0  0  0  0  0  0
    2.4227    4.1100    0.0000 C   0  0  0  0  0  0  0  0  0
    7.0732   -1.9373    0.0000 C   0  0  0  0  0  0  0  0  0
    7.7877   -2.3498    0.0000 C   0  0  0  0  0  0  0  0  0
    7.7877   -3.1748    0.0000 C   0  0  0  0  0  0  0  0  0
    7.0732   -3.5873    0.0000 C   0  0  0  0  0  0  0  0  0
    6.3587   -3.1748    0.0000 C   0  0  0  0  0  0  0  0  0
    6.3587   -2.3498    0.0000 C   0  0  0  0  0  0  0  0  0
  1  2  2  0  0  0  0
  1  3  2  0  0  0  0
  1  4  1  0  0  0  0
  1 33  1  0  0  0  0
  4  5  1  0  0  0  0
  5  6  4  0  0  0  0
  5 13  4  0  0  0  0
  6  7  4  0  0  0  0
  7  8  4  0  0  0  0
  7 11  4  0  0  0  0
  8  9  4  0  0  0  0
  9 10  4  0  0  0  0
  9 14  1  0  0  0  0
 10 11  4  0  0  0  0
 11 12  4  0  0  0  0
 12 13  4  0  0  0  0
 14 15  1  0  0  0  0
 15 16  1  0  0  0  0
 15 20  1  0  0  0  0
 16 17  1  0  0  0  0
 17 18  1  0  0  0  0
 18 19  1  0  0  0  0
 18 21  1  0  0  0  0
 19 20  1  0  0  0  0
 21 22  1  0  0  0  0
 22 23  4  0  0  0  0
 22 32  4  0  0  0  0
 23 24  4  0  0  0  0
 24 25  1  0  0  0  0
 24 28  4  0  0  0  0
 25 26  1  0  0  0  0
 26 27  1  0  0  0  0
 28 29  1  0  0  0  0
 28 31  4  0  0  0  0
 29 30  1  0  0  0  0
 31 32  4  0  0  0  0
 33 34  4  0  0  0  0
 33 38  4  0  0  0  0
 34 35  4  0  0  0  0
 35 36  4  0  0  0  0
 36 37  4  0  0  0  0
 37 38  4  0  0  0  0
M  END
>  <Name_Molregno>
616698

>  <HISTAMINE H1>
6.7

$$$$
616699
  Marvin  02231216192D 0   1.00000     0.00000     0

 40 44  0  0  0  0  0  0  0  0999 V2000
   -1.5338   -1.1159    0.0000 S   0  0  0  0  0  0  0  0  0
   -1.1213   -0.4014    0.0000 O   0  0  0  0  0  0  0  0  0
   -1.9463   -1.8304    0.0000 O   0  0  0  0  0  0  0  0  0
   -0.8194   -1.5284    0.0000 N   0  0  0  0  0  0  0  0  0
   -0.1049   -1.1159    0.0000 C   0  0  0  0  0  0  0  0  0
   -0.8194   -2.3534    0.0000 C   0  0  0  0  0  0  0  0  0
   -2.2483   -0.7034    0.0000 C   0  0  0  0  0  0  0  0  0
   -2.9628   -1.1159    0.0000 C   0  0  0  0  0  0  0  0  0
   -3.6773   -0.7034    0.0000 C   0  0  0  0  0  0  0  0  0
   -4.4619   -0.9583    0.0000 N   0  0  0  0  0  0  0  0  0
   -4.9468   -0.2909    0.0000 C   0  0  0  0  0  0  0  0  0
   -4.4619    0.3765    0.0000 O   0  0  0  0  0  0  0  0  0
   -3.6773    0.1216    0.0000 C   0  0  0  0  0  0  0  0  0
   -2.9628    0.5341    0.0000 C   0  0  0  0  0  0  0  0  0
   -2.2483    0.1216    0.0000 C   0  0  0  0  0  0  0  0  0
   -5.7718   -0.2909    0.0000 N   0  0  0  0  0  0  0  0  0
   -6.1843    0.4236    0.0000 C   0  0  0  0  0  0  0  0  0
   -7.0093    0.4236    0.0000 C   0  0  0  0  0  0  0  0  0
   -7.4218    1.1380    0.0000 C   0  0  0  0  0  0  0  0  0
   -7.0093    1.8525    0.0000 N   0  0  0  0  0  0  0  0  0
   -6.1843    1.8525    0.0000 C   0  0  0  0  0  0  0  0  0
   -5.7718    1.1380    0.0000 C   0  0  0  0  0  0  0  0  0
   -7.4218    2.5670    0.0000 C   0  0  0  0  0  0  0  0  0
   -7.0093    3.2815    0.0000 C   0  0  0  0  0  0  0  0  0
   -7.4218    3.9959    0.0000 C   0  0  0  0  0  0  0  0  0
   -7.0093    4.7104    0.0000 C   0  0  0  0  0  0  0  0  0
   -7.4218    5.4249    0.0000 O   0  0  0  0  0  0  0  0  0
   -8.2468    5.4249    0.0000 C   0  0  0  0  0  0  0  0  0
   -8.6593    6.1393    0.0000 C   0  0  0  0  0  0  0  0  0
   -6.1843    4.7104    0.0000 C   0  0  0  0  0  0  0  0  0
   -5.7718    5.4249    0.0000 N   0  0  0  0  0  0  0  0  0
   -6.1074    6.1785    0.0000 C   0  0  0  0  0  0  0  0  0
   -5.4943    6.7306    0.0000 C   0  0  0  0  0  0  0  0  0
   -4.7798    6.3181    0.0000 C   0  0  0  0  0  0  0  0  0
   -4.9513    5.5111    0.0000 C   0  0  0  0  0  0  0  0  0
   -5.7718    3.9959    0.0000 C   0  0  0  0  0  0  0  0  0
   -4.9468    3.9959    0.0000 O   0  0  0  0  0  0  0  0  0
   -4.5343    4.7104    0.0000 C   0  0  0  0  0  0  0  0  0
   -3.7093    4.7104    0.0000 C   0  0  0  0  0  0  0  0  0
   -6.1843    3.2815    0.0000 C   0  0  0  0  0  0  0  0  0
  1  2  2  0  0  0  0
  1  3  2  0  0  0  0
  1  4  1  0  0  0  0
  1  7  1  0  0  0  0
  4  5  1  0  0  0  0
  4  6  1  0  0  0  0
  7  8  4  0  0  0  0
  7 15  4  0  0  0  0
  8  9  4  0  0  0  0
  9 10  4  0  0  0  0
  9 13  4  0  0  0  0
 10 11  4  0  0  0  0
 11 12  4  0  0  0  0
 11 16  1  0  0  0  0
 12 13  4  0  0  0  0
 13 14  4  0  0  0  0
 14 15  4  0  0  0  0
 16 17  1  0  0  0  0
 17 18  1  0  0  0  0
 17 22  1  0  0  0  0
 18 19  1  0  0  0  0
 19 20  1  0  0  0  0
 20 21  1  0  0  0  0
 20 23  1  0  0  0  0
 21 22  1  0  0  0  0
 23 24  1  0  0  0  0
 24 25  4  0  0  0  0
 24 40  4  0  0  0  0
 25 26  4  0  0  0  0
 26 27  1  0  0  0  0
 26 30  4  0  0  0  0
 27 28  1  0  0  0  0
 28 29  1  0  0  0  0
 30 31  1  0  0  0  0
 30 36  4  0  0  0  0
 31 32  4  0  0  0  0
 31 35  4  0  0  0  0
 32 33  4  0  0  0  0
 33 34  4  0  0  0  0
 34 35  4  0  0  0  0
 36 37  1  0  0  0  0
 36 40  4  0  0  0  0
 37 38  1  0  0  0  0
 38 39  1  0  0  0  0
M  END
>  <Name_Molregno>
616699

>  <HISTAMINE H1>
5.3

$$$$
616769
  Marvin  02231216192D 0   1.00000     0.00000     0

 38 42  0  0  0  0  0  0  0  0999 V2000
   -1.5144   -1.2448    0.0000 S   0  0  0  0  0  0  0  0  0
   -1.1019   -0.5304    0.0000 O   0  0  0  0  0  0  0  0  0
   -1.9269   -1.9593    0.0000 O   0  0  0  0  0  0  0  0  0
   -0.8000   -1.6573    0.0000 C   0  0  0  0  0  0  0  0  0
   -0.0855   -1.2448    0.0000 C   0  0  0  0  0  0  0  0  0
   -2.2289   -0.8323    0.0000 C   0  0  0  0  0  0  0  0  0
   -2.9434   -1.2448    0.0000 C   0  0  0  0  0  0  0  0  0
   -3.6578   -0.8323    0.0000 C   0  0  0  0  0  0  0  0  0
   -4.4425   -1.0873    0.0000 N   0  0  0  0  0  0  0  0  0
   -4.9274   -0.4198    0.0000 C   0  0  0  0  0  0  0  0  0
   -4.4425    0.2476    0.0000 O   0  0  0  0  0  0  0  0  0
   -3.6578   -0.0073    0.0000 C   0  0  0  0  0  0  0  0  0
   -2.9434    0.4052    0.0000 C   0  0  0  0  0  0  0  0  0
   -2.2289   -0.0073    0.0000 C   0  0  0  0  0  0  0  0  0
   -5.7524   -0.4198    0.0000 N   0  0  0  0  0  0  0  0  0
   -6.1649    0.2946    0.0000 C   0  0  0  0  0  0  0  0  0
   -6.9899    0.2946    0.0000 C   0  0  0  0  0  0  0  0  0
   -7.4024    1.0091    0.0000 C   0  0  0  0  0  0  0  0  0
   -6.9899    1.7236    0.0000 N   0  0  0  0  0  0  0  0  0
   -6.1649    1.7236    0.0000 C   0  0  0  0  0  0  0  0  0
   -5.7524    1.0091    0.0000 C   0  0  0  0  0  0  0  0  0
   -7.4024    2.4381    0.0000 C   0  0  0  0  0  0  0  0  0
   -6.9899    3.1525    0.0000 C   0  0  0  0  0  0  0  0  0
   -7.4024    3.8670    0.0000 C   0  0  0  0  0  0  0  0  0
   -6.9899    4.5815    0.0000 C   0  0  0  0  0  0  0  0  0
   -7.4024    5.2959    0.0000 O   0  0  0  0  0  0  0  0  0
   -6.9899    6.0104    0.0000 C   0  0  0  0  0  0  0  0  0
   -7.4024    6.7249    0.0000 C   0  0  0  0  0  0  0  0  0
   -6.9899    7.4393    0.0000 C   0  0  0  0  0  0  0  0  0
   -6.1649    7.4393    0.0000 O   0  0  0  0  0  0  0  0  0
   -5.7524    6.7249    0.0000 C   0  0  0  0  0  0  0  0  0
   -6.1649    6.0104    0.0000 C   0  0  0  0  0  0  0  0  0
   -6.1649    4.5815    0.0000 C   0  0  0  0  0  0  0  0  0
   -5.7524    3.8670    0.0000 C   0  0  0  0  0  0  0  0  0
   -4.9274    3.8670    0.0000 O   0  0  0  0  0  0  0  0  0
   -4.5149    4.5815    0.0000 C   0  0  0  0  0  0  0  0  0
   -3.6899    4.5815    0.0000 C   0  0  0  0  0  0  0  0  0
   -6.1649    3.1525    0.0000 C   0  0  0  0  0  0  0  0  0
  1  2  2  0  0  0  0
  1  3  2  0  0  0  0
  1  4  1  0  0  0  0
  1  6  1  0  0  0  0
  4  5  1  0  0  0  0
  6  7  4  0  0  0  0
  6 14  4  0  0  0  0
  7  8  4  0  0  0  0
  8  9  4  0  0  0  0
  8 12  4  0  0  0  0
  9 10  4  0  0  0  0
 10 11  4  0  0  0  0
 10 15  1  0  0  0  0
 11 12  4  0  0  0  0
 12 13  4  0  0  0  0
 13 14  4  0  0  0  0
 15 16  1  0  0  0  0
 16 17  1  0  0  0  0
 16 21  1  0  0  0  0
 17 18  1  0  0  0  0
 18 19  1  0  0  0  0
 19 20  1  0  0  0  0
 19 22  1  0  0  0  0
 20 21  1  0  0  0  0
 22 23  1  0  0  0  0
 23 24  4  0  0  0  0
 23 38  4  0  0  0  0
 24 25  4  0  0  0  0
 25 26  1  0  0  0  0
 25 33  4  0  0  0  0
 26 27  1  0  0  0  0
 27 28  1  0  0  0  0
 27 32  1  0  0  0  0
 28 29  1  0  0  0  0
 29 30  1  0  0  0  0
 30 31  1  0  0  0  0
 31 32  1  0  0  0  0
 33 34  4  0  0  0  0
 34 35  1  0  0  0  0
 34 38  4  0  0  0  0
 35 36  1  0  0  0  0
 36 37  1  0  0  0  0
M  END
>  <Name_Molregno>
616769

>  <HISTAMINE H1>
4.71

$$$$
617524
  Marvin  02231216192D 0   1.00000     0.00000     0

 33 36  0  0  0  0  0  0  0  0999 V2000
   -0.6033   -4.6278    0.0000 Cl  0  0  0  0  0  0  0  0  0
   -1.3178   -4.2153    0.0000 C   0  0  0  0  0  0  0  0  0
   -2.0322   -4.6278    0.0000 C   0  0  0  0  0  0  0  0  0
   -2.7467   -4.2153    0.0000 C   0  0  0  0  0  0  0  0  0
   -3.5313   -4.4703    0.0000 N   0  0  0  0  0  0  0  0  0
   -4.0163   -3.8028    0.0000 C   0  0  0  0  0  0  0  0  0
   -3.5313   -3.1354    0.0000 O   0  0  0  0  0  0  0  0  0
   -2.7467   -3.3903    0.0000 C   0  0  0  0  0  0  0  0  0
   -2.0322   -2.9778    0.0000 C   0  0  0  0  0  0  0  0  0
   -1.3178   -3.3903    0.0000 C   0  0  0  0  0  0  0  0  0
   -0.6033   -2.9778    0.0000 S   0  0  0  0  0  0  0  0  0
    0.1112   -2.5653    0.0000 O   0  0  0  0  0  0  0  0  0
   -1.0158   -2.2634    0.0000 O   0  0  0  0  0  0  0  0  0
   -0.1908   -3.6923    0.0000 N   0  0  0  0  0  0  0  0  0
   -4.8413   -3.8028    0.0000 N   0  0  0  0  0  0  0  0  0
   -5.2538   -3.0884    0.0000 C   0  0  0  0  0  0  0  0  0
   -6.0788   -3.0884    0.0000 C   0  0  0  0  0  0  0  0  0
   -6.4913   -2.3739    0.0000 C   0  0  0  0  0  0  0  0  0
   -6.0788   -1.6594    0.0000 N   0  0  0  0  0  0  0  0  0
   -5.2538   -1.6594    0.0000 C   0  0  0  0  0  0  0  0  0
   -4.8413   -2.3739    0.0000 C   0  0  0  0  0  0  0  0  0
   -6.4913   -0.9450    0.0000 C   0  0  0  0  0  0  0  0  0
   -6.0788   -0.2305    0.0000 C   0  0  0  0  0  0  0  0  0
   -6.4913    0.4840    0.0000 C   0  0  0  0  0  0  0  0  0
   -6.0788    1.1984    0.0000 C   0  0  0  0  0  0  0  0  0
   -6.4913    1.9129    0.0000 O   0  0  0  0  0  0  0  0  0
   -6.0788    2.6274    0.0000 C   0  0  0  0  0  0  0  0  0
   -6.4913    3.3419    0.0000 C   0  0  0  0  0  0  0  0  0
   -5.2538    1.1984    0.0000 C   0  0  0  0  0  0  0  0  0
   -4.8413    1.9129    0.0000 O   0  0  0  0  0  0  0  0  0
   -4.0163    1.9129    0.0000 C   0  0  0  0  0  0  0  0  0
   -4.8413    0.4840    0.0000 C   0  0  0  0  0  0  0  0  0
   -5.2538   -0.2305    0.0000 C   0  0  0  0  0  0  0  0  0
  1  2  1  0  0  0  0
  2  3  4  0  0  0  0
  2 10  4  0  0  0  0
  3  4  4  0  0  0  0
  4  5  4  0  0  0  0
  4  8  4  0  0  0  0
  5  6  4  0  0  0  0
  6  7  4  0  0  0  0
  6 15  1  0  0  0  0
  7  8  4  0  0  0  0
  8  9  4  0  0  0  0
  9 10  4  0  0  0  0
 10 11  1  0  0  0  0
 11 12  2  0  0  0  0
 11 13  2  0  0  0  0
 11 14  1  0  0  0  0
 15 16  1  0  0  0  0
 16 17  1  0  0  0  0
 16 21  1  0  0  0  0
 17 18  1  0  0  0  0
 18 19  1  0  0  0  0
 19 20  1  0  0  0  0
 19 22  1  0  0  0  0
 20 21  1  0  0  0  0
 22 23  1  0  0  0  0
 23 24  4  0  0  0  0
 23 33  4  0  0  0  0
 24 25  4  0  0  0  0
 25 26  1  0  0  0  0
 25 29  4  0  0  0  0
 26 27  1  0  0  0  0
 27 28  1  0  0  0  0
 29 30  1  0  0  0  0
 29 32  4  0  0  0  0
 30 31  1  0  0  0  0
 32 33  4  0  0  0  0
M  END
>  <Name_Molregno>
617524

>  <HISTAMINE H1>
5.99

$$$$
617531
  Marvin  02231216192D 0   1.00000     0.00000     0

 24 25  0  0  0  0  0  0  0  0999 V2000
   -0.4782   -0.4611    0.0000 S   0  0  0  0  0  0  0  0  0
    0.2363   -0.0486    0.0000 C   0  0  0  0  0  0  0  0  0
    0.9508   -0.4611    0.0000 C   0  0  0  0  0  0  0  0  0
    1.6652   -0.0486    0.0000 N   0  0  0  0  0  0  0  0  0
    2.3797   -0.4611    0.0000 C   0  0  0  0  0  0  0  0  0
    2.3797   -1.2861    0.0000 N   0  0  0  0  0  0  0  0  0
    1.6652   -1.6986    0.0000 C   0  0  0  0  0  0  0  0  0
    0.9508   -2.1111    0.0000 N   0  0  0  0  0  0  0  0  0
    3.0942   -0.0486    0.0000 N   0  0  0  0  0  0  0  0  0
    3.8087   -0.4611    0.0000 C   0  0  0  0  0  0  0  0  0
    4.5231   -0.0486    0.0000 C   0  0  0  0  0  0  0  0  0
    5.2376   -0.4611    0.0000 C   0  0  0  0  0  0  0  0  0
    5.9521   -0.0486    0.0000 C   0  0  0  0  0  0  0  0  0
    6.6665   -0.4611    0.0000 C   0  0  0  0  0  0  0  0  0
    7.4202   -0.1256    0.0000 N   0  0  0  0  0  0  0  0  0
    7.9722   -0.7387    0.0000 C   0  0  0  0  0  0  0  0  0
    7.5597   -1.4531    0.0000 N   0  0  0  0  0  0  0  0  0
    6.7528   -1.2816    0.0000 C   0  0  0  0  0  0  0  0  0
   -1.1926   -0.0486    0.0000 C   0  0  0  0  0  0  0  0  0
   -1.9071   -0.4611    0.0000 C   0  0  0  0  0  0  0  0  0
   -2.6216   -0.0486    0.0000 C   0  0  0  0  0  0  0  0  0
   -2.6216    0.7764    0.0000 C   0  0  0  0  0  0  0  0  0
   -1.9071    1.1889    0.0000 C   0  0  0  0  0  0  0  0  0
   -1.1926    0.7764    0.0000 C   0  0  0  0  0  0  0  0  0
  1  2  1  0  0  0  0
  1 19  1  0  0  0  0
  2  3  1  0  0  0  0
  3  4  1  0  0  0  0
  4  5  1  0  0  0  0
  5  6  2  0  0  0  0
  5  9  1  0  0  0  0
  6  7  1  0  0  0  0
  7  8  3  0  0  0  0
  9 10  1  0  0  0  0
 10 11  1  0  0  0  0
 11 12  1  0  0  0  0
 12 13  1  0  0  0  0
 13 14  1  0  0  0  0
 14 15  4  0  0  0  0
 14 18  4  0  0  0  0
 15 16  4  0  0  0  0
 16 17  4  0  0  0  0
 17 18  4  0  0  0  0
 19 20  4  0  0  0  0
 19 24  4  0  0  0  0
 20 21  4  0  0  0  0
 21 22  4  0  0  0  0
 22 23  4  0  0  0  0
 23 24  4  0  0  0  0
M  STY  1   1 DAT
M  SAL   1  1  17
M  SDT   1 MRV_IMPLICIT_H                                        
M  SDD   1     0.0000    0.0000    DR    ALL  0       0  
M  SED   1 IMPL_H1
M  END
>  <Name_Molregno>
617531

>  <HISTAMINE H1>
4.59

>  <HISTAMINE H2>
5.39

>  <HISTAMINE H3>
6.28

>  <HISTAMINE H4>
7.24

$$$$
617822
  Marvin  02231216192D 0   1.00000     0.00000     0

 33 37  0  0  0  0  0  0  0  0999 V2000
    6.1304    1.8886    0.0000 O   0  0  0  0  0  0  0  0  0
    6.9150    2.1435    0.0000 C   0  0  0  0  0  0  0  0  0
    6.9150    2.9685    0.0000 C   0  0  0  0  0  0  0  0  0
    6.1304    3.2234    0.0000 N   0  0  0  0  0  0  0  0  0
    5.6455    2.5560    0.0000 C   0  0  0  0  0  0  0  0  0
    4.8205    2.5560    0.0000 N   0  0  0  0  0  0  0  0  0
    4.4080    1.8415    0.0000 C   0  0  0  0  0  0  0  0  0
    4.8205    1.1271    0.0000 C   0  0  0  0  0  0  0  0  0
    4.4080    0.4126    0.0000 C   0  0  0  0  0  0  0  0  0
    3.5830    0.4126    0.0000 N   0  0  0  0  0  0  0  0  0
    3.1705    1.1271    0.0000 C   0  0  0  0  0  0  0  0  0
    3.5830    1.8415    0.0000 C   0  0  0  0  0  0  0  0  0
    3.1705   -0.3019    0.0000 C   0  0  0  0  0  0  0  0  0
    2.3455   -0.3019    0.0000 C   0  0  0  0  0  0  0  0  0
    1.9330   -1.0163    0.0000 C   0  0  0  0  0  0  0  0  0
    1.1080   -1.0163    0.0000 C   0  0  0  0  0  0  0  0  0
    0.6955   -1.7308    0.0000 O   0  0  0  0  0  0  0  0  0
   -0.1295   -1.7308    0.0000 C   0  0  0  0  0  0  0  0  0
   -0.5420   -2.4453    0.0000 C   0  0  0  0  0  0  0  0  0
   -1.3670   -2.4453    0.0000 C   0  0  0  0  0  0  0  0  0
   -1.7795   -1.7308    0.0000 O   0  0  0  0  0  0  0  0  0
   -1.3670   -1.0163    0.0000 C   0  0  0  0  0  0  0  0  0
   -0.5420   -1.0163    0.0000 C   0  0  0  0  0  0  0  0  0
    0.6955   -0.3019    0.0000 C   0  0  0  0  0  0  0  0  0
    1.1080    0.4126    0.0000 C   0  0  0  0  0  0  0  0  0
    0.6955    1.1271    0.0000 O   0  0  0  0  0  0  0  0  0
   -0.1295    1.1271    0.0000 C   0  0  0  0  0  0  0  0  0
   -0.5420    1.8415    0.0000 C   0  0  0  0  0  0  0  0  0
    1.9330    0.4126    0.0000 C   0  0  0  0  0  0  0  0  0
    7.6295    3.3810    0.0000 C   0  0  0  0  0  0  0  0  0
    8.3440    2.9685    0.0000 C   0  0  0  0  0  0  0  0  0
    8.3440    2.1435    0.0000 C   0  0  0  0  0  0  0  0  0
    7.6295    1.7310    0.0000 C   0  0  0  0  0  0  0  0  0
  1  2  4  0  0  0  0
  1  5  4  0  0  0  0
  2  3  4  0  0  0  0
  2 33  4  0  0  0  0
  3  4  4  0  0  0  0
  3 30  4  0  0  0  0
  4  5  4  0  0  0  0
  5  6  1  0  0  0  0
  6  7  1  0  0  0  0
  7  8  1  0  0  0  0
  7 12  1  0  0  0  0
  8  9  1  0  0  0  0
  9 10  1  0  0  0  0
 10 11  1  0  0  0  0
 10 13  1  0  0  0  0
 11 12  1  0  0  0  0
 13 14  1  0  0  0  0
 14 15  4  0  0  0  0
 14 29  4  0  0  0  0
 15 16  4  0  0  0  0
 16 17  1  0  0  0  0
 16 24  4  0  0  0  0
 17 18  1  0  0  0  0
 18 19  1  0  0  0  0
 18 23  1  0  0  0  0
 19 20  1  0  0  0  0
 20 21  1  0  0  0  0
 21 22  1  0  0  0  0
 22 23  1  0  0  0  0
 24 25  4  0  0  0  0
 25 26  1  0  0  0  0
 25 29  4  0  0  0  0
 26 27  1  0  0  0  0
 27 28  1  0  0  0  0
 30 31  4  0  0  0  0
 31 32  4  0  0  0  0
 32 33  4  0  0  0  0
M  END
>  <Name_Molregno>
617822

>  <HISTAMINE H1>
5.44

$$$$
619907
  Marvin  02231216192D 0   1.00000     0.00000     0

 21 23  0  0  1  0  0  0  0  0999 V2000
   -1.4122   -2.1384    0.0000 S   0  0  0  0  0  0  0  0  0
   -0.6276   -1.8835    0.0000 C   0  0  0  0  0  0  0  0  0
   -0.6276   -1.0585    0.0000 C   0  0  0  0  0  0  0  0  0
    0.0869   -0.6460    0.0000 C   0  0  0  0  0  0  0  0  0
    0.8013   -1.0585    0.0000 C   0  0  0  0  0  0  0  0  0
    0.8013   -1.8835    0.0000 C   0  0  0  0  0  0  0  0  0
    0.0869   -2.2960    0.0000 C   0  0  0  0  0  0  0  0  0
   -1.4122   -0.8036    0.0000 C   0  0  0  0  0  0  0  0  0
   -1.6672   -0.0189    0.0000 C   0  0  0  0  0  0  0  0  0
   -2.4741    0.1526    0.0000 C   0  0  0  0  0  0  0  0  0
   -1.1151    0.5942    0.0000 C   0  0  0  0  0  0  0  0  0
   -1.3701    1.3788    0.0000 N   0  0  0  0  0  0  0  0  0
   -0.8180    1.9919    0.0000 C   0  0  0  0  0  0  0  0  0
   -0.0111    1.8204    0.0000 C   0  0  0  0  0  0  0  0  0
    0.2439    1.0357    0.0000 C   0  0  0  0  0  0  0  0  0
   -0.3082    0.4226    0.0000 C   0  0  0  0  0  0  0  0  0
   -1.8971   -1.4710    0.0000 C   0  0  0  0  0  0  0  0  0
   -2.7221   -1.4710    0.0000 C   0  0  0  0  0  0  0  0  0
   -3.1346   -2.1855    0.0000 C   0  0  0  0  0  0  0  0  0
   -3.9596   -2.1855    0.0000 N   0  0  0  0  0  0  0  0  0
   -4.3721   -2.8999    0.0000 C   0  0  0  0  0  0  0  0  0
  1  2  4  0  0  0  0
  1 17  4  0  0  0  0
  2  3  4  0  0  0  0
  2  7  4  0  0  0  0
  3  4  4  0  0  0  0
  3  8  4  0  0  0  0
  4  5  4  0  0  0  0
  5  6  4  0  0  0  0
  6  7  4  0  0  0  0
  8  9  1  0  0  0  0
  8 17  4  0  0  0  0
  9 10  1  0  0  0  0
  9 11  1  0  0  0  0
 11 12  4  0  0  0  0
 11 16  4  0  0  0  0
 12 13  4  0  0  0  0
 13 14  4  0  0  0  0
 14 15  4  0  0  0  0
 15 16  4  0  0  0  0
 17 18  1  0  0  0  0
 18 19  1  0  0  0  0
 19 20  1  0  0  0  0
 20 21  1  0  0  0  0
M  END
>  <Name_Molregno>
619907

>  <HISTAMINE H1>
4.49

$$$$
619909
  Marvin  02231216192D 0   1.00000     0.00000     0

 23 26  0  0  1  0  0  0  0  0999 V2000
   -0.4484   -0.1674    0.0000 S   0  0  0  0  0  0  0  0  0
    0.3363    0.0875    0.0000 C   0  0  0  0  0  0  0  0  0
    0.3363    0.9125    0.0000 C   0  0  0  0  0  0  0  0  0
    1.0507    1.3250    0.0000 C   0  0  0  0  0  0  0  0  0
    1.7652    0.9125    0.0000 C   0  0  0  0  0  0  0  0  0
    1.7652    0.0875    0.0000 C   0  0  0  0  0  0  0  0  0
    1.0507   -0.3250    0.0000 C   0  0  0  0  0  0  0  0  0
   -0.4484    1.1675    0.0000 C   0  0  0  0  0  0  0  0  0
   -0.7033    1.9521    0.0000 C   0  0  0  0  0  0  0  0  0
   -1.5103    2.1236    0.0000 C   0  0  0  0  0  0  0  0  0
   -0.1513    2.5652    0.0000 C   0  0  0  0  0  0  0  0  0
   -0.4062    3.3498    0.0000 N   0  0  0  0  0  0  0  0  0
    0.1458    3.9629    0.0000 C   0  0  0  0  0  0  0  0  0
    0.9528    3.7914    0.0000 C   0  0  0  0  0  0  0  0  0
    1.2077    3.0068    0.0000 C   0  0  0  0  0  0  0  0  0
    0.6557    2.3937    0.0000 C   0  0  0  0  0  0  0  0  0
   -0.9333    0.5000    0.0000 C   0  0  0  0  0  0  0  0  0
   -1.7583    0.5000    0.0000 C   0  0  0  0  0  0  0  0  0
   -2.1708   -0.2144    0.0000 C   0  0  0  0  0  0  0  0  0
   -2.9958   -0.2144    0.0000 N   0  0  0  0  0  0  0  0  0
   -3.5792   -0.7978    0.0000 C   0  0  0  0  0  0  0  0  0
   -4.1625   -0.2144    0.0000 C   0  0  0  0  0  0  0  0  0
   -3.5792    0.3689    0.0000 C   0  0  0  0  0  0  0  0  0
  1  2  4  0  0  0  0
  1 17  4  0  0  0  0
  2  3  4  0  0  0  0
  2  7  4  0  0  0  0
  3  4  4  0  0  0  0
  3  8  4  0  0  0  0
  4  5  4  0  0  0  0
  5  6  4  0  0  0  0
  6  7  4  0  0  0  0
  8  9  1  0  0  0  0
  8 17  4  0  0  0  0
  9 10  1  0  0  0  0
  9 11  1  0  0  0  0
 11 12  4  0  0  0  0
 11 16  4  0  0  0  0
 12 13  4  0  0  0  0
 13 14  4  0  0  0  0
 14 15  4  0  0  0  0
 15 16  4  0  0  0  0
 17 18  1  0  0  0  0
 18 19  1  0  0  0  0
 19 20  1  0  0  0  0
 20 21  1  0  0  0  0
 20 23  1  0  0  0  0
 21 22  1  0  0  0  0
 22 23  1  0  0  0  0
M  END
>  <Name_Molregno>
619909

>  <HISTAMINE H1>
8.41

>  <Muscarinic acetylcholine receptor M1>
5

$$$$
619910
  Marvin  02231216192D 0   1.00000     0.00000     0

 22 24  0  0  1  0  0  0  0  0999 V2000
   -0.7444   -0.2333    0.0000 S   0  0  0  0  0  0  0  0  0
    0.0402    0.0216    0.0000 C   0  0  0  0  0  0  0  0  0
    0.0402    0.8466    0.0000 C   0  0  0  0  0  0  0  0  0
    0.7546    1.2591    0.0000 C   0  0  0  0  0  0  0  0  0
    1.4691    0.8466    0.0000 C   0  0  0  0  0  0  0  0  0
    1.4691    0.0216    0.0000 C   0  0  0  0  0  0  0  0  0
    0.7546   -0.3909    0.0000 C   0  0  0  0  0  0  0  0  0
   -0.7444    1.1015    0.0000 C   0  0  0  0  0  0  0  0  0
   -0.9994    1.8862    0.0000 C   0  0  0  0  0  0  0  0  0
   -1.8064    2.0577    0.0000 C   0  0  0  0  0  0  0  0  0
   -0.4473    2.4993    0.0000 C   0  0  0  0  0  0  0  0  0
   -0.7023    3.2839    0.0000 C   0  0  0  0  0  0  0  0  0
   -0.1503    3.8970    0.0000 C   0  0  0  0  0  0  0  0  0
    0.6567    3.7254    0.0000 C   0  0  0  0  0  0  0  0  0
    0.9117    2.9408    0.0000 N   0  0  0  0  0  0  0  0  0
    0.3596    2.3277    0.0000 C   0  0  0  0  0  0  0  0  0
   -1.2294    0.4341    0.0000 C   0  0  0  0  0  0  0  0  0
   -2.0544    0.4341    0.0000 C   0  0  0  0  0  0  0  0  0
   -2.4669   -0.2804    0.0000 C   0  0  0  0  0  0  0  0  0
   -3.2919   -0.2804    0.0000 N   0  0  0  0  0  0  0  0  0
   -3.7044   -0.9948    0.0000 C   0  0  0  0  0  0  0  0  0
   -3.7044    0.4341    0.0000 C   0  0  0  0  0  0  0  0  0
  1  2  4  0  0  0  0
  1 17  4  0  0  0  0
  2  3  4  0  0  0  0
  2  7  4  0  0  0  0
  3  4  4  0  0  0  0
  3  8  4  0  0  0  0
  4  5  4  0  0  0  0
  5  6  4  0  0  0  0
  6  7  4  0  0  0  0
  8  9  1  0  0  0  0
  8 17  4  0  0  0  0
  9 10  1  0  0  0  0
  9 11  1  0  0  0  0
 11 12  4  0  0  0  0
 11 16  4  0  0  0  0
 12 13  4  0  0  0  0
 13 14  4  0  0  0  0
 14 15  4  0  0  0  0
 15 16  4  0  0  0  0
 17 18  1  0  0  0  0
 18 19  1  0  0  0  0
 19 20  1  0  0  0  0
 20 21  1  0  0  0  0
 20 22  1  0  0  0  0
M  END
>  <Name_Molregno>
619910

>  <HISTAMINE H1>
4.55

>  <Muscarinic acetylcholine receptor M1>
4.55

$$$$
620005
  Marvin  02231216192D 0   1.00000     0.00000     0

 23 25  0  0  1  0  0  0  0  0999 V2000
   -1.2951   -2.4674    0.0000 S   0  0  0  0  0  0  0  0  0
   -0.5105   -2.2125    0.0000 C   0  0  0  0  0  0  0  0  0
   -0.5105   -1.3875    0.0000 C   0  0  0  0  0  0  0  0  0
    0.2040   -0.9750    0.0000 C   0  0  0  0  0  0  0  0  0
    0.9185   -1.3875    0.0000 C   0  0  0  0  0  0  0  0  0
    0.9185   -2.2125    0.0000 C   0  0  0  0  0  0  0  0  0
    0.2040   -2.6250    0.0000 C   0  0  0  0  0  0  0  0  0
   -1.2951   -1.1325    0.0000 C   0  0  0  0  0  0  0  0  0
   -1.5501   -0.3479    0.0000 C   0  0  0  0  0  0  0  0  0
   -2.3570   -0.1764    0.0000 C   0  0  0  0  0  0  0  0  0
   -0.9980    0.2652    0.0000 C   0  0  0  0  0  0  0  0  0
   -1.2530    1.0498    0.0000 N   0  0  0  0  0  0  0  0  0
   -0.7009    1.6629    0.0000 C   0  0  0  0  0  0  0  0  0
    0.1060    1.4914    0.0000 C   0  0  0  0  0  0  0  0  0
    0.3610    0.7067    0.0000 C   0  0  0  0  0  0  0  0  0
   -0.1910    0.0937    0.0000 C   0  0  0  0  0  0  0  0  0
    1.1680    0.5352    0.0000 C   0  0  0  0  0  0  0  0  0
   -1.7800   -1.8000    0.0000 C   0  0  0  0  0  0  0  0  0
   -2.6050   -1.8000    0.0000 C   0  0  0  0  0  0  0  0  0
   -3.0175   -2.5144    0.0000 C   0  0  0  0  0  0  0  0  0
   -3.8425   -2.5144    0.0000 N   0  0  0  0  0  0  0  0  0
   -4.2550   -3.2289    0.0000 C   0  0  0  0  0  0  0  0  0
   -4.2550   -1.8000    0.0000 C   0  0  0  0  0  0  0  0  0
  1  2  4  0  0  0  0
  1 18  4  0  0  0  0
  2  3  4  0  0  0  0
  2  7  4  0  0  0  0
  3  4  4  0  0  0  0
  3  8  4  0  0  0  0
  4  5  4  0  0  0  0
  5  6  4  0  0  0  0
  6  7  4  0  0  0  0
  8  9  1  0  0  0  0
  8 18  4  0  0  0  0
  9 10  1  0  0  0  0
  9 11  1  0  0  0  0
 11 12  4  0  0  0  0
 11 16  4  0  0  0  0
 12 13  4  0  0  0  0
 13 14  4  0  0  0  0
 14 15  4  0  0  0  0
 15 16  4  0  0  0  0
 15 17  1  0  0  0  0
 18 19  1  0  0  0  0
 19 20  1  0  0  0  0
 20 21  1  0  0  0  0
 21 22  1  0  0  0  0
 21 23  1  0  0  0  0
M  END
>  <Name_Molregno>
620005

>  <HISTAMINE H1>
6.41

>  <Muscarinic acetylcholine receptor M1>
5

$$$$
620006
  Marvin  02231216192D 0   1.00000     0.00000     0

 24 26  0  0  1  0  0  0  0  0999 V2000
   -1.4894   -0.7999    0.0000 S   0  0  0  0  0  0  0  0  0
   -0.7047   -0.5450    0.0000 C   0  0  0  0  0  0  0  0  0
   -0.7047    0.2800    0.0000 C   0  0  0  0  0  0  0  0  0
    0.0097    0.6925    0.0000 C   0  0  0  0  0  0  0  0  0
    0.7242    0.2800    0.0000 C   0  0  0  0  0  0  0  0  0
    0.7242   -0.5450    0.0000 C   0  0  0  0  0  0  0  0  0
    0.0097   -0.9575    0.0000 C   0  0  0  0  0  0  0  0  0
   -1.4894    0.5349    0.0000 C   0  0  0  0  0  0  0  0  0
   -1.7443    1.3196    0.0000 C   0  0  0  0  0  0  0  0  0
   -2.5513    1.4911    0.0000 C   0  0  0  0  0  0  0  0  0
   -1.1923    1.9327    0.0000 C   0  0  0  0  0  0  0  0  0
   -1.4472    2.7173    0.0000 N   0  0  0  0  0  0  0  0  0
   -0.8952    3.3304    0.0000 C   0  0  0  0  0  0  0  0  0
   -1.1501    4.1150    0.0000 O   0  0  0  0  0  0  0  0  0
   -0.5981    4.7281    0.0000 C   0  0  0  0  0  0  0  0  0
   -0.0882    3.1589    0.0000 C   0  0  0  0  0  0  0  0  0
    0.1667    2.3742    0.0000 C   0  0  0  0  0  0  0  0  0
   -0.3853    1.7611    0.0000 C   0  0  0  0  0  0  0  0  0
   -1.9743   -0.1325    0.0000 C   0  0  0  0  0  0  0  0  0
   -2.7993   -0.1325    0.0000 C   0  0  0  0  0  0  0  0  0
   -3.2118   -0.8470    0.0000 C   0  0  0  0  0  0  0  0  0
   -4.0368   -0.8470    0.0000 N   0  0  0  0  0  0  0  0  0
   -4.4493   -1.5614    0.0000 C   0  0  0  0  0  0  0  0  0
   -4.4493   -0.1325    0.0000 C   0  0  0  0  0  0  0  0  0
  1  2  4  0  0  0  0
  1 19  4  0  0  0  0
  2  3  4  0  0  0  0
  2  7  4  0  0  0  0
  3  4  4  0  0  0  0
  3  8  4  0  0  0  0
  4  5  4  0  0  0  0
  5  6  4  0  0  0  0
  6  7  4  0  0  0  0
  8  9  1  0  0  0  0
  8 19  4  0  0  0  0
  9 10  1  0  0  0  0
  9 11  1  0  0  0  0
 11 12  4  0  0  0  0
 11 18  4  0  0  0  0
 12 13  4  0  0  0  0
 13 14  1  0  0  0  0
 13 16  4  0  0  0  0
 14 15  1  0  0  0  0
 16 17  4  0  0  0  0
 17 18  4  0  0  0  0
 19 20  1  0  0  0  0
 20 21  1  0  0  0  0
 21 22  1  0  0  0  0
 22 23  1  0  0  0  0
 22 24  1  0  0  0  0
M  END
>  <Name_Molregno>
620006

>  <HISTAMINE H1>
7.23

>  <Muscarinic acetylcholine receptor M1>
5

$$$$
620007
  Marvin  02231216192D 0   1.00000     0.00000     0

 23 25  0  0  1  0  0  0  0  0999 V2000
   -1.2028   -2.5506    0.0000 S   0  0  0  0  0  0  0  0  0
   -0.4182   -2.2956    0.0000 C   0  0  0  0  0  0  0  0  0
   -0.4182   -1.4706    0.0000 C   0  0  0  0  0  0  0  0  0
    0.2963   -1.0581    0.0000 C   0  0  0  0  0  0  0  0  0
    1.0108   -1.4706    0.0000 C   0  0  0  0  0  0  0  0  0
    1.0108   -2.2956    0.0000 C   0  0  0  0  0  0  0  0  0
    0.2963   -2.7081    0.0000 C   0  0  0  0  0  0  0  0  0
   -1.2028   -1.2157    0.0000 C   0  0  0  0  0  0  0  0  0
   -1.4577   -0.4311    0.0000 C   0  0  0  0  0  0  0  0  0
   -2.2647   -0.2595    0.0000 C   0  0  0  0  0  0  0  0  0
   -0.9057    0.1820    0.0000 C   0  0  0  0  0  0  0  0  0
   -1.1606    0.9667    0.0000 N   0  0  0  0  0  0  0  0  0
   -0.6086    1.5798    0.0000 C   0  0  0  0  0  0  0  0  0
   -0.8635    2.3644    0.0000 F   0  0  0  0  0  0  0  0  0
    0.1984    1.4082    0.0000 C   0  0  0  0  0  0  0  0  0
    0.4533    0.6236    0.0000 C   0  0  0  0  0  0  0  0  0
   -0.0987    0.0105    0.0000 C   0  0  0  0  0  0  0  0  0
   -1.6877   -1.8831    0.0000 C   0  0  0  0  0  0  0  0  0
   -2.5127   -1.8831    0.0000 C   0  0  0  0  0  0  0  0  0
   -2.9252   -2.5976    0.0000 C   0  0  0  0  0  0  0  0  0
   -3.7502   -2.5976    0.0000 N   0  0  0  0  0  0  0  0  0
   -4.1627   -3.3121    0.0000 C   0  0  0  0  0  0  0  0  0
   -4.1627   -1.8831    0.0000 C   0  0  0  0  0  0  0  0  0
  1  2  4  0  0  0  0
  1 18  4  0  0  0  0
  2  3  4  0  0  0  0
  2  7  4  0  0  0  0
  3  4  4  0  0  0  0
  3  8  4  0  0  0  0
  4  5  4  0  0  0  0
  5  6  4  0  0  0  0
  6  7  4  0  0  0  0
  8  9  1  0  0  0  0
  8 18  4  0  0  0  0
  9 10  1  0  0  0  0
  9 11  1  0  0  0  0
 11 12  4  0  0  0  0
 11 17  4  0  0  0  0
 12 13  4  0  0  0  0
 13 14  1  0  0  0  0
 13 15  4  0  0  0  0
 15 16  4  0  0  0  0
 16 17  4  0  0  0  0
 18 19  1  0  0  0  0
 19 20  1  0  0  0  0
 20 21  1  0  0  0  0
 21 22  1  0  0  0  0
 21 23  1  0  0  0  0
M  END
>  <Name_Molregno>
620007

>  <HISTAMINE H1>
7.42

>  <Muscarinic acetylcholine receptor M1>
5

$$$$
620008
  Marvin  02231216192D 0   1.00000     0.00000     0

 23 25  0  0  1  0  0  0  0  0999 V2000
   -0.9774   -0.4110    0.0000 S   0  0  0  0  0  0  0  0  0
   -0.1928   -0.1561    0.0000 C   0  0  0  0  0  0  0  0  0
   -0.1928    0.6689    0.0000 C   0  0  0  0  0  0  0  0  0
    0.5217    1.0814    0.0000 C   0  0  0  0  0  0  0  0  0
    1.2361    0.6689    0.0000 C   0  0  0  0  0  0  0  0  0
    1.2361   -0.1561    0.0000 C   0  0  0  0  0  0  0  0  0
    0.5217   -0.5686    0.0000 C   0  0  0  0  0  0  0  0  0
   -0.9774    0.9239    0.0000 C   0  0  0  0  0  0  0  0  0
   -1.2324    1.7085    0.0000 C   0  0  0  0  0  0  0  0  0
   -2.0393    1.8800    0.0000 C   0  0  0  0  0  0  0  0  0
   -0.6803    2.3216    0.0000 C   0  0  0  0  0  0  0  0  0
    0.1266    2.1501    0.0000 N   0  0  0  0  0  0  0  0  0
    0.6787    2.7632    0.0000 C   0  0  0  0  0  0  0  0  0
    0.4237    3.5478    0.0000 C   0  0  0  0  0  0  0  0  0
   -0.3832    3.7193    0.0000 C   0  0  0  0  0  0  0  0  0
   -0.9353    3.1062    0.0000 C   0  0  0  0  0  0  0  0  0
   -1.7422    3.2777    0.0000 C   0  0  0  0  0  0  0  0  0
   -1.4623    0.2564    0.0000 C   0  0  0  0  0  0  0  0  0
   -2.2873    0.2564    0.0000 C   0  0  0  0  0  0  0  0  0
   -2.6998   -0.4580    0.0000 C   0  0  0  0  0  0  0  0  0
   -3.5248   -0.4580    0.0000 N   0  0  0  0  0  0  0  0  0
   -3.9373   -1.1725    0.0000 C   0  0  0  0  0  0  0  0  0
   -3.9373    0.2564    0.0000 C   0  0  0  0  0  0  0  0  0
  1  2  4  0  0  0  0
  1 18  4  0  0  0  0
  2  3  4  0  0  0  0
  2  7  4  0  0  0  0
  3  4  4  0  0  0  0
  3  8  4  0  0  0  0
  4  5  4  0  0  0  0
  5  6  4  0  0  0  0
  6  7  4  0  0  0  0
  8  9  1  0  0  0  0
  8 18  4  0  0  0  0
  9 10  1  0  0  0  0
  9 11  1  0  0  0  0
 11 12  4  0  0  0  0
 11 16  4  0  0  0  0
 12 13  4  0  0  0  0
 13 14  4  0  0  0  0
 14 15  4  0  0  0  0
 15 16  4  0  0  0  0
 16 17  1  0  0  0  0
 18 19  1  0  0  0  0
 19 20  1  0  0  0  0
 20 21  1  0  0  0  0
 21 22  1  0  0  0  0
 21 23  1  0  0  0  0
M  END
>  <Name_Molregno>
620008

>  <HISTAMINE H1>
8.03

>  <Muscarinic acetylcholine receptor M1>
5

$$$$
620009
  Marvin  02231216192D 0   1.00000     0.00000     0

 24 26  0  0  1  0  0  0  0  0999 V2000
   -1.2152   -2.6024    0.0000 S   0  0  0  0  0  0  0  0  0
   -0.4306   -2.3475    0.0000 C   0  0  0  0  0  0  0  0  0
   -0.4306   -1.5225    0.0000 C   0  0  0  0  0  0  0  0  0
    0.2839   -1.1100    0.0000 C   0  0  0  0  0  0  0  0  0
    0.9983   -1.5225    0.0000 C   0  0  0  0  0  0  0  0  0
    0.9983   -2.3475    0.0000 C   0  0  0  0  0  0  0  0  0
    0.2839   -2.7600    0.0000 C   0  0  0  0  0  0  0  0  0
   -1.2152   -1.2676    0.0000 C   0  0  0  0  0  0  0  0  0
   -1.4702   -0.4829    0.0000 C   0  0  0  0  0  0  0  0  0
   -2.2771   -0.3114    0.0000 C   0  0  0  0  0  0  0  0  0
   -0.9181    0.1302    0.0000 C   0  0  0  0  0  0  0  0  0
   -0.1111   -0.0414    0.0000 N   0  0  0  0  0  0  0  0  0
    0.4409    0.5717    0.0000 C   0  0  0  0  0  0  0  0  0
    0.1859    1.3563    0.0000 C   0  0  0  0  0  0  0  0  0
   -0.6210    1.5279    0.0000 C   0  0  0  0  0  0  0  0  0
   -1.1731    0.9148    0.0000 C   0  0  0  0  0  0  0  0  0
   -1.9800    1.0863    0.0000 O   0  0  0  0  0  0  0  0  0
   -2.2350    1.8709    0.0000 C   0  0  0  0  0  0  0  0  0
   -1.7001   -1.9350    0.0000 C   0  0  0  0  0  0  0  0  0
   -2.5251   -1.9350    0.0000 C   0  0  0  0  0  0  0  0  0
   -2.9376   -2.6495    0.0000 C   0  0  0  0  0  0  0  0  0
   -3.7626   -2.6495    0.0000 N   0  0  0  0  0  0  0  0  0
   -4.1751   -3.3639    0.0000 C   0  0  0  0  0  0  0  0  0
   -4.1751   -1.9350    0.0000 C   0  0  0  0  0  0  0  0  0
  1  2  4  0  0  0  0
  1 19  4  0  0  0  0
  2  3  4  0  0  0  0
  2  7  4  0  0  0  0
  3  4  4  0  0  0  0
  3  8  4  0  0  0  0
  4  5  4  0  0  0  0
  5  6  4  0  0  0  0
  6  7  4  0  0  0  0
  8  9  1  0  0  0  0
  8 19  4  0  0  0  0
  9 10  1  0  0  0  0
  9 11  1  0  0  0  0
 11 12  4  0  0  0  0
 11 16  4  0  0  0  0
 12 13  4  0  0  0  0
 13 14  4  0  0  0  0
 14 15  4  0  0  0  0
 15 16  4  0  0  0  0
 16 17  1  0  0  0  0
 17 18  1  0  0  0  0
 19 20  1  0  0  0  0
 20 21  1  0  0  0  0
 21 22  1  0  0  0  0
 22 23  1  0  0  0  0
 22 24  1  0  0  0  0
M  END
>  <Name_Molregno>
620009

>  <HISTAMINE H1>
8.3

>  <Muscarinic acetylcholine receptor M1>
5

$$$$
620076
  Marvin  02231216192D 0   1.00000     0.00000     0

 23 25  0  0  1  0  0  0  0  0999 V2000
   -0.9774   -0.4110    0.0000 S   0  0  0  0  0  0  0  0  0
   -0.1928   -0.1561    0.0000 C   0  0  0  0  0  0  0  0  0
   -0.1928    0.6689    0.0000 C   0  0  0  0  0  0  0  0  0
    0.5217    1.0814    0.0000 C   0  0  0  0  0  0  0  0  0
    1.2361    0.6689    0.0000 C   0  0  0  0  0  0  0  0  0
    1.2361   -0.1561    0.0000 C   0  0  0  0  0  0  0  0  0
    0.5217   -0.5686    0.0000 C   0  0  0  0  0  0  0  0  0
   -0.9774    0.9239    0.0000 C   0  0  0  0  0  0  0  0  0
   -1.2324    1.7085    0.0000 C   0  0  0  0  0  0  0  0  0
   -2.0393    1.8800    0.0000 C   0  0  0  0  0  0  0  0  0
   -0.6803    2.3216    0.0000 C   0  0  0  0  0  0  0  0  0
    0.1266    2.1501    0.0000 N   0  0  0  0  0  0  0  0  0
    0.6787    2.7632    0.0000 C   0  0  0  0  0  0  0  0  0
    0.4237    3.5478    0.0000 C   0  0  0  0  0  0  0  0  0
   -0.3832    3.7193    0.0000 C   0  0  0  0  0  0  0  0  0
   -0.9353    3.1062    0.0000 C   0  0  0  0  0  0  0  0  0
   -1.7422    3.2777    0.0000 F   0  0  0  0  0  0  0  0  0
   -1.4623    0.2564    0.0000 C   0  0  0  0  0  0  0  0  0
   -2.2873    0.2564    0.0000 C   0  0  0  0  0  0  0  0  0
   -2.6998   -0.4580    0.0000 C   0  0  0  0  0  0  0  0  0
   -3.5248   -0.4580    0.0000 N   0  0  0  0  0  0  0  0  0
   -3.9373   -1.1725    0.0000 C   0  0  0  0  0  0  0  0  0
   -3.9373    0.2564    0.0000 C   0  0  0  0  0  0  0  0  0
  1  2  4  0  0  0  0
  1 18  4  0  0  0  0
  2  3  4  0  0  0  0
  2  7  4  0  0  0  0
  3  4  4  0  0  0  0
  3  8  4  0  0  0  0
  4  5  4  0  0  0  0
  5  6  4  0  0  0  0
  6  7  4  0  0  0  0
  8  9  1  0  0  0  0
  8 18  4  0  0  0  0
  9 10  1  0  0  0  0
  9 11  1  0  0  0  0
 11 12  4  0  0  0  0
 11 16  4  0  0  0  0
 12 13  4  0  0  0  0
 13 14  4  0  0  0  0
 14 15  4  0  0  0  0
 15 16  4  0  0  0  0
 16 17  1  0  0  0  0
 18 19  1  0  0  0  0
 19 20  1  0  0  0  0
 20 21  1  0  0  0  0
 21 22  1  0  0  0  0
 21 23  1  0  0  0  0
M  END
>  <Name_Molregno>
620076

>  <HISTAMINE H1>
8.57

>  <Muscarinic acetylcholine receptor M1>
5.66

$$$$
620077
  Marvin  02231216192D 0   1.00000     0.00000     0

 23 25  0  0  1  0  0  0  0  0999 V2000
   -1.8343   -3.9159    0.0000 Cl  0  0  0  0  0  0  0  0  0
   -1.0274   -3.7444    0.0000 C   0  0  0  0  0  0  0  0  0
   -0.4753   -4.3575    0.0000 C   0  0  0  0  0  0  0  0  0
    0.3316   -4.1860    0.0000 C   0  0  0  0  0  0  0  0  0
    0.5866   -3.4014    0.0000 C   0  0  0  0  0  0  0  0  0
    0.0345   -2.7883    0.0000 N   0  0  0  0  0  0  0  0  0
   -0.7724   -2.9598    0.0000 C   0  0  0  0  0  0  0  0  0
   -1.3245   -2.3467    0.0000 C   0  0  0  0  0  0  0  0  0
   -2.1314   -2.5182    0.0000 C   0  0  0  0  0  0  0  0  0
   -1.0695   -1.5621    0.0000 C   0  0  0  0  0  0  0  0  0
   -0.2849   -1.3071    0.0000 C   0  0  0  0  0  0  0  0  0
   -0.2849   -0.4821    0.0000 C   0  0  0  0  0  0  0  0  0
   -1.0695   -0.2272    0.0000 S   0  0  0  0  0  0  0  0  0
   -1.5544   -0.8946    0.0000 C   0  0  0  0  0  0  0  0  0
   -2.3794   -0.8946    0.0000 C   0  0  0  0  0  0  0  0  0
   -2.7919   -1.6091    0.0000 C   0  0  0  0  0  0  0  0  0
   -3.6169   -1.6091    0.0000 N   0  0  0  0  0  0  0  0  0
   -4.0294   -2.3236    0.0000 C   0  0  0  0  0  0  0  0  0
   -4.0294   -0.8946    0.0000 C   0  0  0  0  0  0  0  0  0
    0.4296   -0.0696    0.0000 C   0  0  0  0  0  0  0  0  0
    1.1440   -0.4821    0.0000 C   0  0  0  0  0  0  0  0  0
    1.1440   -1.3071    0.0000 C   0  0  0  0  0  0  0  0  0
    0.4296   -1.7196    0.0000 C   0  0  0  0  0  0  0  0  0
  1  2  1  0  0  0  0
  2  3  4  0  0  0  0
  2  7  4  0  0  0  0
  3  4  4  0  0  0  0
  4  5  4  0  0  0  0
  5  6  4  0  0  0  0
  6  7  4  0  0  0  0
  7  8  1  0  0  0  0
  8  9  1  0  0  0  0
  8 10  1  0  0  0  0
 10 11  4  0  0  0  0
 10 14  4  0  0  0  0
 11 12  4  0  0  0  0
 11 23  4  0  0  0  0
 12 13  4  0  0  0  0
 12 20  4  0  0  0  0
 13 14  4  0  0  0  0
 14 15  1  0  0  0  0
 15 16  1  0  0  0  0
 16 17  1  0  0  0  0
 17 18  1  0  0  0  0
 17 19  1  0  0  0  0
 20 21  4  0  0  0  0
 21 22  4  0  0  0  0
 22 23  4  0  0  0  0
M  END
>  <Name_Molregno>
620077

>  <HISTAMINE H1>
8.1

>  <Muscarinic acetylcholine receptor M1>
5

$$$$
620078
  Marvin  02231216192D 0   1.00000     0.00000     0

 23 25  0  0  1  0  0  0  0  0999 V2000
   -1.5476   -1.0568    0.0000 S   0  0  0  0  0  0  0  0  0
   -0.7630   -0.8019    0.0000 C   0  0  0  0  0  0  0  0  0
   -0.7630    0.0231    0.0000 C   0  0  0  0  0  0  0  0  0
   -0.0485    0.4356    0.0000 C   0  0  0  0  0  0  0  0  0
    0.6659    0.0231    0.0000 C   0  0  0  0  0  0  0  0  0
    0.6659   -0.8019    0.0000 C   0  0  0  0  0  0  0  0  0
   -0.0485   -1.2144    0.0000 C   0  0  0  0  0  0  0  0  0
   -1.5476    0.2780    0.0000 C   0  0  0  0  0  0  0  0  0
   -1.8026    1.0627    0.0000 C   0  0  0  0  0  0  0  0  0
   -2.6095    1.2342    0.0000 C   0  0  0  0  0  0  0  0  0
   -1.2505    1.6758    0.0000 C   0  0  0  0  0  0  0  0  0
   -1.5055    2.4604    0.0000 N   0  0  0  0  0  0  0  0  0
   -0.9534    3.0735    0.0000 C   0  0  0  0  0  0  0  0  0
   -0.1465    2.9019    0.0000 C   0  0  0  0  0  0  0  0  0
    0.4056    3.5150    0.0000 F   0  0  0  0  0  0  0  0  0
    0.1085    2.1173    0.0000 C   0  0  0  0  0  0  0  0  0
   -0.4436    1.5042    0.0000 C   0  0  0  0  0  0  0  0  0
   -2.0325   -0.3894    0.0000 C   0  0  0  0  0  0  0  0  0
   -2.8575   -0.3894    0.0000 C   0  0  0  0  0  0  0  0  0
   -3.2700   -1.1039    0.0000 C   0  0  0  0  0  0  0  0  0
   -4.0950   -1.1039    0.0000 N   0  0  0  0  0  0  0  0  0
   -4.5075   -1.8183    0.0000 C   0  0  0  0  0  0  0  0  0
   -4.5075   -0.3894    0.0000 C   0  0  0  0  0  0  0  0  0
  1  2  4  0  0  0  0
  1 18  4  0  0  0  0
  2  3  4  0  0  0  0
  2  7  4  0  0  0  0
  3  4  4  0  0  0  0
  3  8  4  0  0  0  0
  4  5  4  0  0  0  0
  5  6  4  0  0  0  0
  6  7  4  0  0  0  0
  8  9  1  0  0  0  0
  8 18  4  0  0  0  0
  9 10  1  0  0  0  0
  9 11  1  0  0  0  0
 11 12  4  0  0  0  0
 11 17  4  0  0  0  0
 12 13  4  0  0  0  0
 13 14  4  0  0  0  0
 14 15  1  0  0  0  0
 14 16  4  0  0  0  0
 16 17  4  0  0  0  0
 18 19  1  0  0  0  0
 19 20  1  0  0  0  0
 20 21  1  0  0  0  0
 21 22  1  0  0  0  0
 21 23  1  0  0  0  0
M  END
>  <Name_Molregno>
620078

>  <HISTAMINE H1>
7.89

>  <Muscarinic acetylcholine receptor M1>
5

$$$$
620079
  Marvin  02231216192D 0   1.00000     0.00000     0

 23 25  0  0  1  0  0  0  0  0999 V2000
   -1.5476   -1.0568    0.0000 S   0  0  0  0  0  0  0  0  0
   -0.7630   -0.8019    0.0000 C   0  0  0  0  0  0  0  0  0
   -0.7630    0.0231    0.0000 C   0  0  0  0  0  0  0  0  0
   -0.0485    0.4356    0.0000 C   0  0  0  0  0  0  0  0  0
    0.6659    0.0231    0.0000 C   0  0  0  0  0  0  0  0  0
    0.6659   -0.8019    0.0000 C   0  0  0  0  0  0  0  0  0
   -0.0485   -1.2144    0.0000 C   0  0  0  0  0  0  0  0  0
   -1.5476    0.2780    0.0000 C   0  0  0  0  0  0  0  0  0
   -1.8026    1.0627    0.0000 C   0  0  0  0  0  0  0  0  0
   -2.6095    1.2342    0.0000 C   0  0  0  0  0  0  0  0  0
   -1.2505    1.6758    0.0000 C   0  0  0  0  0  0  0  0  0
   -1.5055    2.4604    0.0000 C   0  0  0  0  0  0  0  0  0
   -0.9534    3.0735    0.0000 C   0  0  0  0  0  0  0  0  0
   -0.1465    2.9019    0.0000 C   0  0  0  0  0  0  0  0  0
    0.1085    2.1173    0.0000 N   0  0  0  0  0  0  0  0  0
   -0.4436    1.5042    0.0000 C   0  0  0  0  0  0  0  0  0
    0.4056    3.5150    0.0000 C   0  0  0  0  0  0  0  0  0
   -2.0325   -0.3894    0.0000 C   0  0  0  0  0  0  0  0  0
   -2.8575   -0.3894    0.0000 C   0  0  0  0  0  0  0  0  0
   -3.2700   -1.1039    0.0000 C   0  0  0  0  0  0  0  0  0
   -4.0950   -1.1039    0.0000 N   0  0  0  0  0  0  0  0  0
   -4.5075   -1.8183    0.0000 C   0  0  0  0  0  0  0  0  0
   -4.5075   -0.3894    0.0000 C   0  0  0  0  0  0  0  0  0
  1  2  4  0  0  0  0
  1 18  4  0  0  0  0
  2  3  4  0  0  0  0
  2  7  4  0  0  0  0
  3  4  4  0  0  0  0
  3  8  4  0  0  0  0
  4  5  4  0  0  0  0
  5  6  4  0  0  0  0
  6  7  4  0  0  0  0
  8  9  1  0  0  0  0
  8 18  4  0  0  0  0
  9 10  1  0  0  0  0
  9 11  1  0  0  0  0
 11 12  4  0  0  0  0
 11 16  4  0  0  0  0
 12 13  4  0  0  0  0
 13 14  4  0  0  0  0
 14 15  4  0  0  0  0
 14 17  1  0  0  0  0
 15 16  4  0  0  0  0
 18 19  1  0  0  0  0
 19 20  1  0  0  0  0
 20 21  1  0  0  0  0
 21 22  1  0  0  0  0
 21 23  1  0  0  0  0
M  END
>  <Name_Molregno>
620079

>  <HISTAMINE H1>
7.16

>  <Muscarinic acetylcholine receptor M1>
5

$$$$
620080
  Marvin  02231216192D 0   1.00000     0.00000     0

 24 26  0  0  1  0  0  0  0  0999 V2000
   -1.8229   -2.1620    0.0000 S   0  0  0  0  0  0  0  0  0
   -1.0383   -1.9071    0.0000 C   0  0  0  0  0  0  0  0  0
   -1.0383   -1.0821    0.0000 C   0  0  0  0  0  0  0  0  0
   -0.3238   -0.6696    0.0000 C   0  0  0  0  0  0  0  0  0
    0.3907   -1.0821    0.0000 C   0  0  0  0  0  0  0  0  0
    0.3907   -1.9071    0.0000 C   0  0  0  0  0  0  0  0  0
   -0.3238   -2.3196    0.0000 C   0  0  0  0  0  0  0  0  0
   -1.8229   -0.8271    0.0000 C   0  0  0  0  0  0  0  0  0
   -2.0778   -0.0425    0.0000 C   0  0  0  0  0  0  0  0  0
   -2.8848    0.1290    0.0000 C   0  0  0  0  0  0  0  0  0
   -1.5258    0.5706    0.0000 C   0  0  0  0  0  0  0  0  0
   -1.7807    1.3552    0.0000 C   0  0  0  0  0  0  0  0  0
   -1.2287    1.9683    0.0000 C   0  0  0  0  0  0  0  0  0
   -0.4217    1.7968    0.0000 C   0  0  0  0  0  0  0  0  0
    0.1303    2.4099    0.0000 O   0  0  0  0  0  0  0  0  0
    0.9373    2.2383    0.0000 C   0  0  0  0  0  0  0  0  0
   -0.1668    1.0121    0.0000 N   0  0  0  0  0  0  0  0  0
   -0.7188    0.3990    0.0000 C   0  0  0  0  0  0  0  0  0
   -2.3078   -1.4946    0.0000 C   0  0  0  0  0  0  0  0  0
   -3.1328   -1.4946    0.0000 C   0  0  0  0  0  0  0  0  0
   -3.5453   -2.2091    0.0000 C   0  0  0  0  0  0  0  0  0
   -4.3703   -2.2091    0.0000 N   0  0  0  0  0  0  0  0  0
   -4.7828   -2.9235    0.0000 C   0  0  0  0  0  0  0  0  0
   -4.7828   -1.4946    0.0000 C   0  0  0  0  0  0  0  0  0
  1  2  4  0  0  0  0
  1 19  4  0  0  0  0
  2  3  4  0  0  0  0
  2  7  4  0  0  0  0
  3  4  4  0  0  0  0
  3  8  4  0  0  0  0
  4  5  4  0  0  0  0
  5  6  4  0  0  0  0
  6  7  4  0  0  0  0
  8  9  1  0  0  0  0
  8 19  4  0  0  0  0
  9 10  1  0  0  0  0
  9 11  1  0  0  0  0
 11 12  4  0  0  0  0
 11 18  4  0  0  0  0
 12 13  4  0  0  0  0
 13 14  4  0  0  0  0
 14 15  1  0  0  0  0
 14 17  4  0  0  0  0
 15 16  1  0  0  0  0
 17 18  4  0  0  0  0
 19 20  1  0  0  0  0
 20 21  1  0  0  0  0
 21 22  1  0  0  0  0
 22 23  1  0  0  0  0
 22 24  1  0  0  0  0
M  END
>  <Name_Molregno>
620080

>  <HISTAMINE H1>
6.92

>  <Muscarinic acetylcholine receptor M1>
5

$$$$
620081
  Marvin  02231216192D 0   1.00000     0.00000     0

 23 25  0  0  1  0  0  0  0  0999 V2000
   -0.9774   -0.4110    0.0000 S   0  0  0  0  0  0  0  0  0
   -0.1928   -0.1561    0.0000 C   0  0  0  0  0  0  0  0  0
   -0.1928    0.6689    0.0000 C   0  0  0  0  0  0  0  0  0
    0.5217    1.0814    0.0000 C   0  0  0  0  0  0  0  0  0
    1.2361    0.6689    0.0000 C   0  0  0  0  0  0  0  0  0
    1.2361   -0.1561    0.0000 C   0  0  0  0  0  0  0  0  0
    0.5217   -0.5686    0.0000 C   0  0  0  0  0  0  0  0  0
   -0.9774    0.9239    0.0000 C   0  0  0  0  0  0  0  0  0
   -1.2324    1.7085    0.0000 C   0  0  0  0  0  0  0  0  0
   -2.0393    1.8800    0.0000 C   0  0  0  0  0  0  0  0  0
   -0.6803    2.3216    0.0000 C   0  0  0  0  0  0  0  0  0
    0.1266    2.1501    0.0000 C   0  0  0  0  0  0  0  0  0
    0.6787    2.7632    0.0000 C   0  0  0  0  0  0  0  0  0
    0.4237    3.5478    0.0000 C   0  0  0  0  0  0  0  0  0
   -0.3832    3.7193    0.0000 N   0  0  0  0  0  0  0  0  0
   -0.9353    3.1062    0.0000 C   0  0  0  0  0  0  0  0  0
   -1.7422    3.2777    0.0000 C   0  0  0  0  0  0  0  0  0
   -1.4623    0.2564    0.0000 C   0  0  0  0  0  0  0  0  0
   -2.2873    0.2564    0.0000 C   0  0  0  0  0  0  0  0  0
   -2.6998   -0.4580    0.0000 C   0  0  0  0  0  0  0  0  0
   -3.5248   -0.4580    0.0000 N   0  0  0  0  0  0  0  0  0
   -3.9373   -1.1725    0.0000 C   0  0  0  0  0  0  0  0  0
   -3.9373    0.2564    0.0000 C   0  0  0  0  0  0  0  0  0
  1  2  4  0  0  0  0
  1 18  4  0  0  0  0
  2  3  4  0  0  0  0
  2  7  4  0  0  0  0
  3  4  4  0  0  0  0
  3  8  4  0  0  0  0
  4  5  4  0  0  0  0
  5  6  4  0  0  0  0
  6  7  4  0  0  0  0
  8  9  1  0  0  0  0
  8 18  4  0  0  0  0
  9 10  1  0  0  0  0
  9 11  1  0  0  0  0
 11 12  4  0  0  0  0
 11 16  4  0  0  0  0
 12 13  4  0  0  0  0
 13 14  4  0  0  0  0
 14 15  4  0  0  0  0
 15 16  4  0  0  0  0
 16 17  1  0  0  0  0
 18 19  1  0  0  0  0
 19 20  1  0  0  0  0
 20 21  1  0  0  0  0
 21 22  1  0  0  0  0
 21 23  1  0  0  0  0
M  END
>  <Name_Molregno>
620081

>  <HISTAMINE H1>
7.77

>  <Muscarinic acetylcholine receptor M1>
5

$$$$
620164
  Marvin  02231216192D 0   1.00000     0.00000     0

 24 26  0  0  1  0  0  0  0  0999 V2000
   -1.2152   -2.6024    0.0000 S   0  0  0  0  0  0  0  0  0
   -0.4306   -2.3475    0.0000 C   0  0  0  0  0  0  0  0  0
   -0.4306   -1.5225    0.0000 C   0  0  0  0  0  0  0  0  0
    0.2839   -1.1100    0.0000 C   0  0  0  0  0  0  0  0  0
    0.9983   -1.5225    0.0000 C   0  0  0  0  0  0  0  0  0
    0.9983   -2.3475    0.0000 C   0  0  0  0  0  0  0  0  0
    0.2839   -2.7600    0.0000 C   0  0  0  0  0  0  0  0  0
   -1.2152   -1.2676    0.0000 C   0  0  0  0  0  0  0  0  0
   -1.4702   -0.4829    0.0000 C   0  0  0  0  0  0  0  0  0
   -2.2771   -0.3114    0.0000 C   0  0  0  0  0  0  0  0  0
   -0.9181    0.1302    0.0000 C   0  0  0  0  0  0  0  0  0
   -0.1111   -0.0414    0.0000 C   0  0  0  0  0  0  0  0  0
    0.4409    0.5717    0.0000 C   0  0  0  0  0  0  0  0  0
    0.1859    1.3563    0.0000 C   0  0  0  0  0  0  0  0  0
   -0.6210    1.5279    0.0000 N   0  0  0  0  0  0  0  0  0
   -1.1731    0.9148    0.0000 C   0  0  0  0  0  0  0  0  0
   -1.9800    1.0863    0.0000 O   0  0  0  0  0  0  0  0  0
   -2.2350    1.8709    0.0000 C   0  0  0  0  0  0  0  0  0
   -1.7001   -1.9350    0.0000 C   0  0  0  0  0  0  0  0  0
   -2.5251   -1.9350    0.0000 C   0  0  0  0  0  0  0  0  0
   -2.9376   -2.6495    0.0000 C   0  0  0  0  0  0  0  0  0
   -3.7626   -2.6495    0.0000 N   0  0  0  0  0  0  0  0  0
   -4.1751   -3.3639    0.0000 C   0  0  0  0  0  0  0  0  0
   -4.1751   -1.9350    0.0000 C   0  0  0  0  0  0  0  0  0
  1  2  4  0  0  0  0
  1 19  4  0  0  0  0
  2  3  4  0  0  0  0
  2  7  4  0  0  0  0
  3  4  4  0  0  0  0
  3  8  4  0  0  0  0
  4  5  4  0  0  0  0
  5  6  4  0  0  0  0
  6  7  4  0  0  0  0
  8  9  1  0  0  0  0
  8 19  4  0  0  0  0
  9 10  1  0  0  0  0
  9 11  1  0  0  0  0
 11 12  4  0  0  0  0
 11 16  4  0  0  0  0
 12 13  4  0  0  0  0
 13 14  4  0  0  0  0
 14 15  4  0  0  0  0
 15 16  4  0  0  0  0
 16 17  1  0  0  0  0
 17 18  1  0  0  0  0
 19 20  1  0  0  0  0
 20 21  1  0  0  0  0
 21 22  1  0  0  0  0
 22 23  1  0  0  0  0
 22 24  1  0  0  0  0
M  END
>  <Name_Molregno>
620164

>  <HISTAMINE H1>
8.54

>  <Muscarinic acetylcholine receptor M1>
5

$$$$
620165
  Marvin  02231216192D 0   1.00000     0.00000     0

 23 25  0  0  1  0  0  0  0  0999 V2000
   -0.9774   -0.4110    0.0000 S   0  0  0  0  0  0  0  0  0
   -0.1928   -0.1561    0.0000 C   0  0  0  0  0  0  0  0  0
   -0.1928    0.6689    0.0000 C   0  0  0  0  0  0  0  0  0
    0.5217    1.0814    0.0000 C   0  0  0  0  0  0  0  0  0
    1.2361    0.6689    0.0000 C   0  0  0  0  0  0  0  0  0
    1.2361   -0.1561    0.0000 C   0  0  0  0  0  0  0  0  0
    0.5217   -0.5686    0.0000 C   0  0  0  0  0  0  0  0  0
   -0.9774    0.9239    0.0000 C   0  0  0  0  0  0  0  0  0
   -1.2324    1.7085    0.0000 C   0  0  0  0  0  0  0  0  0
   -2.0393    1.8800    0.0000 C   0  0  0  0  0  0  0  0  0
   -0.6803    2.3216    0.0000 C   0  0  0  0  0  0  0  0  0
    0.1266    2.1501    0.0000 C   0  0  0  0  0  0  0  0  0
    0.6787    2.7632    0.0000 C   0  0  0  0  0  0  0  0  0
    0.4237    3.5478    0.0000 C   0  0  0  0  0  0  0  0  0
   -0.3832    3.7193    0.0000 N   0  0  0  0  0  0  0  0  0
   -0.9353    3.1062    0.0000 C   0  0  0  0  0  0  0  0  0
   -1.7422    3.2777    0.0000 F   0  0  0  0  0  0  0  0  0
   -1.4623    0.2564    0.0000 C   0  0  0  0  0  0  0  0  0
   -2.2873    0.2564    0.0000 C   0  0  0  0  0  0  0  0  0
   -2.6998   -0.4580    0.0000 C   0  0  0  0  0  0  0  0  0
   -3.5248   -0.4580    0.0000 N   0  0  0  0  0  0  0  0  0
   -3.9373   -1.1725    0.0000 C   0  0  0  0  0  0  0  0  0
   -3.9373    0.2564    0.0000 C   0  0  0  0  0  0  0  0  0
  1  2  4  0  0  0  0
  1 18  4  0  0  0  0
  2  3  4  0  0  0  0
  2  7  4  0  0  0  0
  3  4  4  0  0  0  0
  3  8  4  0  0  0  0
  4  5  4  0  0  0  0
  5  6  4  0  0  0  0
  6  7  4  0  0  0  0
  8  9  1  0  0  0  0
  8 18  4  0  0  0  0
  9 10  1  0  0  0  0
  9 11  1  0  0  0  0
 11 12  4  0  0  0  0
 11 16  4  0  0  0  0
 12 13  4  0  0  0  0
 13 14  4  0  0  0  0
 14 15  4  0  0  0  0
 15 16  4  0  0  0  0
 16 17  1  0  0  0  0
 18 19  1  0  0  0  0
 19 20  1  0  0  0  0
 20 21  1  0  0  0  0
 21 22  1  0  0  0  0
 21 23  1  0  0  0  0
M  END
>  <Name_Molregno>
620165

>  <HISTAMINE H1>
8.77

>  <Muscarinic acetylcholine receptor M1>
5

$$$$
620166
  Marvin  02231216192D 0   1.00000     0.00000     0

 23 25  0  0  1  0  0  0  0  0999 V2000
   -1.8343   -3.9159    0.0000 Cl  0  0  0  0  0  0  0  0  0
   -1.0274   -3.7444    0.0000 C   0  0  0  0  0  0  0  0  0
   -0.4753   -4.3575    0.0000 N   0  0  0  0  0  0  0  0  0
    0.3316   -4.1860    0.0000 C   0  0  0  0  0  0  0  0  0
    0.5866   -3.4014    0.0000 C   0  0  0  0  0  0  0  0  0
    0.0345   -2.7883    0.0000 C   0  0  0  0  0  0  0  0  0
   -0.7724   -2.9598    0.0000 C   0  0  0  0  0  0  0  0  0
   -1.3245   -2.3467    0.0000 C   0  0  0  0  0  0  0  0  0
   -2.1314   -2.5182    0.0000 C   0  0  0  0  0  0  0  0  0
   -1.0695   -1.5621    0.0000 C   0  0  0  0  0  0  0  0  0
   -0.2849   -1.3071    0.0000 C   0  0  0  0  0  0  0  0  0
   -0.2849   -0.4821    0.0000 C   0  0  0  0  0  0  0  0  0
   -1.0695   -0.2272    0.0000 S   0  0  0  0  0  0  0  0  0
   -1.5544   -0.8946    0.0000 C   0  0  0  0  0  0  0  0  0
   -2.3794   -0.8946    0.0000 C   0  0  0  0  0  0  0  0  0
   -2.7919   -1.6091    0.0000 C   0  0  0  0  0  0  0  0  0
   -3.6169   -1.6091    0.0000 N   0  0  0  0  0  0  0  0  0
   -4.0294   -2.3236    0.0000 C   0  0  0  0  0  0  0  0  0
   -4.0294   -0.8946    0.0000 C   0  0  0  0  0  0  0  0  0
    0.4296   -0.0696    0.0000 C   0  0  0  0  0  0  0  0  0
    1.1440   -0.4821    0.0000 C   0  0  0  0  0  0  0  0  0
    1.1440   -1.3071    0.0000 C   0  0  0  0  0  0  0  0  0
    0.4296   -1.7196    0.0000 C   0  0  0  0  0  0  0  0  0
  1  2  1  0  0  0  0
  2  3  4  0  0  0  0
  2  7  4  0  0  0  0
  3  4  4  0  0  0  0
  4  5  4  0  0  0  0
  5  6  4  0  0  0  0
  6  7  4  0  0  0  0
  7  8  1  0  0  0  0
  8  9  1  0  0  0  0
  8 10  1  0  0  0  0
 10 11  4  0  0  0  0
 10 14  4  0  0  0  0
 11 12  4  0  0  0  0
 11 23  4  0  0  0  0
 12 13  4  0  0  0  0
 12 20  4  0  0  0  0
 13 14  4  0  0  0  0
 14 15  1  0  0  0  0
 15 16  1  0  0  0  0
 16 17  1  0  0  0  0
 17 18  1  0  0  0  0
 17 19  1  0  0  0  0
 20 21  4  0  0  0  0
 21 22  4  0  0  0  0
 22 23  4  0  0  0  0
M  END
>  <Name_Molregno>
620166

>  <HISTAMINE H1>
8.54

>  <Muscarinic acetylcholine receptor M1>
5

$$$$
620167
  Marvin  02231216192D 0   1.00000     0.00000     0

 21 23  0  0  1  0  0  0  0  0999 V2000
   -0.1062   -0.0401    0.0000 S   0  0  0  0  0  0  0  0  0
    0.6784    0.2149    0.0000 C   0  0  0  0  0  0  0  0  0
    0.6784    1.0399    0.0000 C   0  0  0  0  0  0  0  0  0
    1.3929    1.4524    0.0000 C   0  0  0  0  0  0  0  0  0
    2.1074    1.0399    0.0000 C   0  0  0  0  0  0  0  0  0
    2.1074    0.2149    0.0000 C   0  0  0  0  0  0  0  0  0
    1.3929   -0.1976    0.0000 C   0  0  0  0  0  0  0  0  0
   -0.1062    1.2948    0.0000 C   0  0  0  0  0  0  0  0  0
   -0.3611    2.0794    0.0000 C   0  0  0  0  0  0  0  0  0
   -1.1681    2.2510    0.0000 C   0  0  0  0  0  0  0  0  0
    0.1909    2.6925    0.0000 C   0  0  0  0  0  0  0  0  0
    0.0194    3.4995    0.0000 S   0  0  0  0  0  0  0  0  0
    0.7339    3.9120    0.0000 C   0  0  0  0  0  0  0  0  0
    1.3470    3.3600    0.0000 C   0  0  0  0  0  0  0  0  0
    1.0114    2.6063    0.0000 N   0  0  0  0  0  0  0  0  0
   -0.5911    0.6274    0.0000 C   0  0  0  0  0  0  0  0  0
   -1.4161    0.6274    0.0000 C   0  0  0  0  0  0  0  0  0
   -1.8286   -0.0871    0.0000 C   0  0  0  0  0  0  0  0  0
   -2.6536   -0.0871    0.0000 N   0  0  0  0  0  0  0  0  0
   -3.0661   -0.8016    0.0000 C   0  0  0  0  0  0  0  0  0
   -3.0661    0.6274    0.0000 C   0  0  0  0  0  0  0  0  0
  1  2  4  0  0  0  0
  1 16  4  0  0  0  0
  2  3  4  0  0  0  0
  2  7  4  0  0  0  0
  3  4  4  0  0  0  0
  3  8  4  0  0  0  0
  4  5  4  0  0  0  0
  5  6  4  0  0  0  0
  6  7  4  0  0  0  0
  8  9  1  0  0  0  0
  8 16  4  0  0  0  0
  9 10  1  0  0  0  0
  9 11  1  0  0  0  0
 11 12  4  0  0  0  0
 11 15  4  0  0  0  0
 12 13  4  0  0  0  0
 13 14  4  0  0  0  0
 14 15  4  0  0  0  0
 16 17  1  0  0  0  0
 17 18  1  0  0  0  0
 18 19  1  0  0  0  0
 19 20  1  0  0  0  0
 19 21  1  0  0  0  0
M  END
>  <Name_Molregno>
620167

>  <HISTAMINE H1>
7.46

>  <Muscarinic acetylcholine receptor M1>
2.68

$$$$
620168
  Marvin  02231216192D 0   1.00000     0.00000     0

 21 23  0  0  1  0  0  0  0  0999 V2000
   -0.1062   -0.0401    0.0000 S   0  0  0  0  0  0  0  0  0
    0.6784    0.2149    0.0000 C   0  0  0  0  0  0  0  0  0
    0.6784    1.0399    0.0000 C   0  0  0  0  0  0  0  0  0
    1.3929    1.4524    0.0000 C   0  0  0  0  0  0  0  0  0
    2.1074    1.0399    0.0000 C   0  0  0  0  0  0  0  0  0
    2.1074    0.2149    0.0000 C   0  0  0  0  0  0  0  0  0
    1.3929   -0.1976    0.0000 C   0  0  0  0  0  0  0  0  0
   -0.1062    1.2948    0.0000 C   0  0  0  0  0  0  0  0  0
   -0.3611    2.0794    0.0000 C   0  0  0  0  0  0  0  0  0
   -1.1681    2.2510    0.0000 C   0  0  0  0  0  0  0  0  0
    0.1909    2.6925    0.0000 C   0  0  0  0  0  0  0  0  0
    0.0194    3.4995    0.0000 N   0  0  0  0  0  0  0  0  0
    0.7339    3.9120    0.0000 C   0  0  0  0  0  0  0  0  0
    1.3470    3.3600    0.0000 S   0  0  0  0  0  0  0  0  0
    1.0114    2.6063    0.0000 C   0  0  0  0  0  0  0  0  0
   -0.5911    0.6274    0.0000 C   0  0  0  0  0  0  0  0  0
   -1.4161    0.6274    0.0000 C   0  0  0  0  0  0  0  0  0
   -1.8286   -0.0871    0.0000 C   0  0  0  0  0  0  0  0  0
   -2.6536   -0.0871    0.0000 N   0  0  0  0  0  0  0  0  0
   -3.0661   -0.8016    0.0000 C   0  0  0  0  0  0  0  0  0
   -3.0661    0.6274    0.0000 C   0  0  0  0  0  0  0  0  0
  1  2  4  0  0  0  0
  1 16  4  0  0  0  0
  2  3  4  0  0  0  0
  2  7  4  0  0  0  0
  3  4  4  0  0  0  0
  3  8  4  0  0  0  0
  4  5  4  0  0  0  0
  5  6  4  0  0  0  0
  6  7  4  0  0  0  0
  8  9  1  0  0  0  0
  8 16  4  0  0  0  0
  9 10  1  0  0  0  0
  9 11  1  0  0  0  0
 11 12  4  0  0  0  0
 11 15  4  0  0  0  0
 12 13  4  0  0  0  0
 13 14  4  0  0  0  0
 14 15  4  0  0  0  0
 16 17  1  0  0  0  0
 17 18  1  0  0  0  0
 18 19  1  0  0  0  0
 19 20  1  0  0  0  0
 19 21  1  0  0  0  0
M  END
>  <Name_Molregno>
620168

>  <HISTAMINE H1>
8.34

>  <Muscarinic acetylcholine receptor M1>
2.32

$$$$
620169
  Marvin  02231216192D 0   1.00000     0.00000     0

 21 23  0  0  1  0  0  0  0  0999 V2000
   -0.1062   -0.0401    0.0000 S   0  0  0  0  0  0  0  0  0
    0.6784    0.2149    0.0000 C   0  0  0  0  0  0  0  0  0
    0.6784    1.0399    0.0000 C   0  0  0  0  0  0  0  0  0
    1.3929    1.4524    0.0000 C   0  0  0  0  0  0  0  0  0
    2.1074    1.0399    0.0000 C   0  0  0  0  0  0  0  0  0
    2.1074    0.2149    0.0000 C   0  0  0  0  0  0  0  0  0
    1.3929   -0.1976    0.0000 C   0  0  0  0  0  0  0  0  0
   -0.1062    1.2948    0.0000 C   0  0  0  0  0  0  0  0  0
   -0.3611    2.0794    0.0000 C   0  0  0  0  0  0  0  0  0
   -1.1681    2.2510    0.0000 C   0  0  0  0  0  0  0  0  0
    0.1909    2.6925    0.0000 C   0  0  0  0  0  0  0  0  0
    0.0194    3.4995    0.0000 S   0  0  0  0  0  0  0  0  0
    0.7339    3.9120    0.0000 C   0  0  0  0  0  0  0  0  0
    1.3470    3.3600    0.0000 N   0  0  0  0  0  0  0  0  0
    1.0114    2.6063    0.0000 C   0  0  0  0  0  0  0  0  0
   -0.5911    0.6274    0.0000 C   0  0  0  0  0  0  0  0  0
   -1.4161    0.6274    0.0000 C   0  0  0  0  0  0  0  0  0
   -1.8286   -0.0871    0.0000 C   0  0  0  0  0  0  0  0  0
   -2.6536   -0.0871    0.0000 N   0  0  0  0  0  0  0  0  0
   -3.0661   -0.8016    0.0000 C   0  0  0  0  0  0  0  0  0
   -3.0661    0.6274    0.0000 C   0  0  0  0  0  0  0  0  0
  1  2  4  0  0  0  0
  1 16  4  0  0  0  0
  2  3  4  0  0  0  0
  2  7  4  0  0  0  0
  3  4  4  0  0  0  0
  3  8  4  0  0  0  0
  4  5  4  0  0  0  0
  5  6  4  0  0  0  0
  6  7  4  0  0  0  0
  8  9  1  0  0  0  0
  8 16  4  0  0  0  0
  9 10  1  0  0  0  0
  9 11  1  0  0  0  0
 11 12  4  0  0  0  0
 11 15  4  0  0  0  0
 12 13  4  0  0  0  0
 13 14  4  0  0  0  0
 14 15  4  0  0  0  0
 16 17  1  0  0  0  0
 17 18  1  0  0  0  0
 18 19  1  0  0  0  0
 19 20  1  0  0  0  0
 19 21  1  0  0  0  0
M  END
>  <Name_Molregno>
620169

>  <HISTAMINE H1>
8.28

>  <Muscarinic acetylcholine receptor M1>
2

$$$$
620235
  Marvin  02231216192D 0   1.00000     0.00000     0

 21 23  0  0  1  0  0  0  0  0999 V2000
   -0.1062   -0.0401    0.0000 S   0  0  0  0  0  0  0  0  0
    0.6784    0.2149    0.0000 C   0  0  0  0  0  0  0  0  0
    0.6784    1.0399    0.0000 C   0  0  0  0  0  0  0  0  0
    1.3929    1.4524    0.0000 C   0  0  0  0  0  0  0  0  0
    2.1074    1.0399    0.0000 C   0  0  0  0  0  0  0  0  0
    2.1074    0.2149    0.0000 C   0  0  0  0  0  0  0  0  0
    1.3929   -0.1976    0.0000 C   0  0  0  0  0  0  0  0  0
   -0.1062    1.2948    0.0000 C   0  0  0  0  0  0  0  0  0
   -0.3611    2.0794    0.0000 C   0  0  0  0  0  0  0  0  0
    0.1909    2.6925    0.0000 N   0  0  0  0  0  0  0  0  0
    0.0194    3.4995    0.0000 C   0  0  0  0  0  0  0  0  0
    0.7339    3.9120    0.0000 C   0  0  0  0  0  0  0  0  0
    1.3470    3.3600    0.0000 N   0  0  0  0  0  0  0  0  0
    1.0114    2.6063    0.0000 C   0  0  0  0  0  0  0  0  0
   -1.1681    2.2510    0.0000 C   0  0  0  0  0  0  0  0  0
   -0.5911    0.6274    0.0000 C   0  0  0  0  0  0  0  0  0
   -1.4161    0.6274    0.0000 C   0  0  0  0  0  0  0  0  0
   -1.8286   -0.0871    0.0000 C   0  0  0  0  0  0  0  0  0
   -2.6536   -0.0871    0.0000 N   0  0  0  0  0  0  0  0  0
   -3.0661   -0.8016    0.0000 C   0  0  0  0  0  0  0  0  0
   -3.0661    0.6274    0.0000 C   0  0  0  0  0  0  0  0  0
  1  2  4  0  0  0  0
  1 16  4  0  0  0  0
  2  3  4  0  0  0  0
  2  7  4  0  0  0  0
  3  4  4  0  0  0  0
  3  8  4  0  0  0  0
  4  5  4  0  0  0  0
  5  6  4  0  0  0  0
  6  7  4  0  0  0  0
  8  9  1  0  0  0  0
  8 16  4  0  0  0  0
  9 10  1  0  0  0  0
  9 15  1  0  0  0  0
 10 11  4  0  0  0  0
 10 14  4  0  0  0  0
 11 12  4  0  0  0  0
 12 13  4  0  0  0  0
 13 14  4  0  0  0  0
 16 17  1  0  0  0  0
 17 18  1  0  0  0  0
 18 19  1  0  0  0  0
 19 20  1  0  0  0  0
 19 21  1  0  0  0  0
M  END
>  <Name_Molregno>
620235

>  <HISTAMINE H1>
6.91

$$$$
620236
  Marvin  02231216192D 0   1.00000     0.00000     0

 21 23  0  0  1  0  0  0  0  0999 V2000
   -0.1062   -0.0401    0.0000 S   0  0  0  0  0  0  0  0  0
    0.6784    0.2149    0.0000 C   0  0  0  0  0  0  0  0  0
    0.6784    1.0399    0.0000 C   0  0  0  0  0  0  0  0  0
    1.3929    1.4524    0.0000 C   0  0  0  0  0  0  0  0  0
    2.1074    1.0399    0.0000 C   0  0  0  0  0  0  0  0  0
    2.1074    0.2149    0.0000 C   0  0  0  0  0  0  0  0  0
    1.3929   -0.1976    0.0000 C   0  0  0  0  0  0  0  0  0
   -0.1062    1.2948    0.0000 C   0  0  0  0  0  0  0  0  0
   -0.3611    2.0794    0.0000 C   0  0  0  0  0  0  0  0  0
    0.1909    2.6925    0.0000 N   0  0  0  0  0  0  0  0  0
    0.0194    3.4995    0.0000 N   0  0  0  0  0  0  0  0  0
    0.7339    3.9120    0.0000 C   0  0  0  0  0  0  0  0  0
    1.3470    3.3600    0.0000 C   0  0  0  0  0  0  0  0  0
    1.0114    2.6063    0.0000 C   0  0  0  0  0  0  0  0  0
   -1.1681    2.2510    0.0000 C   0  0  0  0  0  0  0  0  0
   -0.5911    0.6274    0.0000 C   0  0  0  0  0  0  0  0  0
   -1.4161    0.6274    0.0000 C   0  0  0  0  0  0  0  0  0
   -1.8286   -0.0871    0.0000 C   0  0  0  0  0  0  0  0  0
   -2.6536   -0.0871    0.0000 N   0  0  0  0  0  0  0  0  0
   -3.0661   -0.8016    0.0000 C   0  0  0  0  0  0  0  0  0
   -3.0661    0.6274    0.0000 C   0  0  0  0  0  0  0  0  0
  1  2  4  0  0  0  0
  1 16  4  0  0  0  0
  2  3  4  0  0  0  0
  2  7  4  0  0  0  0
  3  4  4  0  0  0  0
  3  8  4  0  0  0  0
  4  5  4  0  0  0  0
  5  6  4  0  0  0  0
  6  7  4  0  0  0  0
  8  9  1  0  0  0  0
  8 16  4  0  0  0  0
  9 10  1  0  0  0  0
  9 15  1  0  0  0  0
 10 11  4  0  0  0  0
 10 14  4  0  0  0  0
 11 12  4  0  0  0  0
 12 13  4  0  0  0  0
 13 14  4  0  0  0  0
 16 17  1  0  0  0  0
 17 18  1  0  0  0  0
 18 19  1  0  0  0  0
 19 20  1  0  0  0  0
 19 21  1  0  0  0  0
M  END
>  <Name_Molregno>
620236

>  <HISTAMINE H1>
8.36

>  <Muscarinic acetylcholine receptor M1>
2

$$$$
627260
  Marvin  02231216192D 0   1.00000     0.00000     0

 18 19  0  0  0  0  0  0  0  0999 V2000
   -1.5728   -0.4149    0.0000 S   0  0  0  0  0  0  0  0  0
   -1.5728   -1.2399    0.0000 C   0  0  0  0  0  0  0  0  0
   -2.2872   -1.6524    0.0000 C   0  0  0  0  0  0  0  0  0
   -2.2872   -2.4774    0.0000 C   0  0  0  0  0  0  0  0  0
   -1.6198   -2.9624    0.0000 N   0  0  0  0  0  0  0  0  0
   -1.8747   -3.7470    0.0000 C   0  0  0  0  0  0  0  0  0
   -2.6997   -3.7470    0.0000 N   0  0  0  0  0  0  0  0  0
   -2.9547   -2.9624    0.0000 C   0  0  0  0  0  0  0  0  0
   -0.8583   -0.0024    0.0000 C   0  0  0  0  0  0  0  0  0
   -0.8583    0.8226    0.0000 C   0  0  0  0  0  0  0  0  0
   -0.1438    1.2351    0.0000 C   0  0  0  0  0  0  0  0  0
    0.5707    0.8226    0.0000 C   0  0  0  0  0  0  0  0  0
    0.5707   -0.0024    0.0000 C   0  0  0  0  0  0  0  0  0
   -0.1438   -0.4149    0.0000 C   0  0  0  0  0  0  0  0  0
    1.2851    1.2351    0.0000 C   0  0  0  0  0  0  0  0  0
    1.9996    1.6476    0.0000 C   0  0  0  0  0  0  0  0  0
    1.6976    0.5206    0.0000 C   0  0  0  0  0  0  0  0  0
    0.8726    1.9495    0.0000 C   0  0  0  0  0  0  0  0  0
  1  2  1  0  0  0  0
  1  9  1  0  0  0  0
  2  3  1  0  0  0  0
  3  4  1  0  0  0  0
  4  5  4  0  0  0  0
  4  8  4  0  0  0  0
  5  6  4  0  0  0  0
  6  7  4  0  0  0  0
  7  8  4  0  0  0  0
  9 10  4  0  0  0  0
  9 14  4  0  0  0  0
 10 11  4  0  0  0  0
 11 12  4  0  0  0  0
 12 13  4  0  0  0  0
 12 15  1  0  0  0  0
 13 14  4  0  0  0  0
 15 16  1  0  0  0  0
 15 17  1  0  0  0  0
 15 18  1  0  0  0  0
M  STY  1   1 DAT
M  SAL   1  1   7
M  SDT   1 MRV_IMPLICIT_H                                        
M  SDD   1     0.0000    0.0000    DR    ALL  0       0  
M  SED   1 IMPL_H1
M  END
>  <Name_Molregno>
627260

>  <HISTAMINE H1>
6

>  <HISTAMINE H2>
6

>  <HISTAMINE H3>
9.57

>  <HISTAMINE H4>
8.96

$$$$
629816
  Marvin  02231216192D 0   1.00000     0.00000     0

 26 29  0  0  1  0  0  0  0  0999 V2000
    5.5956   -2.3751    0.0000 O   0  0  0  0  0  0  0  0  0
    6.4026   -2.2035    0.0000 C   0  0  0  0  0  0  0  0  0
    5.0436   -1.7620    0.0000 C   0  0  0  0  0  0  0  0  0
    4.2366   -1.9335    0.0000 C   0  0  0  0  0  0  0  0  0
    3.6846   -1.3204    0.0000 C   0  0  0  0  0  0  0  0  0
    3.9395   -0.5358    0.0000 C   0  0  0  0  0  0  0  0  0
    4.7465   -0.3642    0.0000 C   0  0  0  0  0  0  0  0  0
    5.2985   -0.9773    0.0000 C   0  0  0  0  0  0  0  0  0
    3.3875    0.0773    0.0000 C   0  0  0  0  0  0  0  0  0
    3.6425    0.8619    0.0000 N   0  0  0  0  0  0  0  0  0
    4.4271    1.1169    0.0000 C   0  0  0  0  0  0  0  0  0
    4.4271    1.9419    0.0000 C   0  0  0  0  0  0  0  0  0
    3.6425    2.1968    0.0000 N   0  0  0  0  0  0  0  0  0
    3.1575    1.5294    0.0000 C   0  0  0  0  0  0  0  0  0
    2.3325    1.5294    0.0000 N   0  0  0  0  0  0  0  0  0
    1.8476    0.8619    0.0000 C   0  0  0  0  0  0  0  0  0
    1.0630    1.1169    0.0000 C   0  0  0  0  0  0  0  0  0
    0.3955    0.6320    0.0000 N   0  0  0  0  0  0  0  0  0
    0.4818   -0.1885    0.0000 C   0  0  0  0  0  0  0  0  0
   -0.3581    0.9675    0.0000 C   0  0  0  0  0  0  0  0  0
    1.0630    1.9419    0.0000 C   0  0  0  0  0  0  0  0  0
    1.8476    2.1968    0.0000 C   0  0  0  0  0  0  0  0  0
    5.1415    2.3544    0.0000 C   0  0  0  0  0  0  0  0  0
    5.8560    1.9419    0.0000 C   0  0  0  0  0  0  0  0  0
    5.8560    1.1169    0.0000 C   0  0  0  0  0  0  0  0  0
    5.1415    0.7044    0.0000 C   0  0  0  0  0  0  0  0  0
  1  2  1  0  0  0  0
  1  3  1  0  0  0  0
  3  4  4  0  0  0  0
  3  8  4  0  0  0  0
  4  5  4  0  0  0  0
  5  6  4  0  0  0  0
  6  7  4  0  0  0  0
  6  9  1  0  0  0  0
  7  8  4  0  0  0  0
  9 10  1  0  0  0  0
 10 11  4  0  0  0  0
 10 14  4  0  0  0  0
 11 12  4  0  0  0  0
 11 26  4  0  0  0  0
 12 13  4  0  0  0  0
 12 23  4  0  0  0  0
 13 14  4  0  0  0  0
 14 15  1  0  0  0  0
 15 16  1  0  0  0  0
 15 22  1  0  0  0  0
 16 17  1  0  0  0  0
 17 18  1  0  0  0  0
 17 21  1  0  0  0  0
 18 19  1  0  0  0  0
 18 20  1  0  0  0  0
 21 22  1  0  0  0  0
 23 24  4  0  0  0  0
 24 25  4  0  0  0  0
 25 26  4  0  0  0  0
M  END
>  <Name_Molregno>
629816

>  <HISTAMINE H1>
8.08

>  <Muscarinic acetylcholine receptor M1>
5.6

$$$$
629817
  Marvin  02231216192D 0   1.00000     0.00000     0

 22 24  0  0  1  0  0  0  0  0999 V2000
   -0.3620   -2.2979    0.0000 O   0  0  0  0  0  0  0  0  0
   -1.0764   -1.8854    0.0000 C   0  0  0  0  0  0  0  0  0
   -1.0764   -1.0604    0.0000 C   0  0  0  0  0  0  0  0  0
   -1.7909   -0.6479    0.0000 N   0  0  0  0  0  0  0  0  0
   -1.8771    0.1725    0.0000 C   0  0  0  0  0  0  0  0  0
   -2.6841    0.3441    0.0000 C   0  0  0  0  0  0  0  0  0
   -3.0966   -0.3704    0.0000 N   0  0  0  0  0  0  0  0  0
   -2.5446   -0.9835    0.0000 C   0  0  0  0  0  0  0  0  0
   -2.7161   -1.7905    0.0000 N   0  0  0  0  0  0  0  0  0
   -2.1641   -2.4036    0.0000 C   0  0  0  0  0  0  0  0  0
   -2.5766   -3.1180    0.0000 C   0  0  0  0  0  0  0  0  0
   -2.2410   -3.8717    0.0000 N   0  0  0  0  0  0  0  0  0
   -2.7259   -4.5391    0.0000 C   0  0  0  0  0  0  0  0  0
   -1.4205   -3.9579    0.0000 C   0  0  0  0  0  0  0  0  0
   -3.3835   -2.9465    0.0000 C   0  0  0  0  0  0  0  0  0
   -3.4698   -2.1260    0.0000 C   0  0  0  0  0  0  0  0  0
   -2.9390    1.1287    0.0000 C   0  0  0  0  0  0  0  0  0
   -2.3870    1.7418    0.0000 C   0  0  0  0  0  0  0  0  0
   -1.5800    1.5703    0.0000 C   0  0  0  0  0  0  0  0  0
   -1.3251    0.7856    0.0000 C   0  0  0  0  0  0  0  0  0
    0.3525   -1.8854    0.0000 C   0  0  0  0  0  0  0  0  0
    0.3525   -1.0604    0.0000 C   0  0  0  0  0  0  0  0  0
  1  2  1  0  0  0  0
  1 21  1  0  0  0  0
  2  3  1  0  0  0  0
  3  4  1  0  0  0  0
  4  5  4  0  0  0  0
  4  8  4  0  0  0  0
  5  6  4  0  0  0  0
  5 20  4  0  0  0  0
  6  7  4  0  0  0  0
  6 17  4  0  0  0  0
  7  8  4  0  0  0  0
  8  9  1  0  0  0  0
  9 10  1  0  0  0  0
  9 16  1  0  0  0  0
 10 11  1  0  0  0  0
 11 12  1  0  0  0  0
 11 15  1  0  0  0  0
 12 13  1  0  0  0  0
 12 14  1  0  0  0  0
 15 16  1  0  0  0  0
 17 18  4  0  0  0  0
 18 19  4  0  0  0  0
 19 20  4  0  0  0  0
 21 22  1  0  0  0  0
M  END
>  <Name_Molregno>
629817

>  <HISTAMINE H1>
8.32

>  <Muscarinic acetylcholine receptor M1>
5.82

$$$$
650522
  Marvin  02231216192D 0   1.00000     0.00000     0

 22 24  0  0  0  0  0  0  0  0999 V2000
    0.5933    2.6213    0.0000 F   0  0  0  0  0  0  0  0  0
    1.3078    2.2088    0.0000 C   0  0  0  0  0  0  0  0  0
    0.8953    1.4943    0.0000 F   0  0  0  0  0  0  0  0  0
    1.7203    2.9232    0.0000 F   0  0  0  0  0  0  0  0  0
    2.0222    1.7963    0.0000 C   0  0  0  0  0  0  0  0  0
    2.7367    2.2088    0.0000 C   0  0  0  0  0  0  0  0  0
    3.4512    1.7963    0.0000 C   0  0  0  0  0  0  0  0  0
    3.4512    0.9713    0.0000 C   0  0  0  0  0  0  0  0  0
    4.1657    0.5588    0.0000 N   0  0  0  0  0  0  0  0  0
    4.8801    0.9713    0.0000 C   0  0  0  0  0  0  0  0  0
    5.5946    0.5588    0.0000 C   0  0  0  0  0  0  0  0  0
    5.5946   -0.2662    0.0000 C   0  0  0  0  0  0  0  0  0
    4.8801   -0.6787    0.0000 C   0  0  0  0  0  0  0  0  0
    4.1657   -0.2662    0.0000 C   0  0  0  0  0  0  0  0  0
    6.3091   -0.6787    0.0000 C   0  0  0  0  0  0  0  0  0
    6.3091   -1.5037    0.0000 C   0  0  0  0  0  0  0  0  0
    6.9765   -1.9887    0.0000 N   0  0  0  0  0  0  0  0  0
    6.7216   -2.7733    0.0000 C   0  0  0  0  0  0  0  0  0
    5.8966   -2.7733    0.0000 N   0  0  0  0  0  0  0  0  0
    5.6416   -1.9887    0.0000 C   0  0  0  0  0  0  0  0  0
    2.7367    0.5588    0.0000 C   0  0  0  0  0  0  0  0  0
    2.0222    0.9713    0.0000 C   0  0  0  0  0  0  0  0  0
  1  2  1  0  0  0  0
  2  3  1  0  0  0  0
  2  4  1  0  0  0  0
  2  5  1  0  0  0  0
  5  6  4  0  0  0  0
  5 22  4  0  0  0  0
  6  7  4  0  0  0  0
  7  8  4  0  0  0  0
  8  9  1  0  0  0  0
  8 21  4  0  0  0  0
  9 10  1  0  0  0  0
  9 14  1  0  0  0  0
 10 11  1  0  0  0  0
 11 12  1  0  0  0  0
 12 13  1  0  0  0  0
 12 15  1  0  0  0  0
 13 14  1  0  0  0  0
 15 16  1  0  0  0  0
 16 17  4  0  0  0  0
 16 20  4  0  0  0  0
 17 18  4  0  0  0  0
 18 19  4  0  0  0  0
 19 20  4  0  0  0  0
 21 22  4  0  0  0  0
M  STY  1   1 DAT
M  SAL   1  1  19
M  SDT   1 MRV_IMPLICIT_H                                        
M  SDD   1     0.0000    0.0000    DR    ALL  0       0  
M  SED   1 IMPL_H1
M  END
>  <Name_Molregno>
650522

>  <HISTAMINE H1>
6

>  <HISTAMINE H2>
6

>  <HISTAMINE H3>
8.74

>  <HISTAMINE H4>
6.67

$$$$
650960
  Marvin  02231216192D 0   1.00000     0.00000     0

 20 22  0  0  0  0  0  0  0  0999 V2000
   -6.5038    2.4469    0.0000 O   0  0  0  0  0  0  0  0  0
   -7.2183    2.0344    0.0000 C   0  0  0  0  0  0  0  0  0
   -5.7893    2.0344    0.0000 C   0  0  0  0  0  0  0  0  0
   -5.0749    2.4469    0.0000 C   0  0  0  0  0  0  0  0  0
   -4.3604    2.0344    0.0000 C   0  0  0  0  0  0  0  0  0
   -4.3604    1.2094    0.0000 C   0  0  0  0  0  0  0  0  0
   -3.6459    0.7969    0.0000 N   0  0  0  0  0  0  0  0  0
   -2.9314    1.2094    0.0000 C   0  0  0  0  0  0  0  0  0
   -2.2170    0.7969    0.0000 C   0  0  0  0  0  0  0  0  0
   -2.2170   -0.0281    0.0000 C   0  0  0  0  0  0  0  0  0
   -2.9314   -0.4406    0.0000 C   0  0  0  0  0  0  0  0  0
   -3.6459   -0.0281    0.0000 C   0  0  0  0  0  0  0  0  0
   -1.5025   -0.4406    0.0000 C   0  0  0  0  0  0  0  0  0
   -1.5025   -1.2656    0.0000 C   0  0  0  0  0  0  0  0  0
   -0.8351   -1.7505    0.0000 N   0  0  0  0  0  0  0  0  0
   -1.0900   -2.5352    0.0000 C   0  0  0  0  0  0  0  0  0
   -1.9150   -2.5352    0.0000 N   0  0  0  0  0  0  0  0  0
   -2.1699   -1.7505    0.0000 C   0  0  0  0  0  0  0  0  0
   -5.0749    0.7969    0.0000 C   0  0  0  0  0  0  0  0  0
   -5.7893    1.2094    0.0000 C   0  0  0  0  0  0  0  0  0
  1  2  1  0  0  0  0
  1  3  1  0  0  0  0
  3  4  4  0  0  0  0
  3 20  4  0  0  0  0
  4  5  4  0  0  0  0
  5  6  4  0  0  0  0
  6  7  1  0  0  0  0
  6 19  4  0  0  0  0
  7  8  1  0  0  0  0
  7 12  1  0  0  0  0
  8  9  1  0  0  0  0
  9 10  1  0  0  0  0
 10 11  1  0  0  0  0
 10 13  1  0  0  0  0
 11 12  1  0  0  0  0
 13 14  1  0  0  0  0
 14 15  4  0  0  0  0
 14 18  4  0  0  0  0
 15 16  4  0  0  0  0
 16 17  4  0  0  0  0
 17 18  4  0  0  0  0
 19 20  4  0  0  0  0
M  STY  1   1 DAT
M  SAL   1  1  17
M  SDT   1 MRV_IMPLICIT_H                                        
M  SDD   1     0.0000    0.0000    DR    ALL  0       0  
M  SED   1 IMPL_H1
M  END
>  <Name_Molregno>
650960

>  <HISTAMINE H1>
6

>  <HISTAMINE H2>
6

>  <HISTAMINE H3>
8.27

>  <HISTAMINE H4>
5.51

$$$$
688989
  Marvin  02231216192D 0   1.00000     0.00000     0

 20 23  0  0  0  0  0  0  0  0999 V2000
    0.9335    0.0052    0.0000 N   0  0  0  0  0  0  0  0  0
    1.1261   -0.7970    0.0000 C   0  0  0  0  0  0  0  0  0
    1.9485   -0.8618    0.0000 N   0  0  0  0  0  0  0  0  0
    2.2643   -0.0996    0.0000 C   0  0  0  0  0  0  0  0  0
    1.6370    0.4362    0.0000 C   0  0  0  0  0  0  0  0  0
    0.6190   -1.4477    0.0000 C   0  0  0  0  0  0  0  0  0
    0.9852   -2.1870    0.0000 N   0  0  0  0  0  0  0  0  0
    1.8085   -2.2394    0.0000 C   0  0  0  0  0  0  0  0  0
    2.1748   -2.9787    0.0000 C   0  0  0  0  0  0  0  0  0
    1.7177   -3.6655    0.0000 N   0  0  0  0  0  0  0  0  0
    0.8943   -3.6130    0.0000 C   0  0  0  0  0  0  0  0  0
    0.5281   -2.8738    0.0000 C   0  0  0  0  0  0  0  0  0
   -0.2060   -1.4570    0.0000 C   0  0  0  0  0  0  0  0  0
   -0.7276   -0.8177    0.0000 C   0  0  0  0  0  0  0  0  0
   -0.5530   -0.0114    0.0000 C   0  0  0  0  0  0  0  0  0
    0.1863    0.3548    0.0000 C   0  0  0  0  0  0  0  0  0
   -1.1640    0.5429    0.0000 C   0  0  0  0  0  0  0  0  0
   -1.9496    0.2910    0.0000 C   0  0  0  0  0  0  0  0  0
   -2.1241   -0.5154    0.0000 C   0  0  0  0  0  0  0  0  0
   -1.5131   -1.0697    0.0000 C   0  0  0  0  0  0  0  0  0
  1  2  4  0  0  0  0
  1  5  4  0  0  0  0
  1 16  1  0  0  0  0
  2  3  4  0  0  0  0
  2  6  1  0  0  0  0
  3  4  4  0  0  0  0
  4  5  4  0  0  0  0
  6  7  1  0  0  0  0
  6 13  2  0  0  0  0
  7  8  1  0  0  0  0
  7 12  1  0  0  0  0
  8  9  1  0  0  0  0
  9 10  1  0  0  0  0
 10 11  1  0  0  0  0
 11 12  1  0  0  0  0
 13 14  1  0  0  0  0
 14 15  4  0  0  0  0
 14 20  4  0  0  0  0
 15 16  1  0  0  0  0
 15 17  4  0  0  0  0
 17 18  4  0  0  0  0
 18 19  4  0  0  0  0
 19 20  4  0  0  0  0
M  END
>  <Name_Molregno>
688989

>  <5-HT2A>
8.1

>  <5-HT2C>
7.7

>  <Alpha-1A>
8.4

>  <Alpha-1B>
8.5

>  <HISTAMINE H1>
9.2

$$$$
688990
  Marvin  02231216192D 0   1.00000     0.00000     0

 25 28  0  0  0  0  0  0  0  0999 V2000
    5.1076    5.5208    0.0000 O   0  0  0  0  0  0  0  0  0
    5.5647    4.8340    0.0000 C   0  0  0  0  0  0  0  0  0
    6.3880    4.8864    0.0000 O   0  0  0  0  0  0  0  0  0
    5.1985    4.0947    0.0000 C   0  0  0  0  0  0  0  0  0
    5.6556    3.4079    0.0000 C   0  0  0  0  0  0  0  0  0
    5.2893    2.6687    0.0000 N   0  0  0  0  0  0  0  0  0
    5.7464    1.9819    0.0000 C   0  0  0  0  0  0  0  0  0
    5.3802    1.2426    0.0000 C   0  0  0  0  0  0  0  0  0
    4.5568    1.1902    0.0000 N   0  0  0  0  0  0  0  0  0
    4.0997    1.8770    0.0000 C   0  0  0  0  0  0  0  0  0
    4.4660    2.6162    0.0000 C   0  0  0  0  0  0  0  0  0
    4.1906    0.4509    0.0000 C   0  0  0  0  0  0  0  0  0
    4.6977   -0.1998    0.0000 C   0  0  0  0  0  0  0  0  0
    4.5052   -1.0020    0.0000 N   0  0  0  0  0  0  0  0  0
    3.7579   -1.3516    0.0000 C   0  0  0  0  0  0  0  0  0
    3.0187   -0.9854    0.0000 C   0  0  0  0  0  0  0  0  0
    2.8441   -0.1791    0.0000 C   0  0  0  0  0  0  0  0  0
    3.3656    0.4601    0.0000 C   0  0  0  0  0  0  0  0  0
    2.0585    0.0729    0.0000 C   0  0  0  0  0  0  0  0  0
    1.4475   -0.4815    0.0000 C   0  0  0  0  0  0  0  0  0
    1.6221   -1.2878    0.0000 C   0  0  0  0  0  0  0  0  0
    2.4077   -1.5398    0.0000 C   0  0  0  0  0  0  0  0  0
    5.2086   -1.4331    0.0000 C   0  0  0  0  0  0  0  0  0
    5.8359   -0.8972    0.0000 C   0  0  0  0  0  0  0  0  0
    5.5202   -0.1351    0.0000 N   0  0  0  0  0  0  0  0  0
  1  2  1  0  0  0  0
  2  3  2  0  0  0  0
  2  4  1  0  0  0  0
  4  5  1  0  0  0  0
  5  6  1  0  0  0  0
  6  7  1  0  0  0  0
  6 11  1  0  0  0  0
  7  8  1  0  0  0  0
  8  9  1  0  0  0  0
  9 10  1  0  0  0  0
  9 12  1  0  0  0  0
 10 11  1  0  0  0  0
 12 13  1  0  0  0  0
 12 18  2  0  0  0  0
 13 14  4  0  0  0  0
 13 25  4  0  0  0  0
 14 15  1  0  0  0  0
 14 23  4  0  0  0  0
 15 16  1  0  0  0  0
 16 17  4  0  0  0  0
 16 22  4  0  0  0  0
 17 18  1  0  0  0  0
 17 19  4  0  0  0  0
 19 20  4  0  0  0  0
 20 21  4  0  0  0  0
 21 22  4  0  0  0  0
 23 24  4  0  0  0  0
 24 25  4  0  0  0  0
M  END
>  <Name_Molregno>
688990

>  <5-HT2A>
6.5

>  <5-HT2C>
6.1

>  <HISTAMINE H1>
7.3

$$$$
688991
  Marvin  02231216192D 0   1.00000     0.00000     0

 27 30  0  0  0  0  0  0  0  0999 V2000
    4.9506    3.2046    0.0000 O   0  0  0  0  0  0  0  0  0
    4.5843    2.4654    0.0000 C   0  0  0  0  0  0  0  0  0
    3.7610    2.4129    0.0000 O   0  0  0  0  0  0  0  0  0
    5.0414    1.7786    0.0000 C   0  0  0  0  0  0  0  0  0
    5.4985    1.0918    0.0000 C   0  0  0  0  0  0  0  0  0
    5.1323    0.3525    0.0000 N   0  0  0  0  0  0  0  0  0
    5.5894   -0.3343    0.0000 C   0  0  0  0  0  0  0  0  0
    5.2231   -1.0735    0.0000 C   0  0  0  0  0  0  0  0  0
    4.3998   -1.1260    0.0000 N   0  0  0  0  0  0  0  0  0
    3.9427   -0.4392    0.0000 C   0  0  0  0  0  0  0  0  0
    4.3090    0.3001    0.0000 C   0  0  0  0  0  0  0  0  0
    4.0336   -1.8652    0.0000 C   0  0  0  0  0  0  0  0  0
    4.5407   -2.5160    0.0000 C   0  0  0  0  0  0  0  0  0
    4.3481   -3.3182    0.0000 N   0  0  0  0  0  0  0  0  0
    3.6009   -3.6678    0.0000 C   0  0  0  0  0  0  0  0  0
    2.8616   -3.3016    0.0000 C   0  0  0  0  0  0  0  0  0
    2.6871   -2.4952    0.0000 C   0  0  0  0  0  0  0  0  0
    3.2086   -1.8560    0.0000 C   0  0  0  0  0  0  0  0  0
    1.9015   -2.2433    0.0000 C   0  0  0  0  0  0  0  0  0
    1.2905   -2.7976    0.0000 C   0  0  0  0  0  0  0  0  0
    1.4651   -3.6039    0.0000 C   0  0  0  0  0  0  0  0  0
    2.2506   -3.8559    0.0000 C   0  0  0  0  0  0  0  0  0
    5.0516   -3.7492    0.0000 C   0  0  0  0  0  0  0  0  0
    5.6789   -3.2134    0.0000 C   0  0  0  0  0  0  0  0  0
    5.3632   -2.4512    0.0000 N   0  0  0  0  0  0  0  0  0
    4.3546    1.3215    0.0000 C   0  0  0  0  0  0  0  0  0
    5.7282    2.2356    0.0000 C   0  0  0  0  0  0  0  0  0
  1  2  1  0  0  0  0
  2  3  2  0  0  0  0
  2  4  1  0  0  0  0
  4  5  1  0  0  0  0
  4 26  1  0  0  0  0
  4 27  1  0  0  0  0
  5  6  1  0  0  0  0
  6  7  1  0  0  0  0
  6 11  1  0  0  0  0
  7  8  1  0  0  0  0
  8  9  1  0  0  0  0
  9 10  1  0  0  0  0
  9 12  1  0  0  0  0
 10 11  1  0  0  0  0
 12 13  1  0  0  0  0
 12 18  2  0  0  0  0
 13 14  4  0  0  0  0
 13 25  4  0  0  0  0
 14 15  1  0  0  0  0
 14 23  4  0  0  0  0
 15 16  1  0  0  0  0
 16 17  4  0  0  0  0
 16 22  4  0  0  0  0
 17 18  1  0  0  0  0
 17 19  4  0  0  0  0
 19 20  4  0  0  0  0
 20 21  4  0  0  0  0
 21 22  4  0  0  0  0
 23 24  4  0  0  0  0
 24 25  4  0  0  0  0
M  END
>  <Name_Molregno>
688991

>  <5-HT2A>
7.1

>  <5-HT2C>
7.3

>  <HISTAMINE H1>
7.6

$$$$
689061
  Marvin  02231216192D 0   1.00000     0.00000     0

 28 31  0  0  0  0  0  0  0  0999 V2000
   -1.8263    3.4140    0.0000 O   0  0  0  0  0  0  0  0  0
   -1.8356    2.5891    0.0000 C   0  0  0  0  0  0  0  0  0
   -1.1257    2.1686    0.0000 O   0  0  0  0  0  0  0  0  0
   -2.5546    2.1846    0.0000 C   0  0  0  0  0  0  0  0  0
   -3.2736    1.7801    0.0000 C   0  0  0  0  0  0  0  0  0
   -3.2829    0.9552    0.0000 N   0  0  0  0  0  0  0  0  0
   -2.5436    0.5889    0.0000 C   0  0  0  0  0  0  0  0  0
   -2.3690   -0.2174    0.0000 C   0  0  0  0  0  0  0  0  0
   -2.8906   -0.8566    0.0000 C   0  0  0  0  0  0  0  0  0
   -3.7155   -0.8474    0.0000 N   0  0  0  0  0  0  0  0  0
   -4.2227   -0.1967    0.0000 C   0  0  0  0  0  0  0  0  0
   -4.0301    0.6055    0.0000 C   0  0  0  0  0  0  0  0  0
   -4.0818   -1.5866    0.0000 C   0  0  0  0  0  0  0  0  0
   -3.5746   -2.2374    0.0000 C   0  0  0  0  0  0  0  0  0
   -3.7672   -3.0396    0.0000 N   0  0  0  0  0  0  0  0  0
   -4.5145   -3.3892    0.0000 C   0  0  0  0  0  0  0  0  0
   -5.2537   -3.0230    0.0000 C   0  0  0  0  0  0  0  0  0
   -5.4283   -2.2166    0.0000 C   0  0  0  0  0  0  0  0  0
   -4.9067   -1.5774    0.0000 C   0  0  0  0  0  0  0  0  0
   -6.2139   -1.9647    0.0000 C   0  0  0  0  0  0  0  0  0
   -6.8249   -2.5190    0.0000 C   0  0  0  0  0  0  0  0  0
   -6.6503   -3.3253    0.0000 C   0  0  0  0  0  0  0  0  0
   -5.8647   -3.5773    0.0000 C   0  0  0  0  0  0  0  0  0
   -3.0638   -3.4706    0.0000 C   0  0  0  0  0  0  0  0  0
   -2.4364   -2.9348    0.0000 C   0  0  0  0  0  0  0  0  0
   -2.7522   -2.1726    0.0000 N   0  0  0  0  0  0  0  0  0
   -2.9591    2.9036    0.0000 C   0  0  0  0  0  0  0  0  0
   -2.1501    1.4656    0.0000 C   0  0  0  0  0  0  0  0  0
  1  2  1  0  0  0  0
  2  3  2  0  0  0  0
  2  4  1  0  0  0  0
  4  5  1  0  0  0  0
  4 27  1  0  0  0  0
  4 28  1  0  0  0  0
  5  6  1  0  0  0  0
  6  7  1  0  0  0  0
  6 12  1  0  0  0  0
  7  8  1  0  0  0  0
  8  9  1  0  0  0  0
  9 10  1  0  0  0  0
 10 11  1  0  0  0  0
 10 13  1  0  0  0  0
 11 12  1  0  0  0  0
 13 14  1  0  0  0  0
 13 19  2  0  0  0  0
 14 15  4  0  0  0  0
 14 26  4  0  0  0  0
 15 16  1  0  0  0  0
 15 24  4  0  0  0  0
 16 17  1  0  0  0  0
 17 18  4  0  0  0  0
 17 23  4  0  0  0  0
 18 19  1  0  0  0  0
 18 20  4  0  0  0  0
 20 21  4  0  0  0  0
 21 22  4  0  0  0  0
 22 23  4  0  0  0  0
 24 25  4  0  0  0  0
 25 26  4  0  0  0  0
M  END
>  <Name_Molregno>
689061

>  <5-HT2A>
5.3

>  <5-HT2C>
5.7

>  <HISTAMINE H1>
7.3

$$$$
689062
  Marvin  02231216192D 0   1.00000     0.00000     0

 27 30  0  0  1  0  0  0  0  0999 V2000
   -3.4047    4.2700    0.0000 O   0  0  0  0  0  0  0  0  0
   -2.9476    3.5832    0.0000 C   0  0  0  0  0  0  0  0  0
   -2.1242    3.6357    0.0000 O   0  0  0  0  0  0  0  0  0
   -3.3138    2.8440    0.0000 C   0  0  0  0  0  0  0  0  0
   -2.8567    2.1572    0.0000 C   0  0  0  0  0  0  0  0  0
   -3.2230    1.4179    0.0000 N   0  0  0  0  0  0  0  0  0
   -2.7659    0.7311    0.0000 C   0  0  0  0  0  0  0  0  0
   -3.1321   -0.0081    0.0000 C   0  0  0  0  0  0  0  0  0
   -3.9554   -0.0606    0.0000 N   0  0  0  0  0  0  0  0  0
   -4.4125    0.6262    0.0000 C   0  0  0  0  0  0  0  0  0
   -4.0463    1.3655    0.0000 C   0  0  0  0  0  0  0  0  0
   -4.5034    2.0523    0.0000 C   0  0  0  0  0  0  0  0  0
   -4.3217   -0.7998    0.0000 C   0  0  0  0  0  0  0  0  0
   -3.8146   -1.4505    0.0000 C   0  0  0  0  0  0  0  0  0
   -4.0071   -2.2527    0.0000 N   0  0  0  0  0  0  0  0  0
   -4.7544   -2.6024    0.0000 C   0  0  0  0  0  0  0  0  0
   -5.4936   -2.2361    0.0000 C   0  0  0  0  0  0  0  0  0
   -5.6682   -1.4298    0.0000 C   0  0  0  0  0  0  0  0  0
   -5.1466   -0.7906    0.0000 C   0  0  0  0  0  0  0  0  0
   -6.4538   -1.1778    0.0000 C   0  0  0  0  0  0  0  0  0
   -7.0648   -1.7322    0.0000 C   0  0  0  0  0  0  0  0  0
   -6.8902   -2.5385    0.0000 C   0  0  0  0  0  0  0  0  0
   -6.1046   -2.7905    0.0000 C   0  0  0  0  0  0  0  0  0
   -3.3037   -2.6838    0.0000 C   0  0  0  0  0  0  0  0  0
   -2.6764   -2.1480    0.0000 C   0  0  0  0  0  0  0  0  0
   -2.9921   -1.3858    0.0000 N   0  0  0  0  0  0  0  0  0
   -1.9425    0.7836    0.0000 C   0  0  0  0  0  0  0  0  0
  1  2  1  0  0  0  0
  2  3  2  0  0  0  0
  2  4  1  0  0  0  0
  4  5  1  0  0  0  0
  5  6  1  0  0  0  0
  6  7  1  0  0  0  0
  6 11  1  0  0  0  0
  7  8  1  0  0  0  0
  7 27  1  0  0  0  0
  8  9  1  0  0  0  0
  9 10  1  0  0  0  0
  9 13  1  0  0  0  0
 10 11  1  0  0  0  0
 11 12  1  0  0  0  0
 13 14  1  0  0  0  0
 13 19  2  0  0  0  0
 14 15  4  0  0  0  0
 14 26  4  0  0  0  0
 15 16  1  0  0  0  0
 15 24  4  0  0  0  0
 16 17  1  0  0  0  0
 17 18  4  0  0  0  0
 17 23  4  0  0  0  0
 18 19  1  0  0  0  0
 18 20  4  0  0  0  0
 20 21  4  0  0  0  0
 21 22  4  0  0  0  0
 22 23  4  0  0  0  0
 24 25  4  0  0  0  0
 25 26  4  0  0  0  0
M  END
>  <Name_Molregno>
689062

>  <5-HT2A>
7.4

>  <5-HT2C>
6.8

>  <HISTAMINE H1>
7.7

$$$$
689063
  Marvin  02231216192D 0   1.00000     0.00000     0

 26 29  0  0  0  0  0  0  0  0999 V2000
    4.9811    5.4437    0.0000 O   0  0  0  0  0  0  0  0  0
    5.4382    4.7569    0.0000 C   0  0  0  0  0  0  0  0  0
    6.2615    4.8093    0.0000 O   0  0  0  0  0  0  0  0  0
    5.0719    4.0176    0.0000 C   0  0  0  0  0  0  0  0  0
    5.5290    3.3308    0.0000 C   0  0  0  0  0  0  0  0  0
    5.1628    2.5916    0.0000 N   0  0  0  0  0  0  0  0  0
    5.6199    1.9048    0.0000 C   0  0  0  0  0  0  0  0  0
    5.2536    1.1655    0.0000 C   0  0  0  0  0  0  0  0  0
    4.4303    1.1131    0.0000 N   0  0  0  0  0  0  0  0  0
    3.9732    1.7999    0.0000 C   0  0  0  0  0  0  0  0  0
    4.3394    2.5391    0.0000 C   0  0  0  0  0  0  0  0  0
    4.0640    0.3738    0.0000 C   0  0  0  0  0  0  0  0  0
    4.5712   -0.2769    0.0000 C   0  0  0  0  0  0  0  0  0
    4.3786   -1.0791    0.0000 N   0  0  0  0  0  0  0  0  0
    3.6314   -1.4287    0.0000 C   0  0  0  0  0  0  0  0  0
    2.8921   -1.0625    0.0000 C   0  0  0  0  0  0  0  0  0
    2.7175   -0.2562    0.0000 C   0  0  0  0  0  0  0  0  0
    3.2391    0.3830    0.0000 C   0  0  0  0  0  0  0  0  0
    1.9320   -0.0042    0.0000 C   0  0  0  0  0  0  0  0  0
    1.3210   -0.5586    0.0000 C   0  0  0  0  0  0  0  0  0
    1.4955   -1.3649    0.0000 C   0  0  0  0  0  0  0  0  0
    2.2811   -1.6168    0.0000 C   0  0  0  0  0  0  0  0  0
    5.0821   -1.5102    0.0000 C   0  0  0  0  0  0  0  0  0
    5.7094   -0.9743    0.0000 C   0  0  0  0  0  0  0  0  0
    5.3936   -0.2121    0.0000 N   0  0  0  0  0  0  0  0  0
    4.2486    3.9652    0.0000 C   0  0  0  0  0  0  0  0  0
  1  2  1  0  0  0  0
  2  3  2  0  0  0  0
  2  4  1  0  0  0  0
  4  5  1  0  0  0  0
  4 26  2  0  0  0  0
  5  6  1  0  0  0  0
  6  7  1  0  0  0  0
  6 11  1  0  0  0  0
  7  8  1  0  0  0  0
  8  9  1  0  0  0  0
  9 10  1  0  0  0  0
  9 12  1  0  0  0  0
 10 11  1  0  0  0  0
 12 13  1  0  0  0  0
 12 18  2  0  0  0  0
 13 14  4  0  0  0  0
 13 25  4  0  0  0  0
 14 15  1  0  0  0  0
 14 23  4  0  0  0  0
 15 16  1  0  0  0  0
 16 17  4  0  0  0  0
 16 22  4  0  0  0  0
 17 18  1  0  0  0  0
 17 19  4  0  0  0  0
 19 20  4  0  0  0  0
 20 21  4  0  0  0  0
 21 22  4  0  0  0  0
 23 24  4  0  0  0  0
 24 25  4  0  0  0  0
M  END
>  <Name_Molregno>
689063

>  <5-HT2A>
6.7

>  <5-HT2C>
6.3

>  <HISTAMINE H1>
7.5

$$$$
689064
  Marvin  02231216192D 0   1.00000     0.00000     0

 27 31  0  0  0  0  0  0  0  0999 V2000
   -3.1469    3.9327    0.0000 O   0  0  0  0  0  0  0  0  0
   -2.6898    3.2459    0.0000 C   0  0  0  0  0  0  0  0  0
   -1.8665    3.2983    0.0000 O   0  0  0  0  0  0  0  0  0
   -3.0561    2.5066    0.0000 C   0  0  0  0  0  0  0  0  0
   -2.7923    1.7249    0.0000 C   0  0  0  0  0  0  0  0  0
   -3.5740    1.4612    0.0000 C   0  0  0  0  0  0  0  0  0
   -3.9403    0.7219    0.0000 N   0  0  0  0  0  0  0  0  0
   -3.4832    0.0351    0.0000 C   0  0  0  0  0  0  0  0  0
   -3.8494   -0.7041    0.0000 C   0  0  0  0  0  0  0  0  0
   -4.6727   -0.7566    0.0000 N   0  0  0  0  0  0  0  0  0
   -5.1298   -0.0698    0.0000 C   0  0  0  0  0  0  0  0  0
   -4.7636    0.6695    0.0000 C   0  0  0  0  0  0  0  0  0
   -5.0390   -1.4958    0.0000 C   0  0  0  0  0  0  0  0  0
   -4.5318   -2.1465    0.0000 C   0  0  0  0  0  0  0  0  0
   -4.7244   -2.9488    0.0000 N   0  0  0  0  0  0  0  0  0
   -5.4717   -3.2984    0.0000 C   0  0  0  0  0  0  0  0  0
   -6.2109   -2.9321    0.0000 C   0  0  0  0  0  0  0  0  0
   -6.3855   -2.1258    0.0000 C   0  0  0  0  0  0  0  0  0
   -5.8639   -1.4866    0.0000 C   0  0  0  0  0  0  0  0  0
   -7.1711   -1.8739    0.0000 C   0  0  0  0  0  0  0  0  0
   -7.7821   -2.4282    0.0000 C   0  0  0  0  0  0  0  0  0
   -7.6075   -3.2345    0.0000 C   0  0  0  0  0  0  0  0  0
   -6.8219   -3.4865    0.0000 C   0  0  0  0  0  0  0  0  0
   -4.0210   -3.3798    0.0000 C   0  0  0  0  0  0  0  0  0
   -3.3936   -2.8440    0.0000 C   0  0  0  0  0  0  0  0  0
   -3.7094   -2.0818    0.0000 N   0  0  0  0  0  0  0  0  0
   -3.8378    2.2429    0.0000 C   0  0  0  0  0  0  0  0  0
  1  2  1  0  0  0  0
  2  3  2  0  0  0  0
  2  4  1  0  0  0  0
  4  5  1  0  0  0  0
  4 27  1  0  0  0  0
  5  6  1  0  0  0  0
  6  7  1  0  0  0  0
  6 27  1  0  0  0  0
  7  8  1  0  0  0  0
  7 12  1  0  0  0  0
  8  9  1  0  0  0  0
  9 10  1  0  0  0  0
 10 11  1  0  0  0  0
 10 13  1  0  0  0  0
 11 12  1  0  0  0  0
 13 14  1  0  0  0  0
 13 19  2  0  0  0  0
 14 15  4  0  0  0  0
 14 26  4  0  0  0  0
 15 16  1  0  0  0  0
 15 24  4  0  0  0  0
 16 17  1  0  0  0  0
 17 18  4  0  0  0  0
 17 23  4  0  0  0  0
 18 19  1  0  0  0  0
 18 20  4  0  0  0  0
 20 21  4  0  0  0  0
 21 22  4  0  0  0  0
 22 23  4  0  0  0  0
 24 25  4  0  0  0  0
 25 26  4  0  0  0  0
M  END
>  <Name_Molregno>
689064

>  <5-HT2A>
6.1

>  <5-HT2C>
6.1

>  <HISTAMINE H1>
7.75

$$$$
689131
  Marvin  02231216192D 0   1.00000     0.00000     0

 29 33  0  0  0  0  0  0  0  0999 V2000
   -3.2401    4.0653    0.0000 O   0  0  0  0  0  0  0  0  0
   -2.7830    3.3785    0.0000 C   0  0  0  0  0  0  0  0  0
   -1.9597    3.4309    0.0000 O   0  0  0  0  0  0  0  0  0
   -3.1493    2.6392    0.0000 C   0  0  0  0  0  0  0  0  0
   -2.6922    1.9524    0.0000 C   0  0  0  0  0  0  0  0  0
   -3.0584    1.2132    0.0000 C   0  0  0  0  0  0  0  0  0
   -3.8817    1.1607    0.0000 C   0  0  0  0  0  0  0  0  0
   -4.2480    0.4215    0.0000 N   0  0  0  0  0  0  0  0  0
   -3.7909   -0.2653    0.0000 C   0  0  0  0  0  0  0  0  0
   -4.1571   -1.0046    0.0000 C   0  0  0  0  0  0  0  0  0
   -4.9805   -1.0571    0.0000 N   0  0  0  0  0  0  0  0  0
   -5.4376   -0.3703    0.0000 C   0  0  0  0  0  0  0  0  0
   -5.0713    0.3690    0.0000 C   0  0  0  0  0  0  0  0  0
   -5.3467   -1.7963    0.0000 C   0  0  0  0  0  0  0  0  0
   -4.8396   -2.4470    0.0000 C   0  0  0  0  0  0  0  0  0
   -5.0321   -3.2492    0.0000 N   0  0  0  0  0  0  0  0  0
   -5.7794   -3.5989    0.0000 C   0  0  0  0  0  0  0  0  0
   -6.5186   -3.2326    0.0000 C   0  0  0  0  0  0  0  0  0
   -6.6932   -2.4263    0.0000 C   0  0  0  0  0  0  0  0  0
   -6.1717   -1.7871    0.0000 C   0  0  0  0  0  0  0  0  0
   -7.4788   -2.1743    0.0000 C   0  0  0  0  0  0  0  0  0
   -8.0898   -2.7287    0.0000 C   0  0  0  0  0  0  0  0  0
   -7.9152   -3.5350    0.0000 C   0  0  0  0  0  0  0  0  0
   -7.1296   -3.7870    0.0000 C   0  0  0  0  0  0  0  0  0
   -4.3287   -3.6803    0.0000 C   0  0  0  0  0  0  0  0  0
   -3.7014   -3.1444    0.0000 C   0  0  0  0  0  0  0  0  0
   -4.0171   -2.3823    0.0000 N   0  0  0  0  0  0  0  0  0
   -4.3388    1.8475    0.0000 C   0  0  0  0  0  0  0  0  0
   -3.9726    2.5868    0.0000 C   0  0  0  0  0  0  0  0  0
  1  2  1  0  0  0  0
  2  3  2  0  0  0  0
  2  4  1  0  0  0  0
  4  5  1  0  0  0  0
  4 29  1  0  0  0  0
  5  6  1  0  0  0  0
  6  7  1  0  0  0  0
  7  8  1  0  0  0  0
  7 28  1  0  0  0  0
  8  9  1  0  0  0  0
  8 13  1  0  0  0  0
  9 10  1  0  0  0  0
 10 11  1  0  0  0  0
 11 12  1  0  0  0  0
 11 14  1  0  0  0  0
 12 13  1  0  0  0  0
 14 15  1  0  0  0  0
 14 20  2  0  0  0  0
 15 16  4  0  0  0  0
 15 27  4  0  0  0  0
 16 17  1  0  0  0  0
 16 25  4  0  0  0  0
 17 18  1  0  0  0  0
 18 19  4  0  0  0  0
 18 24  4  0  0  0  0
 19 20  1  0  0  0  0
 19 21  4  0  0  0  0
 21 22  4  0  0  0  0
 22 23  4  0  0  0  0
 23 24  4  0  0  0  0
 25 26  4  0  0  0  0
 26 27  4  0  0  0  0
 28 29  1  0  0  0  0
M  END
>  <Name_Molregno>
689131

>  <5-HT2A>
6.25

>  <5-HT2C>
5.7

>  <HISTAMINE H1>
7.05

$$$$
689132
  Marvin  02231216192D 0   1.00000     0.00000     0

 29 32  0  0  0  0  0  0  0  0999 V2000
    5.0357    3.5058    0.0000 O   0  0  0  0  0  0  0  0  0
    4.6694    2.7666    0.0000 C   0  0  0  0  0  0  0  0  0
    3.8461    2.7141    0.0000 O   0  0  0  0  0  0  0  0  0
    5.1265    2.0798    0.0000 C   0  0  0  0  0  0  0  0  0
    5.5836    1.3930    0.0000 C   0  0  0  0  0  0  0  0  0
    5.2174    0.6537    0.0000 N   0  0  0  0  0  0  0  0  0
    5.6745   -0.0331    0.0000 C   0  0  0  0  0  0  0  0  0
    5.3082   -0.7723    0.0000 C   0  0  0  0  0  0  0  0  0
    4.4849   -0.8248    0.0000 N   0  0  0  0  0  0  0  0  0
    4.0278   -0.1380    0.0000 C   0  0  0  0  0  0  0  0  0
    4.3940    0.6013    0.0000 C   0  0  0  0  0  0  0  0  0
    4.1186   -1.5640    0.0000 C   0  0  0  0  0  0  0  0  0
    4.6258   -2.2147    0.0000 C   0  0  0  0  0  0  0  0  0
    4.4332   -3.0170    0.0000 N   0  0  0  0  0  0  0  0  0
    3.6860   -3.3666    0.0000 C   0  0  0  0  0  0  0  0  0
    2.9467   -3.0003    0.0000 C   0  0  0  0  0  0  0  0  0
    2.7721   -2.1940    0.0000 C   0  0  0  0  0  0  0  0  0
    3.2937   -1.5548    0.0000 C   0  0  0  0  0  0  0  0  0
    1.9866   -1.9420    0.0000 C   0  0  0  0  0  0  0  0  0
    1.3756   -2.4964    0.0000 C   0  0  0  0  0  0  0  0  0
    1.5501   -3.3027    0.0000 C   0  0  0  0  0  0  0  0  0
    2.3357   -3.5547    0.0000 C   0  0  0  0  0  0  0  0  0
    5.1367   -3.4480    0.0000 C   0  0  0  0  0  0  0  0  0
    5.2014   -4.2704    0.0000 C   0  0  0  0  0  0  0  0  0
    5.7640   -2.9122    0.0000 C   0  0  0  0  0  0  0  0  0
    5.4482   -2.1500    0.0000 N   0  0  0  0  0  0  0  0  0
    6.5662   -3.1047    0.0000 C   0  0  0  0  0  0  0  0  0
    4.4397    1.6227    0.0000 C   0  0  0  0  0  0  0  0  0
    5.8133    2.5369    0.0000 C   0  0  0  0  0  0  0  0  0
  1  2  1  0  0  0  0
  2  3  2  0  0  0  0
  2  4  1  0  0  0  0
  4  5  1  0  0  0  0
  4 28  1  0  0  0  0
  4 29  1  0  0  0  0
  5  6  1  0  0  0  0
  6  7  1  0  0  0  0
  6 11  1  0  0  0  0
  7  8  1  0  0  0  0
  8  9  1  0  0  0  0
  9 10  1  0  0  0  0
  9 12  1  0  0  0  0
 10 11  1  0  0  0  0
 12 13  1  0  0  0  0
 12 18  2  0  0  0  0
 13 14  4  0  0  0  0
 13 26  4  0  0  0  0
 14 15  1  0  0  0  0
 14 23  4  0  0  0  0
 15 16  1  0  0  0  0
 16 17  4  0  0  0  0
 16 22  4  0  0  0  0
 17 18  1  0  0  0  0
 17 19  4  0  0  0  0
 19 20  4  0  0  0  0
 20 21  4  0  0  0  0
 21 22  4  0  0  0  0
 23 24  1  0  0  0  0
 23 25  4  0  0  0  0
 25 26  4  0  0  0  0
 25 27  1  0  0  0  0
M  END
>  <Name_Molregno>
689132

>  <5-HT2A>
6.4

>  <5-HT2C>
7.2

>  <HISTAMINE H1>
7.4

$$$$
689133
  Marvin  02231216192D 0   1.00000     0.00000     0

 28 31  0  0  0  0  0  0  0  0999 V2000
   -2.7257    4.1508    0.0000 O   0  0  0  0  0  0  0  0  0
   -3.0920    3.4116    0.0000 C   0  0  0  0  0  0  0  0  0
   -3.9153    3.3591    0.0000 O   0  0  0  0  0  0  0  0  0
   -2.6349    2.7248    0.0000 C   0  0  0  0  0  0  0  0  0
   -2.1778    2.0380    0.0000 C   0  0  0  0  0  0  0  0  0
   -2.5440    1.2987    0.0000 N   0  0  0  0  0  0  0  0  0
   -2.0870    0.6119    0.0000 C   0  0  0  0  0  0  0  0  0
   -2.4532   -0.1273    0.0000 C   0  0  0  0  0  0  0  0  0
   -3.2765   -0.1798    0.0000 N   0  0  0  0  0  0  0  0  0
   -3.7336    0.5070    0.0000 C   0  0  0  0  0  0  0  0  0
   -3.3674    1.2463    0.0000 C   0  0  0  0  0  0  0  0  0
   -3.6428   -0.9190    0.0000 C   0  0  0  0  0  0  0  0  0
   -3.1356   -1.5698    0.0000 C   0  0  0  0  0  0  0  0  0
   -2.3132   -1.5050    0.0000 N   0  0  0  0  0  0  0  0  0
   -1.9974   -2.2672    0.0000 C   0  0  0  0  0  0  0  0  0
   -2.6247   -2.8030    0.0000 C   0  0  0  0  0  0  0  0  0
   -3.3282   -2.3720    0.0000 N   0  0  0  0  0  0  0  0  0
   -4.0754   -2.7216    0.0000 C   0  0  0  0  0  0  0  0  0
   -4.8147   -2.3553    0.0000 C   0  0  0  0  0  0  0  0  0
   -4.9893   -1.5490    0.0000 C   0  0  0  0  0  0  0  0  0
   -4.4677   -0.9098    0.0000 C   0  0  0  0  0  0  0  0  0
   -5.7748   -1.2971    0.0000 C   0  0  0  0  0  0  0  0  0
   -6.3859   -1.8514    0.0000 C   0  0  0  0  0  0  0  0  0
   -6.2113   -2.6577    0.0000 C   0  0  0  0  0  0  0  0  0
   -5.4257   -2.9097    0.0000 C   0  0  0  0  0  0  0  0  0
   -1.1952   -2.4597    0.0000 C   0  0  0  0  0  0  0  0  0
   -3.3217    2.2677    0.0000 C   0  0  0  0  0  0  0  0  0
   -1.9481    3.1819    0.0000 C   0  0  0  0  0  0  0  0  0
  1  2  1  0  0  0  0
  2  3  2  0  0  0  0
  2  4  1  0  0  0  0
  4  5  1  0  0  0  0
  4 27  1  0  0  0  0
  4 28  1  0  0  0  0
  5  6  1  0  0  0  0
  6  7  1  0  0  0  0
  6 11  1  0  0  0  0
  7  8  1  0  0  0  0
  8  9  1  0  0  0  0
  9 10  1  0  0  0  0
  9 12  1  0  0  0  0
 10 11  1  0  0  0  0
 12 13  1  0  0  0  0
 12 21  2  0  0  0  0
 13 14  4  0  0  0  0
 13 17  4  0  0  0  0
 14 15  4  0  0  0  0
 15 16  4  0  0  0  0
 15 26  1  0  0  0  0
 16 17  4  0  0  0  0
 17 18  1  0  0  0  0
 18 19  1  0  0  0  0
 19 20  4  0  0  0  0
 19 25  4  0  0  0  0
 20 21  1  0  0  0  0
 20 22  4  0  0  0  0
 22 23  4  0  0  0  0
 23 24  4  0  0  0  0
 24 25  4  0  0  0  0
M  END
>  <Name_Molregno>
689133

>  <5-HT2A>
6.9

>  <5-HT2C>
7.5

>  <HISTAMINE H1>
7.3

$$$$
689134
  Marvin  02231216192D 0   1.00000     0.00000     0

 28 31  0  0  0  0  0  0  0  0999 V2000
    1.7769   -5.1638    0.0000 Cl  0  0  0  0  0  0  0  0  0
    0.9747   -4.9712    0.0000 C   0  0  0  0  0  0  0  0  0
    0.6590   -4.2090    0.0000 N   0  0  0  0  0  0  0  0  0
   -0.1635   -4.2738    0.0000 C   0  0  0  0  0  0  0  0  0
   -0.3560   -5.0760    0.0000 N   0  0  0  0  0  0  0  0  0
    0.3474   -5.5070    0.0000 C   0  0  0  0  0  0  0  0  0
   -1.1033   -5.4256    0.0000 C   0  0  0  0  0  0  0  0  0
   -1.8426   -5.0594    0.0000 C   0  0  0  0  0  0  0  0  0
   -2.0171   -4.2531    0.0000 C   0  0  0  0  0  0  0  0  0
   -1.4956   -3.6139    0.0000 C   0  0  0  0  0  0  0  0  0
   -0.6706   -3.6231    0.0000 C   0  0  0  0  0  0  0  0  0
   -0.3044   -2.8838    0.0000 N   0  0  0  0  0  0  0  0  0
   -0.7615   -2.1970    0.0000 C   0  0  0  0  0  0  0  0  0
   -0.3952   -1.4578    0.0000 C   0  0  0  0  0  0  0  0  0
    0.4281   -1.4053    0.0000 N   0  0  0  0  0  0  0  0  0
    0.8852   -2.0921    0.0000 C   0  0  0  0  0  0  0  0  0
    0.5189   -2.8314    0.0000 C   0  0  0  0  0  0  0  0  0
    0.7943   -0.6661    0.0000 C   0  0  0  0  0  0  0  0  0
    1.6177   -0.6136    0.0000 C   0  0  0  0  0  0  0  0  0
    2.4410   -0.5612    0.0000 C   0  0  0  0  0  0  0  0  0
    2.8072    0.1781    0.0000 O   0  0  0  0  0  0  0  0  0
    2.8981   -1.2480    0.0000 O   0  0  0  0  0  0  0  0  0
    1.5652    0.2097    0.0000 C   0  0  0  0  0  0  0  0  0
    1.6701   -1.4370    0.0000 C   0  0  0  0  0  0  0  0  0
   -2.8027   -4.0011    0.0000 C   0  0  0  0  0  0  0  0  0
   -3.4137   -4.5555    0.0000 C   0  0  0  0  0  0  0  0  0
   -3.2391   -5.3618    0.0000 C   0  0  0  0  0  0  0  0  0
   -2.4536   -5.6137    0.0000 C   0  0  0  0  0  0  0  0  0
  1  2  1  0  0  0  0
  2  3  4  0  0  0  0
  2  6  4  0  0  0  0
  3  4  4  0  0  0  0
  4  5  4  0  0  0  0
  4 11  1  0  0  0  0
  5  6  4  0  0  0  0
  5  7  1  0  0  0  0
  7  8  1  0  0  0  0
  8  9  4  0  0  0  0
  8 28  4  0  0  0  0
  9 10  1  0  0  0  0
  9 25  4  0  0  0  0
 10 11  2  0  0  0  0
 11 12  1  0  0  0  0
 12 13  1  0  0  0  0
 12 17  1  0  0  0  0
 13 14  1  0  0  0  0
 14 15  1  0  0  0  0
 15 16  1  0  0  0  0
 15 18  1  0  0  0  0
 16 17  1  0  0  0  0
 18 19  1  0  0  0  0
 19 20  1  0  0  0  0
 19 23  1  0  0  0  0
 19 24  1  0  0  0  0
 20 21  1  0  0  0  0
 20 22  2  0  0  0  0
 25 26  4  0  0  0  0
 26 27  4  0  0  0  0
 27 28  4  0  0  0  0
M  END
>  <Name_Molregno>
689134

>  <5-HT2A>
7.3

>  <5-HT2C>
6.3

>  <HISTAMINE H1>
7.1

$$$$
689202
  Marvin  02231216192D 0   1.00000     0.00000     0

 28 31  0  0  0  0  0  0  0  0999 V2000
    4.2748    4.3169    0.0000 Cl  0  0  0  0  0  0  0  0  0
    4.2100    3.4945    0.0000 C   0  0  0  0  0  0  0  0  0
    3.5066    3.0635    0.0000 N   0  0  0  0  0  0  0  0  0
    3.6991    2.2612    0.0000 C   0  0  0  0  0  0  0  0  0
    4.5216    2.1965    0.0000 N   0  0  0  0  0  0  0  0  0
    4.8373    2.9587    0.0000 C   0  0  0  0  0  0  0  0  0
    3.1920    1.6105    0.0000 C   0  0  0  0  0  0  0  0  0
    3.5582    0.8713    0.0000 N   0  0  0  0  0  0  0  0  0
    4.3816    0.8188    0.0000 C   0  0  0  0  0  0  0  0  0
    4.7478    0.0796    0.0000 C   0  0  0  0  0  0  0  0  0
    4.2907   -0.6072    0.0000 N   0  0  0  0  0  0  0  0  0
    3.4674   -0.5548    0.0000 C   0  0  0  0  0  0  0  0  0
    3.1012    0.1845    0.0000 C   0  0  0  0  0  0  0  0  0
    4.6570   -1.3465    0.0000 C   0  0  0  0  0  0  0  0  0
    4.1999   -2.0333    0.0000 C   0  0  0  0  0  0  0  0  0
    3.7428   -2.7201    0.0000 C   0  0  0  0  0  0  0  0  0
    4.1090   -3.4593    0.0000 O   0  0  0  0  0  0  0  0  0
    2.9195   -2.6676    0.0000 O   0  0  0  0  0  0  0  0  0
    4.8867   -2.4904    0.0000 C   0  0  0  0  0  0  0  0  0
    3.5131   -1.5762    0.0000 C   0  0  0  0  0  0  0  0  0
    2.3671    1.6013    0.0000 C   0  0  0  0  0  0  0  0  0
    1.8455    2.2405    0.0000 C   0  0  0  0  0  0  0  0  0
    2.0201    3.0468    0.0000 C   0  0  0  0  0  0  0  0  0
    2.7593    3.4131    0.0000 C   0  0  0  0  0  0  0  0  0
    1.4091    3.6012    0.0000 C   0  0  0  0  0  0  0  0  0
    0.6235    3.3492    0.0000 C   0  0  0  0  0  0  0  0  0
    0.4489    2.5429    0.0000 C   0  0  0  0  0  0  0  0  0
    1.0599    1.9885    0.0000 C   0  0  0  0  0  0  0  0  0
  1  2  1  0  0  0  0
  2  3  4  0  0  0  0
  2  6  4  0  0  0  0
  3  4  4  0  0  0  0
  3 24  1  0  0  0  0
  4  5  4  0  0  0  0
  4  7  1  0  0  0  0
  5  6  4  0  0  0  0
  7  8  1  0  0  0  0
  7 21  2  0  0  0  0
  8  9  1  0  0  0  0
  8 13  1  0  0  0  0
  9 10  1  0  0  0  0
 10 11  1  0  0  0  0
 11 12  1  0  0  0  0
 11 14  1  0  0  0  0
 12 13  1  0  0  0  0
 14 15  1  0  0  0  0
 15 16  1  0  0  0  0
 15 19  1  0  0  0  0
 15 20  1  0  0  0  0
 16 17  1  0  0  0  0
 16 18  2  0  0  0  0
 21 22  1  0  0  0  0
 22 23  4  0  0  0  0
 22 28  4  0  0  0  0
 23 24  1  0  0  0  0
 23 25  4  0  0  0  0
 25 26  4  0  0  0  0
 26 27  4  0  0  0  0
 27 28  4  0  0  0  0
M  END
>  <Name_Molregno>
689202

>  <5-HT2A>
7.2

>  <5-HT2C>
6.9

>  <HISTAMINE H1>
7.4

$$$$
689203
  Marvin  02231216192D 0   1.00000     0.00000     0

 28 31  0  0  0  0  0  0  0  0999 V2000
    1.7769   -5.1638    0.0000 F   0  0  0  0  0  0  0  0  0
    0.9747   -4.9712    0.0000 C   0  0  0  0  0  0  0  0  0
    0.6590   -4.2090    0.0000 N   0  0  0  0  0  0  0  0  0
   -0.1635   -4.2738    0.0000 C   0  0  0  0  0  0  0  0  0
   -0.3560   -5.0760    0.0000 N   0  0  0  0  0  0  0  0  0
    0.3474   -5.5070    0.0000 C   0  0  0  0  0  0  0  0  0
   -1.1033   -5.4256    0.0000 C   0  0  0  0  0  0  0  0  0
   -1.8426   -5.0594    0.0000 C   0  0  0  0  0  0  0  0  0
   -2.0171   -4.2531    0.0000 C   0  0  0  0  0  0  0  0  0
   -1.4956   -3.6139    0.0000 C   0  0  0  0  0  0  0  0  0
   -0.6706   -3.6231    0.0000 C   0  0  0  0  0  0  0  0  0
   -0.3044   -2.8838    0.0000 N   0  0  0  0  0  0  0  0  0
   -0.7615   -2.1970    0.0000 C   0  0  0  0  0  0  0  0  0
   -0.3952   -1.4578    0.0000 C   0  0  0  0  0  0  0  0  0
    0.4281   -1.4053    0.0000 N   0  0  0  0  0  0  0  0  0
    0.8852   -2.0921    0.0000 C   0  0  0  0  0  0  0  0  0
    0.5189   -2.8314    0.0000 C   0  0  0  0  0  0  0  0  0
    0.7943   -0.6661    0.0000 C   0  0  0  0  0  0  0  0  0
    1.6177   -0.6136    0.0000 C   0  0  0  0  0  0  0  0  0
    2.4410   -0.5612    0.0000 C   0  0  0  0  0  0  0  0  0
    2.8072    0.1781    0.0000 O   0  0  0  0  0  0  0  0  0
    2.8981   -1.2480    0.0000 O   0  0  0  0  0  0  0  0  0
    1.5652    0.2097    0.0000 C   0  0  0  0  0  0  0  0  0
    1.6701   -1.4370    0.0000 C   0  0  0  0  0  0  0  0  0
   -2.8027   -4.0011    0.0000 C   0  0  0  0  0  0  0  0  0
   -3.4137   -4.5555    0.0000 C   0  0  0  0  0  0  0  0  0
   -3.2391   -5.3618    0.0000 C   0  0  0  0  0  0  0  0  0
   -2.4536   -5.6137    0.0000 C   0  0  0  0  0  0  0  0  0
  1  2  1  0  0  0  0
  2  3  4  0  0  0  0
  2  6  4  0  0  0  0
  3  4  4  0  0  0  0
  4  5  4  0  0  0  0
  4 11  1  0  0  0  0
  5  6  4  0  0  0  0
  5  7  1  0  0  0  0
  7  8  1  0  0  0  0
  8  9  4  0  0  0  0
  8 28  4  0  0  0  0
  9 10  1  0  0  0  0
  9 25  4  0  0  0  0
 10 11  2  0  0  0  0
 11 12  1  0  0  0  0
 12 13  1  0  0  0  0
 12 17  1  0  0  0  0
 13 14  1  0  0  0  0
 14 15  1  0  0  0  0
 15 16  1  0  0  0  0
 15 18  1  0  0  0  0
 16 17  1  0  0  0  0
 18 19  1  0  0  0  0
 19 20  1  0  0  0  0
 19 23  1  0  0  0  0
 19 24  1  0  0  0  0
 20 21  1  0  0  0  0
 20 22  2  0  0  0  0
 25 26  4  0  0  0  0
 26 27  4  0  0  0  0
 27 28  4  0  0  0  0
M  END
>  <Name_Molregno>
689203

>  <5-HT2A>
7

>  <5-HT2C>
6.5

>  <HISTAMINE H1>
7.4

$$$$
689204
  Marvin  02231216192D 0   1.00000     0.00000     0

 29 32  0  0  0  0  0  0  0  0999 V2000
   -2.3072    3.9154    0.0000 O   0  0  0  0  0  0  0  0  0
   -1.5625    4.2705    0.0000 C   0  0  0  0  0  0  0  0  0
   -2.3719    3.0929    0.0000 C   0  0  0  0  0  0  0  0  0
   -3.0754    2.6619    0.0000 N   0  0  0  0  0  0  0  0  0
   -2.8828    1.8597    0.0000 C   0  0  0  0  0  0  0  0  0
   -2.0603    1.7949    0.0000 N   0  0  0  0  0  0  0  0  0
   -1.7446    2.5571    0.0000 C   0  0  0  0  0  0  0  0  0
   -3.3899    1.2090    0.0000 C   0  0  0  0  0  0  0  0  0
   -3.0237    0.4697    0.0000 N   0  0  0  0  0  0  0  0  0
   -2.2004    0.4173    0.0000 C   0  0  0  0  0  0  0  0  0
   -1.8341   -0.3220    0.0000 C   0  0  0  0  0  0  0  0  0
   -2.2912   -1.0088    0.0000 N   0  0  0  0  0  0  0  0  0
   -3.1145   -0.9563    0.0000 C   0  0  0  0  0  0  0  0  0
   -3.4808   -0.2171    0.0000 C   0  0  0  0  0  0  0  0  0
   -1.9250   -1.7480    0.0000 C   0  0  0  0  0  0  0  0  0
   -2.3821   -2.4348    0.0000 C   0  0  0  0  0  0  0  0  0
   -2.8392   -3.1216    0.0000 C   0  0  0  0  0  0  0  0  0
   -2.4729   -3.8609    0.0000 O   0  0  0  0  0  0  0  0  0
   -3.6625   -3.0692    0.0000 O   0  0  0  0  0  0  0  0  0
   -3.0689   -1.9777    0.0000 C   0  0  0  0  0  0  0  0  0
   -1.6953   -2.8919    0.0000 C   0  0  0  0  0  0  0  0  0
   -4.2149    1.1997    0.0000 C   0  0  0  0  0  0  0  0  0
   -4.7364    1.8390    0.0000 C   0  0  0  0  0  0  0  0  0
   -4.5619    2.6453    0.0000 C   0  0  0  0  0  0  0  0  0
   -3.8226    3.0115    0.0000 C   0  0  0  0  0  0  0  0  0
   -5.1729    3.1996    0.0000 C   0  0  0  0  0  0  0  0  0
   -5.9585    2.9477    0.0000 C   0  0  0  0  0  0  0  0  0
   -6.1330    2.1413    0.0000 C   0  0  0  0  0  0  0  0  0
   -5.5220    1.5870    0.0000 C   0  0  0  0  0  0  0  0  0
  1  2  1  0  0  0  0
  1  3  1  0  0  0  0
  3  4  4  0  0  0  0
  3  7  4  0  0  0  0
  4  5  4  0  0  0  0
  4 25  1  0  0  0  0
  5  6  4  0  0  0  0
  5  8  1  0  0  0  0
  6  7  4  0  0  0  0
  8  9  1  0  0  0  0
  8 22  2  0  0  0  0
  9 10  1  0  0  0  0
  9 14  1  0  0  0  0
 10 11  1  0  0  0  0
 11 12  1  0  0  0  0
 12 13  1  0  0  0  0
 12 15  1  0  0  0  0
 13 14  1  0  0  0  0
 15 16  1  0  0  0  0
 16 17  1  0  0  0  0
 16 20  1  0  0  0  0
 16 21  1  0  0  0  0
 17 18  1  0  0  0  0
 17 19  2  0  0  0  0
 22 23  1  0  0  0  0
 23 24  4  0  0  0  0
 23 29  4  0  0  0  0
 24 25  1  0  0  0  0
 24 26  4  0  0  0  0
 26 27  4  0  0  0  0
 27 28  4  0  0  0  0
 28 29  4  0  0  0  0
M  END
>  <Name_Molregno>
689204

>  <5-HT2A>
6.6

>  <5-HT2C>
6.3

>  <HISTAMINE H1>
6.9

$$$$
5-HT-N-ACETYL
  Marvin  02231216192D 0   1.00000     0.00000     0

 19 20  0  0  1  0  0  0  0  0999 V2000
    0.4065   -1.6301    0.0000 Cl  0  0  0  0  0  0  0  0  0
    1.1210   -1.2176    0.0000 C   0  0  0  0  0  0  0  0  0
    1.1210   -0.3926    0.0000 C   0  0  0  0  0  0  0  0  0
    1.8355    0.0199    0.0000 C   0  0  0  0  0  0  0  0  0
    2.5499   -0.3926    0.0000 C   0  0  0  0  0  0  0  0  0
    2.5499   -1.2176    0.0000 C   0  0  0  0  0  0  0  0  0
    1.8355   -1.6301    0.0000 C   0  0  0  0  0  0  0  0  0
    3.2644    0.0199    0.0000 C   0  0  0  0  0  0  0  0  0
    3.9789   -0.3926    0.0000 C   0  0  0  0  0  0  0  0  0
    4.6934    0.0199    0.0000 C   0  0  0  0  0  0  0  0  0
    5.4078   -0.3926    0.0000 N   0  0  0  0  0  0  0  0  0
    6.1223    0.0199    0.0000 C   0  0  0  0  0  0  0  0  0
    5.4078   -1.2176    0.0000 C   0  0  0  0  0  0  0  0  0
    3.2644    0.8449    0.0000 C   0  0  0  0  0  0  0  0  0
    2.5499    1.2574    0.0000 N   0  0  0  0  0  0  0  0  0
    2.5499    2.0824    0.0000 C   0  0  0  0  0  0  0  0  0
    3.2644    2.4949    0.0000 C   0  0  0  0  0  0  0  0  0
    3.9789    2.0824    0.0000 C   0  0  0  0  0  0  0  0  0
    3.9789    1.2574    0.0000 C   0  0  0  0  0  0  0  0  0
  1  2  1  0  0  0  0
  2  3  4  0  0  0  0
  2  7  4  0  0  0  0
  3  4  4  0  0  0  0
  4  5  4  0  0  0  0
  5  6  4  0  0  0  0
  5  8  1  0  0  0  0
  6  7  4  0  0  0  0
  8  9  1  0  0  0  0
  8 14  1  0  0  0  0
  9 10  1  0  0  0  0
 10 11  1  0  0  0  0
 11 12  1  0  0  0  0
 11 13  1  0  0  0  0
 14 15  4  0  0  0  0
 14 19  4  0  0  0  0
 15 16  4  0  0  0  0
 16 17  4  0  0  0  0
 17 18  4  0  0  0  0
 18 19  4  0  0  0  0
M  END
>  <Name_Molregno>
5-HT-N-ACETYL

>  <5-HT2A>
5

>  <5-HT2C>
5

>  <HISTAMINE H1>
8.28

>  <HISTAMINE H4>
5.54

$$$$
8-Chloro-11-{4-[4-(3-piperidin-1-yl-propoxy)-benzyl]-piperazin-1-yl}-5H-dibenzo[
  Marvin  02231216192D 0   1.00000     0.00000     0

  8  7  0  0  0  0  0  0  0  0999 V2000
   -0.0537   -0.0112    0.0000 O   0  0  0  0  0  0  0  0  0
    0.6607   -0.4238    0.0000 N   0  0  0  0  0  0  0  0  0
    1.3752   -0.0112    0.0000 N   0  0  0  0  0  0  0  0  0
    2.0897   -0.4238    0.0000 C   0  0  0  0  0  0  0  0  0
    2.8041   -0.0113    0.0000 C   0  0  0  0  0  0  0  0  0
    3.5186   -0.4238    0.0000 C   0  0  0  0  0  0  0  0  0
    4.2331   -0.0113    0.0000 C   0  0  0  0  0  0  0  0  0
    1.3752    0.8138    0.0000 C   0  0  0  0  0  0  0  0  0
  1  2  2  0  0  0  0
  2  3  1  0  0  0  0
  3  4  1  0  0  0  0
  3  8  1  0  0  0  0
  4  5  1  0  0  0  0
  5  6  1  0  0  0  0
  6  7  1  0  0  0  0
M  END
>  <Name_Molregno>
8-Chloro-11-{4-[4-(3-piperidin-1-yl-propoxy)-benzyl]-piperazin-1-yl}-5H-dibenzo[b,e][1,4]diazepine

>  <DOPAMINE D1>
6.06

>  <DOPAMINE D2>
6.55

>  <DOPAMINE D3>
6.65

>  <DOPAMINE D5>
6.04

>  <HISTAMINE H1>
6.72

>  <HISTAMINE H3>
8.49

$$$$
9-OH-risperidone
  Marvin  02231216192D 0   1.00000     0.00000     0

 31 35  0  0  1  0  0  0  0  0999 V2000
    1.7758   -2.6889    0.0000 F   0  0  0  0  0  0  0  0  0
    2.0308   -1.9043    0.0000 C   0  0  0  0  0  0  0  0  0
    1.4788   -1.2912    0.0000 C   0  0  0  0  0  0  0  0  0
    1.7337   -0.5066    0.0000 C   0  0  0  0  0  0  0  0  0
    1.3212    0.2079    0.0000 O   0  0  0  0  0  0  0  0  0
    1.8732    0.8210    0.0000 N   0  0  0  0  0  0  0  0  0
    2.6269    0.4854    0.0000 C   0  0  0  0  0  0  0  0  0
    2.5407   -0.3350    0.0000 C   0  0  0  0  0  0  0  0  0
    3.0927   -0.9481    0.0000 C   0  0  0  0  0  0  0  0  0
    2.8378   -1.7327    0.0000 C   0  0  0  0  0  0  0  0  0
    3.3414    0.8979    0.0000 C   0  0  0  0  0  0  0  0  0
    3.3414    1.7229    0.0000 C   0  0  0  0  0  0  0  0  0
    4.0558    2.1354    0.0000 C   0  0  0  0  0  0  0  0  0
    4.7703    1.7229    0.0000 N   0  0  0  0  0  0  0  0  0
    4.7703    0.8979    0.0000 C   0  0  0  0  0  0  0  0  0
    4.0558    0.4854    0.0000 C   0  0  0  0  0  0  0  0  0
    5.4848    2.1354    0.0000 C   0  0  0  0  0  0  0  0  0
    6.1993    1.7229    0.0000 C   0  0  0  0  0  0  0  0  0
    6.9137    2.1354    0.0000 C   0  0  0  0  0  0  0  0  0
    7.6282    1.7229    0.0000 C   0  0  0  0  0  0  0  0  0
    7.6282    0.8979    0.0000 O   0  0  0  0  0  0  0  0  0
    8.3427    2.1354    0.0000 N   0  0  0  0  0  0  0  0  0
    8.3427    2.9604    0.0000 C   0  0  0  0  0  0  0  0  0
    7.6282    3.3729    0.0000 N   0  0  0  0  0  0  0  0  0
    6.9137    2.9604    0.0000 C   0  0  0  0  0  0  0  0  0
    6.1993    3.3729    0.0000 C   0  0  0  0  0  0  0  0  0
    9.0571    3.3729    0.0000 C   0  0  0  0  0  0  0  0  0
    9.0571    4.1979    0.0000 O   0  0  0  0  0  0  0  0  0
    9.7716    2.9604    0.0000 C   0  0  0  0  0  0  0  0  0
    9.7716    2.1354    0.0000 C   0  0  0  0  0  0  0  0  0
    9.0571    1.7229    0.0000 C   0  0  0  0  0  0  0  0  0
  1  2  1  0  0  0  0
  2  3  4  0  0  0  0
  2 10  4  0  0  0  0
  3  4  4  0  0  0  0
  4  5  4  0  0  0  0
  4  8  4  0  0  0  0
  5  6  4  0  0  0  0
  6  7  4  0  0  0  0
  7  8  4  0  0  0  0
  7 11  1  0  0  0  0
  8  9  4  0  0  0  0
  9 10  4  0  0  0  0
 11 12  1  0  0  0  0
 11 16  1  0  0  0  0
 12 13  1  0  0  0  0
 13 14  1  0  0  0  0
 14 15  1  0  0  0  0
 14 17  1  0  0  0  0
 15 16  1  0  0  0  0
 17 18  1  0  0  0  0
 18 19  1  0  0  0  0
 19 20  1  0  0  0  0
 19 25  2  0  0  0  0
 20 21  2  0  0  0  0
 20 22  1  0  0  0  0
 22 23  1  0  0  0  0
 22 31  1  0  0  0  0
 23 24  2  0  0  0  0
 23 27  1  0  0  0  0
 24 25  1  0  0  0  0
 25 26  1  0  0  0  0
 27 28  1  0  0  0  0
 27 29  1  0  0  0  0
 29 30  1  0  0  0  0
 30 31  1  0  0  0  0
M  END
>  <Name_Molregno>
9-OH-risperidone

>  <5-HT1A>
6.24

>  <5-HT1B>
7.51

>  <5-HT1D>
7.44

>  <5-HT1E>
5.49

>  <5-HT2A>
9

>  <5-HT2C>
7.32

>  <5-HT3>
5

>  <5-HT5>
6.56

>  <5-HT6>
5.62

>  <5-HT7>
8.57

>  <Alpha-1A>
8.6

>  <Alpha-1B>
9.15

>  <Alpha-2A>
7.92

>  <Alpha-2B>
7.63

>  <Alpha-2C>
8.2

>  <Beta-1>
5.15

>  <Beta-2>
5.15

>  <DOPAMINE D1>
7.39

>  <DOPAMINE D2>
8.61

>  <DOPAMINE D3>
9.07

>  <DOPAMINE D4>
7.4

>  <DOPAMINE D5>
7.54

>  <Dopamine transporter>
5

>  <HISTAMINE H1>
8.07

>  <HISTAMINE H2>
6.92

>  <HISTAMINE H4>
5.06

>  <Muscarinic acetylcholine receptor M1>
5

>  <Muscarinic acetylcholine receptor M2>
5

>  <Muscarinic acetylcholine receptor M3>
5

>  <Muscarinic acetylcholine receptor M4>
5

>  <Muscarinic acetylcholine receptor M5>
5

>  <Norepinephrine transporter>
5

>  <Serotonin transporter>
5.71

$$$$
Acetylsalicylic-acid
  Marvin  02231216192D 0   1.00000     0.00000     0

 13 13  0  0  0  0  0  0  0  0999 V2000
    0.0203    0.5019    0.0000 O   0  0  0  0  0  0  0  0  0
    0.7347    0.0894    0.0000 C   0  0  0  0  0  0  0  0  0
    1.4492    0.5019    0.0000 O   0  0  0  0  0  0  0  0  0
    0.7347   -0.7356    0.0000 C   0  0  0  0  0  0  0  0  0
   -0.6942    0.0894    0.0000 C   0  0  0  0  0  0  0  0  0
   -0.6942   -0.7356    0.0000 C   0  0  0  0  0  0  0  0  0
   -1.4087   -1.1481    0.0000 C   0  0  0  0  0  0  0  0  0
   -2.1232   -0.7356    0.0000 C   0  0  0  0  0  0  0  0  0
   -2.1232    0.0894    0.0000 C   0  0  0  0  0  0  0  0  0
   -1.4087    0.5019    0.0000 C   0  0  0  0  0  0  0  0  0
   -1.4087    1.3269    0.0000 C   0  0  0  0  0  0  0  0  0
   -2.1232    1.7394    0.0000 O   0  0  0  0  0  0  0  0  0
   -0.6942    1.7394    0.0000 O   0  0  0  0  0  0  0  0  0
  1  2  1  0  0  0  0
  1  5  1  0  0  0  0
  2  3  2  0  0  0  0
  2  4  1  0  0  0  0
  5  6  4  0  0  0  0
  5 10  4  0  0  0  0
  6  7  4  0  0  0  0
  7  8  4  0  0  0  0
  8  9  4  0  0  0  0
  9 10  4  0  0  0  0
 10 11  1  0  0  0  0
 11 12  1  0  0  0  0
 11 13  2  0  0  0  0
M  END
>  <Name_Molregno>
Acetylsalicylic-acid

>  <5-HT1A>
5

>  <5-HT1B>
5

>  <5-HT1D>
5

>  <5-HT2A>
5

>  <5-HT3>
5

>  <5-HT5>
5

>  <5-HT6>
5

>  <5-HT7>
5

>  <Alpha-1A>
5

>  <Alpha-1B>
5

>  <Alpha-2A>
5

>  <Alpha-2B>
5

>  <Alpha-2C>
5

>  <DOPAMINE D1>
5

>  <DOPAMINE D2>
5

>  <DOPAMINE D4>
5

>  <DOPAMINE D5>
5

>  <HISTAMINE H1>
5

>  <HISTAMINE H2>
5

>  <Muscarinic acetylcholine receptor M2>
5

>  <Muscarinic acetylcholine receptor M5>
5

$$$$
Adinazolam
  Marvin  02231216192D 0   1.00000     0.00000     0

 25 28  0  0  0  0  0  0  0  0999 V2000
    1.5378   -2.9359    0.0000 Cl  0  0  0  0  0  0  0  0  0
    0.7178   -2.8449    0.0000 C   0  0  0  0  0  0  0  0  0
    0.3867   -2.0893    0.0000 C   0  0  0  0  0  0  0  0  0
   -0.4333   -1.9983    0.0000 C   0  0  0  0  0  0  0  0  0
   -0.9221   -2.6628    0.0000 C   0  0  0  0  0  0  0  0  0
   -1.7465   -2.6950    0.0000 N   0  0  0  0  0  0  0  0  0
   -2.2856   -2.0706    0.0000 C   0  0  0  0  0  0  0  0  0
   -3.0461   -2.3904    0.0000 N   0  0  0  0  0  0  0  0  0
   -2.9770   -3.2125    0.0000 N   0  0  0  0  0  0  0  0  0
   -2.1738   -3.4008    0.0000 C   0  0  0  0  0  0  0  0  0
   -1.8539   -4.1613    0.0000 C   0  0  0  0  0  0  0  0  0
   -2.3526   -4.8185    0.0000 N   0  0  0  0  0  0  0  0  0
   -2.0328   -5.5790    0.0000 C   0  0  0  0  0  0  0  0  0
   -3.1712   -4.7152    0.0000 C   0  0  0  0  0  0  0  0  0
   -2.1336   -1.2597    0.0000 C   0  0  0  0  0  0  0  0  0
   -1.4048   -0.8730    0.0000 N   0  0  0  0  0  0  0  0  0
   -0.6481   -1.2017    0.0000 C   0  0  0  0  0  0  0  0  0
   -0.0237   -0.6626    0.0000 C   0  0  0  0  0  0  0  0  0
   -0.1784    0.1478    0.0000 C   0  0  0  0  0  0  0  0  0
    0.4460    0.6870    0.0000 C   0  0  0  0  0  0  0  0  0
    1.2252    0.4158    0.0000 C   0  0  0  0  0  0  0  0  0
    1.3799   -0.3946    0.0000 C   0  0  0  0  0  0  0  0  0
    0.7555   -0.9338    0.0000 C   0  0  0  0  0  0  0  0  0
   -0.5910   -3.4185    0.0000 C   0  0  0  0  0  0  0  0  0
    0.2290   -3.5095    0.0000 C   0  0  0  0  0  0  0  0  0
  1  2  1  0  0  0  0
  2  3  4  0  0  0  0
  2 25  4  0  0  0  0
  3  4  4  0  0  0  0
  4  5  4  0  0  0  0
  4 17  1  0  0  0  0
  5  6  1  0  0  0  0
  5 24  4  0  0  0  0
  6  7  4  0  0  0  0
  6 10  4  0  0  0  0
  7  8  4  0  0  0  0
  7 15  1  0  0  0  0
  8  9  4  0  0  0  0
  9 10  4  0  0  0  0
 10 11  1  0  0  0  0
 11 12  1  0  0  0  0
 12 13  1  0  0  0  0
 12 14  1  0  0  0  0
 15 16  1  0  0  0  0
 16 17  2  0  0  0  0
 17 18  1  0  0  0  0
 18 19  4  0  0  0  0
 18 23  4  0  0  0  0
 19 20  4  0  0  0  0
 20 21  4  0  0  0  0
 21 22  4  0  0  0  0
 22 23  4  0  0  0  0
 24 25  4  0  0  0  0
M  END
>  <Name_Molregno>
Adinazolam

>  <5-HT1A>
5

>  <DOPAMINE D2>
5

>  <HISTAMINE H1>
5

>  <Muscarinic acetylcholine receptor M1>
5

>  <Muscarinic acetylcholine receptor M2>
5

>  <Muscarinic acetylcholine receptor M3>
5

>  <Muscarinic acetylcholine receptor M4>
5

>  <Muscarinic acetylcholine receptor M5>
5

$$$$
Alprazolam
  Marvin  02231216192D 0   1.00000     0.00000     0

 22 25  0  0  0  0  0  0  0  0999 V2000
    1.4724   -3.2888    0.0000 Cl  0  0  0  0  0  0  0  0  0
    0.6524   -3.1978    0.0000 C   0  0  0  0  0  0  0  0  0
    0.3213   -2.4422    0.0000 C   0  0  0  0  0  0  0  0  0
   -0.4987   -2.3512    0.0000 C   0  0  0  0  0  0  0  0  0
   -0.9875   -3.0158    0.0000 C   0  0  0  0  0  0  0  0  0
   -1.8119   -3.0480    0.0000 N   0  0  0  0  0  0  0  0  0
   -2.3510   -2.4235    0.0000 C   0  0  0  0  0  0  0  0  0
   -3.1115   -2.7433    0.0000 N   0  0  0  0  0  0  0  0  0
   -3.0424   -3.5654    0.0000 N   0  0  0  0  0  0  0  0  0
   -2.2392   -3.7537    0.0000 C   0  0  0  0  0  0  0  0  0
   -1.9193   -4.5142    0.0000 C   0  0  0  0  0  0  0  0  0
   -2.1990   -1.6127    0.0000 C   0  0  0  0  0  0  0  0  0
   -1.4702   -1.2260    0.0000 N   0  0  0  0  0  0  0  0  0
   -0.7135   -1.5546    0.0000 C   0  0  0  0  0  0  0  0  0
   -0.0891   -1.0155    0.0000 C   0  0  0  0  0  0  0  0  0
   -0.2438   -0.2051    0.0000 C   0  0  0  0  0  0  0  0  0
    0.3806    0.3341    0.0000 C   0  0  0  0  0  0  0  0  0
    1.1598    0.0629    0.0000 C   0  0  0  0  0  0  0  0  0
    1.3145   -0.7475    0.0000 C   0  0  0  0  0  0  0  0  0
    0.6901   -1.2867    0.0000 C   0  0  0  0  0  0  0  0  0
   -0.6564   -3.7714    0.0000 C   0  0  0  0  0  0  0  0  0
    0.1636   -3.8624    0.0000 C   0  0  0  0  0  0  0  0  0
  1  2  1  0  0  0  0
  2  3  4  0  0  0  0
  2 22  4  0  0  0  0
  3  4  4  0  0  0  0
  4  5  4  0  0  0  0
  4 14  1  0  0  0  0
  5  6  1  0  0  0  0
  5 21  4  0  0  0  0
  6  7  4  0  0  0  0
  6 10  4  0  0  0  0
  7  8  4  0  0  0  0
  7 12  1  0  0  0  0
  8  9  4  0  0  0  0
  9 10  4  0  0  0  0
 10 11  1  0  0  0  0
 12 13  1  0  0  0  0
 13 14  2  0  0  0  0
 14 15  1  0  0  0  0
 15 16  4  0  0  0  0
 15 20  4  0  0  0  0
 16 17  4  0  0  0  0
 17 18  4  0  0  0  0
 18 19  4  0  0  0  0
 19 20  4  0  0  0  0
 21 22  4  0  0  0  0
M  END
>  <Name_Molregno>
Alprazolam

>  <HISTAMINE H1>
5

$$$$
AMITRIPTYLINE
  Marvin  02231216192D 0   1.00000     0.00000     0

 21 23  0  0  0  0  0  0  0  0999 V2000
    0.4326    2.9044    0.0000 N   0  0  0  0  0  0  0  0  0
    1.1470    2.4919    0.0000 C   0  0  0  0  0  0  0  0  0
    1.8615    2.9044    0.0000 C   0  0  0  0  0  0  0  0  0
    2.5760    2.4919    0.0000 C   0  0  0  0  0  0  0  0  0
    2.5760    1.6669    0.0000 C   0  0  0  0  0  0  0  0  0
    3.3193    1.3089    0.0000 C   0  0  0  0  0  0  0  0  0
    3.5029    0.5046    0.0000 C   0  0  0  0  0  0  0  0  0
    2.9885   -0.1404    0.0000 C   0  0  0  0  0  0  0  0  0
    2.1635   -0.1404    0.0000 C   0  0  0  0  0  0  0  0  0
    1.6491    0.5046    0.0000 C   0  0  0  0  0  0  0  0  0
    1.8327    1.3089    0.0000 C   0  0  0  0  0  0  0  0  0
    1.2279    1.8701    0.0000 C   0  0  0  0  0  0  0  0  0
    0.4396    1.6269    0.0000 C   0  0  0  0  0  0  0  0  0
    0.2560    0.8226    0.0000 C   0  0  0  0  0  0  0  0  0
    0.8608    0.2615    0.0000 C   0  0  0  0  0  0  0  0  0
    4.2912    0.2615    0.0000 C   0  0  0  0  0  0  0  0  0
    4.8960    0.8226    0.0000 C   0  0  0  0  0  0  0  0  0
    4.7124    1.6269    0.0000 C   0  0  0  0  0  0  0  0  0
    3.9241    1.8701    0.0000 C   0  0  0  0  0  0  0  0  0
   -0.2819    2.4919    0.0000 C   0  0  0  0  0  0  0  0  0
    0.4326    3.7294    0.0000 C   0  0  0  0  0  0  0  0  0
  1  2  1  0  0  0  0
  1 20  1  0  0  0  0
  1 21  1  0  0  0  0
  2  3  1  0  0  0  0
  3  4  1  0  0  0  0
  4  5  2  0  0  0  0
  5  6  1  0  0  0  0
  5 11  1  0  0  0  0
  6  7  4  0  0  0  0
  6 19  4  0  0  0  0
  7  8  1  0  0  0  0
  7 16  4  0  0  0  0
  8  9  1  0  0  0  0
  9 10  1  0  0  0  0
 10 11  4  0  0  0  0
 10 15  4  0  0  0  0
 11 12  4  0  0  0  0
 12 13  4  0  0  0  0
 13 14  4  0  0  0  0
 14 15  4  0  0  0  0
 16 17  4  0  0  0  0
 17 18  4  0  0  0  0
 18 19  4  0  0  0  0
M  END
>  <Name_Molregno>
AMITRIPTYLINE

>  <5-HT1A>
6.35

>  <5-HT2A>
7.64

>  <5-HT6>
7.02

>  <DOPAMINE D1>
7.05

>  <DOPAMINE D2>
6.42

>  <DOPAMINE D3>
6.69

>  <DOPAMINE D5>
6.77

>  <Dopamine transporter>
5.4

>  <HISTAMINE H1>
9.08

>  <HISTAMINE H3>
6

>  <HISTAMINE H4>
7.47

>  <Muscarinic acetylcholine receptor M1>
7.89

>  <Muscarinic acetylcholine receptor M2>
7.93

>  <Muscarinic acetylcholine receptor M3>
7.65

>  <Muscarinic acetylcholine receptor M4>
8.14

>  <Muscarinic acetylcholine receptor M5>
7.71

>  <Norepinephrine transporter>
7.45

>  <Serotonin transporter>
8

$$$$
ARIPIPRAZOLE
  Marvin  02231216192D 0   1.00000     0.00000     0

 30 33  0  0  0  0  0  0  0  0999 V2000
   -8.7485    0.0493    0.0000 Cl  0  0  0  0  0  0  0  0  0
   -8.7485   -0.7757    0.0000 C   0  0  0  0  0  0  0  0  0
   -8.0340   -1.1882    0.0000 C   0  0  0  0  0  0  0  0  0
   -7.3195   -0.7757    0.0000 N   0  0  0  0  0  0  0  0  0
   -7.3195    0.0493    0.0000 C   0  0  0  0  0  0  0  0  0
   -6.6051    0.4618    0.0000 C   0  0  0  0  0  0  0  0  0
   -5.8906    0.0493    0.0000 N   0  0  0  0  0  0  0  0  0
   -5.8906   -0.7757    0.0000 C   0  0  0  0  0  0  0  0  0
   -6.6051   -1.1882    0.0000 C   0  0  0  0  0  0  0  0  0
   -5.1761    0.4618    0.0000 C   0  0  0  0  0  0  0  0  0
   -4.4616    0.0493    0.0000 C   0  0  0  0  0  0  0  0  0
   -3.7472    0.4618    0.0000 C   0  0  0  0  0  0  0  0  0
   -3.0327    0.0493    0.0000 C   0  0  0  0  0  0  0  0  0
   -2.3182    0.4618    0.0000 O   0  0  0  0  0  0  0  0  0
   -1.6038    0.0493    0.0000 C   0  0  0  0  0  0  0  0  0
   -0.8893    0.4618    0.0000 C   0  0  0  0  0  0  0  0  0
   -0.1748    0.0493    0.0000 C   0  0  0  0  0  0  0  0  0
    0.5397    0.4618    0.0000 N   0  0  0  0  0  0  0  0  0
    1.2541    0.0493    0.0000 C   0  0  0  0  0  0  0  0  0
    1.9686    0.4618    0.0000 O   0  0  0  0  0  0  0  0  0
    1.2541   -0.7757    0.0000 C   0  0  0  0  0  0  0  0  0
    0.5397   -1.1882    0.0000 C   0  0  0  0  0  0  0  0  0
   -0.1748   -0.7757    0.0000 C   0  0  0  0  0  0  0  0  0
   -0.8893   -1.1882    0.0000 C   0  0  0  0  0  0  0  0  0
   -1.6038   -0.7757    0.0000 C   0  0  0  0  0  0  0  0  0
   -8.0340   -2.0132    0.0000 C   0  0  0  0  0  0  0  0  0
   -8.7485   -2.4257    0.0000 C   0  0  0  0  0  0  0  0  0
   -9.4629   -2.0132    0.0000 C   0  0  0  0  0  0  0  0  0
   -9.4629   -1.1882    0.0000 C   0  0  0  0  0  0  0  0  0
  -10.1774   -0.7757    0.0000 Cl  0  0  0  0  0  0  0  0  0
  1  2  1  0  0  0  0
  2  3  4  0  0  0  0
  2 29  4  0  0  0  0
  3  4  1  0  0  0  0
  3 26  4  0  0  0  0
  4  5  1  0  0  0  0
  4  9  1  0  0  0  0
  5  6  1  0  0  0  0
  6  7  1  0  0  0  0
  7  8  1  0  0  0  0
  7 10  1  0  0  0  0
  8  9  1  0  0  0  0
 10 11  1  0  0  0  0
 11 12  1  0  0  0  0
 12 13  1  0  0  0  0
 13 14  1  0  0  0  0
 14 15  1  0  0  0  0
 15 16  4  0  0  0  0
 15 25  4  0  0  0  0
 16 17  4  0  0  0  0
 17 18  1  0  0  0  0
 17 23  4  0  0  0  0
 18 19  1  0  0  0  0
 19 20  2  0  0  0  0
 19 21  1  0  0  0  0
 21 22  1  0  0  0  0
 22 23  1  0  0  0  0
 23 24  4  0  0  0  0
 24 25  4  0  0  0  0
 26 27  4  0  0  0  0
 27 28  4  0  0  0  0
 28 29  4  0  0  0  0
 29 30  1  0  0  0  0
M  END
>  <Name_Molregno>
ARIPIPRAZOLE

>  <5-HT1A>
8.21

>  <5-HT1B>
6.08

>  <5-HT1D>
7.18

>  <5-HT1E>
5.1

>  <5-HT2A>
7.85

>  <5-HT2C>
7.48

>  <5-HT3>
6.25

>  <5-HT5>
5.91

>  <5-HT6>
6.32

>  <5-HT7>
7.81

>  <Alpha-1A>
7.59

>  <Alpha-1B>
7.46

>  <Alpha-2A>
7.13

>  <Alpha-2B>
6.99

>  <Alpha-2C>
7.42

>  <Beta-1>
6.85

>  <Beta-2>
6.79

>  <DOPAMINE D1>
6.06

>  <DOPAMINE D2>
8.72

>  <DOPAMINE D3>
8.45

>  <DOPAMINE D4>
6.51

>  <DOPAMINE D5>
5.69

>  <Dopamine transporter>
5.49

>  <HISTAMINE H1>
7.56

>  <HISTAMINE H2>
5

>  <HISTAMINE H4>
5

>  <Muscarinic acetylcholine receptor M1>
5.17

>  <Muscarinic acetylcholine receptor M2>
5.45

>  <Muscarinic acetylcholine receptor M3>
5.33

>  <Muscarinic acetylcholine receptor M4>
5.82

>  <Muscarinic acetylcholine receptor M5>
5.63

>  <Norepinephrine transporter>
5.68

>  <Serotonin transporter>
6.48

$$$$
Arpromidine
  Marvin  02231216192D 0   1.00000     0.00000     0

 28 30  0  0  1  0  0  0  0  0999 V2000
    0.9173   -3.7038    0.0000 F   0  0  0  0  0  0  0  0  0
    1.6318   -3.2913    0.0000 C   0  0  0  0  0  0  0  0  0
    1.6318   -2.4663    0.0000 C   0  0  0  0  0  0  0  0  0
    2.3463   -2.0538    0.0000 C   0  0  0  0  0  0  0  0  0
    3.0607   -2.4663    0.0000 C   0  0  0  0  0  0  0  0  0
    3.0607   -3.2913    0.0000 C   0  0  0  0  0  0  0  0  0
    2.3463   -3.7038    0.0000 C   0  0  0  0  0  0  0  0  0
    3.7752   -2.0538    0.0000 C   0  0  0  0  0  0  0  0  0
    3.7752   -1.2288    0.0000 C   0  0  0  0  0  0  0  0  0
    4.4897   -0.8163    0.0000 C   0  0  0  0  0  0  0  0  0
    5.2041   -1.2288    0.0000 N   0  0  0  0  0  0  0  0  0
    5.9186   -0.8163    0.0000 C   0  0  0  0  0  0  0  0  0
    5.9186    0.0087    0.0000 N   0  0  0  0  0  0  0  0  0
    5.2041    0.4212    0.0000 C   0  0  0  0  0  0  0  0  0
    5.2041    1.2462    0.0000 C   0  0  0  0  0  0  0  0  0
    4.4897    1.6587    0.0000 C   0  0  0  0  0  0  0  0  0
    4.4897    2.4837    0.0000 C   0  0  0  0  0  0  0  0  0
    3.8222    2.9686    0.0000 N   0  0  0  0  0  0  0  0  0
    4.0772    3.7532    0.0000 C   0  0  0  0  0  0  0  0  0
    4.9022    3.7532    0.0000 N   0  0  0  0  0  0  0  0  0
    5.1571    2.9686    0.0000 C   0  0  0  0  0  0  0  0  0
    6.6331   -1.2288    0.0000 N   0  0  0  0  0  0  0  0  0
    4.4897   -2.4663    0.0000 C   0  0  0  0  0  0  0  0  0
    5.2041   -2.0538    0.0000 N   0  0  0  0  0  0  0  0  0
    5.9186   -2.4663    0.0000 C   0  0  0  0  0  0  0  0  0
    5.9186   -3.2913    0.0000 C   0  0  0  0  0  0  0  0  0
    5.2041   -3.7038    0.0000 C   0  0  0  0  0  0  0  0  0
    4.4897   -3.2913    0.0000 C   0  0  0  0  0  0  0  0  0
  1  2  1  0  0  0  0
  2  3  4  0  0  0  0
  2  7  4  0  0  0  0
  3  4  4  0  0  0  0
  4  5  4  0  0  0  0
  5  6  4  0  0  0  0
  5  8  1  0  0  0  0
  6  7  4  0  0  0  0
  8  9  1  0  0  0  0
  8 23  1  0  0  0  0
  9 10  1  0  0  0  0
 10 11  1  0  0  0  0
 11 12  1  0  0  0  0
 12 13  2  0  0  0  0
 12 22  1  0  0  0  0
 13 14  1  0  0  0  0
 14 15  1  0  0  0  0
 15 16  1  0  0  0  0
 16 17  1  0  0  0  0
 17 18  4  0  0  0  0
 17 21  4  0  0  0  0
 18 19  4  0  0  0  0
 19 20  4  0  0  0  0
 20 21  4  0  0  0  0
 23 24  4  0  0  0  0
 23 28  4  0  0  0  0
 24 25  4  0  0  0  0
 25 26  4  0  0  0  0
 26 27  4  0  0  0  0
 27 28  4  0  0  0  0
M  STY  1   1 DAT
M  SAL   1  1  18
M  SDT   1 MRV_IMPLICIT_H                                        
M  SDD   1     0.0000    0.0000    DR    ALL  0       0  
M  SED   1 IMPL_H1
M  END
>  <Name_Molregno>
Arpromidine

>  <HISTAMINE H1>
6.45

$$$$
ASTEMIZOLE
  Marvin  02231216192D 0   1.00000     0.00000     0

 34 38  0  0  0  0  0  0  0  0999 V2000
    8.8729   -5.5412    0.0000 F   0  0  0  0  0  0  0  0  0
    8.3209   -4.9281    0.0000 C   0  0  0  0  0  0  0  0  0
    7.5139   -5.0996    0.0000 C   0  0  0  0  0  0  0  0  0
    6.9619   -4.4865    0.0000 C   0  0  0  0  0  0  0  0  0
    7.2168   -3.7019    0.0000 C   0  0  0  0  0  0  0  0  0
    8.0238   -3.5304    0.0000 C   0  0  0  0  0  0  0  0  0
    8.5758   -4.1435    0.0000 C   0  0  0  0  0  0  0  0  0
    6.6648   -3.0888    0.0000 C   0  0  0  0  0  0  0  0  0
    6.9197   -2.3042    0.0000 N   0  0  0  0  0  0  0  0  0
    7.7044   -2.0493    0.0000 C   0  0  0  0  0  0  0  0  0
    7.7044   -1.2243    0.0000 C   0  0  0  0  0  0  0  0  0
    6.9197   -0.9693    0.0000 N   0  0  0  0  0  0  0  0  0
    6.4348   -1.6368    0.0000 C   0  0  0  0  0  0  0  0  0
    5.6098   -1.6368    0.0000 N   0  0  0  0  0  0  0  0  0
    5.1973   -0.9223    0.0000 C   0  0  0  0  0  0  0  0  0
    4.3723   -0.9223    0.0000 C   0  0  0  0  0  0  0  0  0
    3.9598   -0.2078    0.0000 C   0  0  0  0  0  0  0  0  0
    4.3723    0.5067    0.0000 N   0  0  0  0  0  0  0  0  0
    5.1973    0.5067    0.0000 C   0  0  0  0  0  0  0  0  0
    5.6098   -0.2078    0.0000 C   0  0  0  0  0  0  0  0  0
    3.9598    1.2211    0.0000 C   0  0  0  0  0  0  0  0  0
    3.1348    1.2211    0.0000 C   0  0  0  0  0  0  0  0  0
    2.7223    1.9356    0.0000 C   0  0  0  0  0  0  0  0  0
    1.8973    1.9356    0.0000 C   0  0  0  0  0  0  0  0  0
    1.4848    2.6501    0.0000 C   0  0  0  0  0  0  0  0  0
    1.8973    3.3645    0.0000 C   0  0  0  0  0  0  0  0  0
    1.4848    4.0790    0.0000 O   0  0  0  0  0  0  0  0  0
    0.6598    4.0790    0.0000 C   0  0  0  0  0  0  0  0  0
    2.7223    3.3645    0.0000 C   0  0  0  0  0  0  0  0  0
    3.1348    2.6501    0.0000 C   0  0  0  0  0  0  0  0  0
    8.4188   -0.8118    0.0000 C   0  0  0  0  0  0  0  0  0
    9.1333   -1.2243    0.0000 C   0  0  0  0  0  0  0  0  0
    9.1333   -2.0493    0.0000 C   0  0  0  0  0  0  0  0  0
    8.4188   -2.4618    0.0000 C   0  0  0  0  0  0  0  0  0
  1  2  1  0  0  0  0
  2  3  4  0  0  0  0
  2  7  4  0  0  0  0
  3  4  4  0  0  0  0
  4  5  4  0  0  0  0
  5  6  4  0  0  0  0
  5  8  1  0  0  0  0
  6  7  4  0  0  0  0
  8  9  1  0  0  0  0
  9 10  4  0  0  0  0
  9 13  4  0  0  0  0
 10 11  4  0  0  0  0
 10 34  4  0  0  0  0
 11 12  4  0  0  0  0
 11 31  4  0  0  0  0
 12 13  4  0  0  0  0
 13 14  1  0  0  0  0
 14 15  1  0  0  0  0
 15 16  1  0  0  0  0
 15 20  1  0  0  0  0
 16 17  1  0  0  0  0
 17 18  1  0  0  0  0
 18 19  1  0  0  0  0
 18 21  1  0  0  0  0
 19 20  1  0  0  0  0
 21 22  1  0  0  0  0
 22 23  1  0  0  0  0
 23 24  4  0  0  0  0
 23 30  4  0  0  0  0
 24 25  4  0  0  0  0
 25 26  4  0  0  0  0
 26 27  1  0  0  0  0
 26 29  4  0  0  0  0
 27 28  1  0  0  0  0
 29 30  4  0  0  0  0
 31 32  4  0  0  0  0
 32 33  4  0  0  0  0
 33 34  4  0  0  0  0
M  END
>  <Name_Molregno>
ASTEMIZOLE

>  <HISTAMINE H1>
9.1

$$$$
Atomoxetine
  Marvin  02231216192D 0   1.00000     0.00000     0

 19 20  0  0  1  0  0  0  0  0999 V2000
   -0.2008    0.4420    0.0000 O   0  0  0  0  0  0  0  0  0
    0.5136    0.8545    0.0000 C   0  0  0  0  0  0  0  0  0
    1.2281    0.4420    0.0000 C   0  0  0  0  0  0  0  0  0
    1.9426    0.8545    0.0000 C   0  0  0  0  0  0  0  0  0
    2.6570    0.4420    0.0000 N   0  0  0  0  0  0  0  0  0
    2.6570   -0.3830    0.0000 C   0  0  0  0  0  0  0  0  0
    0.5136    1.6795    0.0000 C   0  0  0  0  0  0  0  0  0
   -0.2008    2.0920    0.0000 C   0  0  0  0  0  0  0  0  0
   -0.2008    2.9170    0.0000 C   0  0  0  0  0  0  0  0  0
    0.5136    3.3295    0.0000 C   0  0  0  0  0  0  0  0  0
    1.2281    2.9170    0.0000 C   0  0  0  0  0  0  0  0  0
    1.2281    2.0920    0.0000 C   0  0  0  0  0  0  0  0  0
   -0.2008   -0.3830    0.0000 C   0  0  0  0  0  0  0  0  0
    0.5136   -0.7955    0.0000 C   0  0  0  0  0  0  0  0  0
    0.5136   -1.6205    0.0000 C   0  0  0  0  0  0  0  0  0
   -0.2008   -2.0330    0.0000 C   0  0  0  0  0  0  0  0  0
   -0.9153   -1.6205    0.0000 C   0  0  0  0  0  0  0  0  0
   -0.9153   -0.7955    0.0000 C   0  0  0  0  0  0  0  0  0
   -1.6298   -0.3830    0.0000 C   0  0  0  0  0  0  0  0  0
  1  2  1  0  0  0  0
  1 13  1  0  0  0  0
  2  3  1  0  0  0  0
  2  7  1  0  0  0  0
  3  4  1  0  0  0  0
  4  5  1  0  0  0  0
  5  6  1  0  0  0  0
  7  8  4  0  0  0  0
  7 12  4  0  0  0  0
  8  9  4  0  0  0  0
  9 10  4  0  0  0  0
 10 11  4  0  0  0  0
 11 12  4  0  0  0  0
 13 14  4  0  0  0  0
 13 18  4  0  0  0  0
 14 15  4  0  0  0  0
 15 16  4  0  0  0  0
 16 17  4  0  0  0  0
 17 18  4  0  0  0  0
 18 19  1  0  0  0  0
M  END
>  <Name_Molregno>
Atomoxetine

>  <5-HT1A>
5.5

>  <5-HT1B>
6

>  <5-HT1D>
6

>  <5-HT2A>
6

>  <5-HT2C>
6

>  <5-HT6>
6

>  <5-HT7>
6

>  <Alpha-2A>
6

>  <DOPAMINE D2>
5.5

>  <Dopamine transporter>
5.88

>  <HISTAMINE H1>
5.63

>  <Muscarinic acetylcholine receptor M1>
6

>  <Muscarinic acetylcholine receptor M2>
6

>  <Norepinephrine transporter>
8.43

>  <Serotonin transporter>
7.42

$$$$
ATR
  Marvin  02231216192D 0   1.00000     0.00000     0

 21 23  0  0  1  0  0  0  0  0999 V2000
    1.2790    0.7485    0.0000 O   0  0  0  0  0  0  0  0  0
    0.8658    0.0345    0.0000 C   0  0  0  0  0  0  0  0  0
    0.0408    0.0353    0.0000 O   0  0  0  0  0  0  0  0  0
    1.2776   -0.6804    0.0000 C   0  0  0  0  0  0  0  0  0
    2.1026   -0.6812    0.0000 C   0  0  0  0  0  0  0  0  0
    2.5144   -1.3961    0.0000 O   0  0  0  0  0  0  0  0  0
    0.8644   -1.3945    0.0000 C   0  0  0  0  0  0  0  0  0
    1.2762   -2.1093    0.0000 C   0  0  0  0  0  0  0  0  0
    0.8630   -2.8234    0.0000 C   0  0  0  0  0  0  0  0  0
    0.0380   -2.8226    0.0000 C   0  0  0  0  0  0  0  0  0
   -0.3738   -2.1077    0.0000 C   0  0  0  0  0  0  0  0  0
    0.0394   -1.3937    0.0000 C   0  0  0  0  0  0  0  0  0
    0.8672    1.4634    0.0000 C   0  0  0  0  0  0  0  0  0
    0.7290    2.2808    0.0000 C   0  0  0  0  0  0  0  0  0
   -0.1998    2.2653    0.0000 C   0  0  0  0  0  0  0  0  0
   -0.7604    2.7052    0.0000 N   0  0  0  0  0  0  0  0  0
   -0.6207    1.8921    0.0000 C   0  0  0  0  0  0  0  0  0
    0.3510    1.8921    0.0000 C   0  0  0  0  0  0  0  0  0
   -1.1406    1.1798    0.0000 C   0  0  0  0  0  0  0  0  0
   -0.5203    1.5567    0.0000 C   0  0  0  0  0  0  0  0  0
   -1.1830    3.4137    0.0000 C   0  0  0  0  0  0  0  0  0
  1  2  1  0  0  0  0
  1 13  1  0  0  0  0
  2  3  2  0  0  0  0
  2  4  1  0  0  0  0
  4  5  1  0  0  0  0
  4  7  1  0  0  0  0
  5  6  1  0  0  0  0
  7  8  4  0  0  0  0
  7 12  4  0  0  0  0
  8  9  4  0  0  0  0
  9 10  4  0  0  0  0
 10 11  4  0  0  0  0
 11 12  4  0  0  0  0
 13 14  1  0  0  0  0
 13 18  1  0  0  0  0
 14 15  1  0  0  0  0
 15 16  1  0  0  0  0
 15 20  1  0  0  0  0
 16 17  1  0  0  0  0
 16 21  1  0  0  0  0
 17 18  1  0  0  0  0
 17 19  1  0  0  0  0
 19 20  1  0  0  0  0
M  END
>  <Name_Molregno>
ATR

>  <5-HT2A>
5.15

>  <5-HT3>
5

>  <HISTAMINE H1>
5.86

>  <Muscarinic acetylcholine receptor M1>
9.33

>  <Muscarinic acetylcholine receptor M2>
8.97

>  <Muscarinic acetylcholine receptor M3>
9.48

>  <Muscarinic acetylcholine receptor M4>
9.4

>  <Muscarinic acetylcholine receptor M5>
9.33

$$$$
BENZTROPINE
  Marvin  02231216192D 0   1.00000     0.00000     0

 23 26  0  0  1  0  0  0  0  0999 V2000
    0.7540    0.7490    0.0000 O   0  0  0  0  0  0  0  0  0
    0.3408    0.0350    0.0000 C   0  0  0  0  0  0  0  0  0
    0.7526   -0.6799    0.0000 C   0  0  0  0  0  0  0  0  0
    1.5776   -0.6807    0.0000 C   0  0  0  0  0  0  0  0  0
    1.9894   -1.3956    0.0000 C   0  0  0  0  0  0  0  0  0
    1.5762   -2.1097    0.0000 C   0  0  0  0  0  0  0  0  0
    0.7512   -2.1089    0.0000 C   0  0  0  0  0  0  0  0  0
    0.3394   -1.3940    0.0000 C   0  0  0  0  0  0  0  0  0
   -0.4842    0.0358    0.0000 C   0  0  0  0  0  0  0  0  0
   -0.8974   -0.6783    0.0000 C   0  0  0  0  0  0  0  0  0
   -1.7224   -0.6775    0.0000 C   0  0  0  0  0  0  0  0  0
   -2.1342    0.0374    0.0000 C   0  0  0  0  0  0  0  0  0
   -1.7209    0.7515    0.0000 C   0  0  0  0  0  0  0  0  0
   -0.8959    0.7507    0.0000 C   0  0  0  0  0  0  0  0  0
    0.3423    1.4639    0.0000 C   0  0  0  0  0  0  0  0  0
    0.2041    2.2813    0.0000 C   0  0  0  0  0  0  0  0  0
   -0.7247    2.2658    0.0000 C   0  0  0  0  0  0  0  0  0
   -1.2853    2.7057    0.0000 N   0  0  0  0  0  0  0  0  0
   -1.1456    1.8926    0.0000 C   0  0  0  0  0  0  0  0  0
   -0.1739    1.8926    0.0000 C   0  0  0  0  0  0  0  0  0
   -1.6655    1.1803    0.0000 C   0  0  0  0  0  0  0  0  0
   -1.0452    1.5572    0.0000 C   0  0  0  0  0  0  0  0  0
   -1.7080    3.4142    0.0000 C   0  0  0  0  0  0  0  0  0
  1  2  1  0  0  0  0
  1 15  1  0  0  0  0
  2  3  1  0  0  0  0
  2  9  1  0  0  0  0
  3  4  4  0  0  0  0
  3  8  4  0  0  0  0
  4  5  4  0  0  0  0
  5  6  4  0  0  0  0
  6  7  4  0  0  0  0
  7  8  4  0  0  0  0
  9 10  4  0  0  0  0
  9 14  4  0  0  0  0
 10 11  4  0  0  0  0
 11 12  4  0  0  0  0
 12 13  4  0  0  0  0
 13 14  4  0  0  0  0
 15 16  1  0  0  0  0
 15 20  1  0  0  0  0
 16 17  1  0  0  0  0
 17 18  1  0  0  0  0
 17 22  1  0  0  0  0
 18 19  1  0  0  0  0
 18 23  1  0  0  0  0
 19 20  1  0  0  0  0
 19 21  1  0  0  0  0
 21 22  1  0  0  0  0
M  END
>  <Name_Molregno>
BENZTROPINE

>  <HISTAMINE H1>
8.96

>  <Muscarinic acetylcholine receptor M1>
9.64

>  <Muscarinic acetylcholine receptor M2>
8.85

>  <Muscarinic acetylcholine receptor M3>
8.96

>  <Muscarinic acetylcholine receptor M4>
8.96

>  <Muscarinic acetylcholine receptor M5>
8.55

$$$$
Bicuculline
  Marvin  02231216192D 0   1.00000     0.00000     0

 27 32  0  0  1  0  0  0  0  0999 V2000
    1.3033   -1.3411    0.0000 O   0  0  0  0  0  0  0  0  0
    0.6359   -0.8562    0.0000 C   0  0  0  0  0  0  0  0  0
   -0.0316   -1.3411    0.0000 C   0  0  0  0  0  0  0  0  0
    0.2234   -2.1257    0.0000 C   0  0  0  0  0  0  0  0  0
   -0.3287   -2.7388    0.0000 C   0  0  0  0  0  0  0  0  0
   -0.2424   -3.5593    0.0000 O   0  0  0  0  0  0  0  0  0
   -0.9961   -3.8948    0.0000 C   0  0  0  0  0  0  0  0  0
   -1.5481   -3.2817    0.0000 O   0  0  0  0  0  0  0  0  0
   -1.1356   -2.5673    0.0000 C   0  0  0  0  0  0  0  0  0
   -1.3906   -1.7827    0.0000 C   0  0  0  0  0  0  0  0  0
   -0.8386   -1.1696    0.0000 C   0  0  0  0  0  0  0  0  0
    1.0484   -2.1257    0.0000 C   0  0  0  0  0  0  0  0  0
    1.5333   -2.7931    0.0000 O   0  0  0  0  0  0  0  0  0
    0.6359   -0.0312    0.0000 C   0  0  0  0  0  0  0  0  0
    1.3503    0.3813    0.0000 N   0  0  0  0  0  0  0  0  0
    1.3503    1.2063    0.0000 C   0  0  0  0  0  0  0  0  0
    0.6359    1.6188    0.0000 C   0  0  0  0  0  0  0  0  0
   -0.0786    1.2063    0.0000 C   0  0  0  0  0  0  0  0  0
   -0.0786    0.3813    0.0000 C   0  0  0  0  0  0  0  0  0
   -0.7931   -0.0312    0.0000 C   0  0  0  0  0  0  0  0  0
   -1.5076    0.3813    0.0000 C   0  0  0  0  0  0  0  0  0
   -2.2922    0.1264    0.0000 O   0  0  0  0  0  0  0  0  0
   -2.7771    0.7938    0.0000 C   0  0  0  0  0  0  0  0  0
   -2.2922    1.4613    0.0000 O   0  0  0  0  0  0  0  0  0
   -1.5076    1.2063    0.0000 C   0  0  0  0  0  0  0  0  0
   -0.7931    1.6188    0.0000 C   0  0  0  0  0  0  0  0  0
    2.0648   -0.0312    0.0000 C   0  0  0  0  0  0  0  0  0
  1  2  1  0  0  0  0
  1 12  1  0  0  0  0
  2  3  1  0  0  0  0
  2 14  1  0  0  0  0
  3  4  4  0  0  0  0
  3 11  4  0  0  0  0
  4  5  4  0  0  0  0
  4 12  1  0  0  0  0
  5  6  1  0  0  0  0
  5  9  4  0  0  0  0
  6  7  1  0  0  0  0
  7  8  1  0  0  0  0
  8  9  1  0  0  0  0
  9 10  4  0  0  0  0
 10 11  4  0  0  0  0
 12 13  2  0  0  0  0
 14 15  1  0  0  0  0
 14 19  1  0  0  0  0
 15 16  1  0  0  0  0
 15 27  1  0  0  0  0
 16 17  1  0  0  0  0
 17 18  1  0  0  0  0
 18 19  4  0  0  0  0
 18 26  4  0  0  0  0
 19 20  4  0  0  0  0
 20 21  4  0  0  0  0
 21 22  1  0  0  0  0
 21 25  4  0  0  0  0
 22 23  1  0  0  0  0
 23 24  1  0  0  0  0
 24 25  1  0  0  0  0
 25 26  4  0  0  0  0
M  END
>  <Name_Molregno>
Bicuculline

>  <HISTAMINE H1>
5

$$$$
Brompheniramine
  Marvin  02231216192D 0   1.00000     0.00000     0

 19 20  0  0  1  0  0  0  0  0999 V2000
    0.4065   -1.6301    0.0000 Br  0  0  0  0  0  0  0  0  0
    1.1210   -1.2176    0.0000 C   0  0  0  0  0  0  0  0  0
    1.1210   -0.3926    0.0000 C   0  0  0  0  0  0  0  0  0
    1.8355    0.0199    0.0000 C   0  0  0  0  0  0  0  0  0
    2.5499   -0.3926    0.0000 C   0  0  0  0  0  0  0  0  0
    2.5499   -1.2176    0.0000 C   0  0  0  0  0  0  0  0  0
    1.8355   -1.6301    0.0000 C   0  0  0  0  0  0  0  0  0
    3.2644    0.0199    0.0000 C   0  0  0  0  0  0  0  0  0
    3.9789   -0.3926    0.0000 C   0  0  0  0  0  0  0  0  0
    4.6934    0.0199    0.0000 C   0  0  0  0  0  0  0  0  0
    5.4078   -0.3926    0.0000 N   0  0  0  0  0  0  0  0  0
    6.1223    0.0199    0.0000 C   0  0  0  0  0  0  0  0  0
    5.4078   -1.2176    0.0000 C   0  0  0  0  0  0  0  0  0
    3.2644    0.8449    0.0000 C   0  0  0  0  0  0  0  0  0
    2.5499    1.2574    0.0000 N   0  0  0  0  0  0  0  0  0
    2.5499    2.0824    0.0000 C   0  0  0  0  0  0  0  0  0
    3.2644    2.4949    0.0000 C   0  0  0  0  0  0  0  0  0
    3.9789    2.0824    0.0000 C   0  0  0  0  0  0  0  0  0
    3.9789    1.2574    0.0000 C   0  0  0  0  0  0  0  0  0
  1  2  1  0  0  0  0
  2  3  4  0  0  0  0
  2  7  4  0  0  0  0
  3  4  4  0  0  0  0
  4  5  4  0  0  0  0
  5  6  4  0  0  0  0
  5  8  1  0  0  0  0
  6  7  4  0  0  0  0
  8  9  1  0  0  0  0
  8 14  1  0  0  0  0
  9 10  1  0  0  0  0
 10 11  1  0  0  0  0
 11 12  1  0  0  0  0
 11 13  1  0  0  0  0
 14 15  4  0  0  0  0
 14 19  4  0  0  0  0
 15 16  4  0  0  0  0
 16 17  4  0  0  0  0
 17 18  4  0  0  0  0
 18 19  4  0  0  0  0
M  END
>  <Name_Molregno>
Brompheniramine

>  <HISTAMINE H1>
8.22

$$$$
BUPROPION
  Marvin  02231216192D 0   1.00000     0.00000     0

 16 16  0  0  1  0  0  0  0  0999 V2000
    1.2680    2.2852    0.0000 Cl  0  0  0  0  0  0  0  0  0
    1.2680    1.4602    0.0000 C   0  0  0  0  0  0  0  0  0
    1.9824    1.0477    0.0000 C   0  0  0  0  0  0  0  0  0
    1.9824    0.2227    0.0000 C   0  0  0  0  0  0  0  0  0
    1.2680   -0.1898    0.0000 C   0  0  0  0  0  0  0  0  0
    0.5535    0.2227    0.0000 C   0  0  0  0  0  0  0  0  0
    0.5535    1.0477    0.0000 C   0  0  0  0  0  0  0  0  0
    2.6969   -0.1898    0.0000 C   0  0  0  0  0  0  0  0  0
    2.6969   -1.0148    0.0000 O   0  0  0  0  0  0  0  0  0
    3.4114    0.2227    0.0000 C   0  0  0  0  0  0  0  0  0
    4.1259   -0.1898    0.0000 N   0  0  0  0  0  0  0  0  0
    4.8403    0.2227    0.0000 C   0  0  0  0  0  0  0  0  0
    5.5548    0.6352    0.0000 C   0  0  0  0  0  0  0  0  0
    5.2528   -0.4917    0.0000 C   0  0  0  0  0  0  0  0  0
    4.4278    0.9372    0.0000 C   0  0  0  0  0  0  0  0  0
    3.4114    1.0477    0.0000 C   0  0  0  0  0  0  0  0  0
  1  2  1  0  0  0  0
  2  3  4  0  0  0  0
  2  7  4  0  0  0  0
  3  4  4  0  0  0  0
  4  5  4  0  0  0  0
  4  8  1  0  0  0  0
  5  6  4  0  0  0  0
  6  7  4  0  0  0  0
  8  9  2  0  0  0  0
  8 10  1  0  0  0  0
 10 11  1  0  0  0  0
 10 16  1  0  0  0  0
 11 12  1  0  0  0  0
 12 13  1  0  0  0  0
 12 14  1  0  0  0  0
 12 15  1  0  0  0  0
M  END
>  <Name_Molregno>
BUPROPION

>  <5-HT1A>
5

>  <DOPAMINE D2>
5

>  <Dopamine transporter>
6.15

>  <HISTAMINE H1>
5

>  <Muscarinic acetylcholine receptor M1>
5

>  <Muscarinic acetylcholine receptor M2>
5

>  <Muscarinic acetylcholine receptor M3>
5

>  <Muscarinic acetylcholine receptor M4>
5

>  <Muscarinic acetylcholine receptor M5>
5

>  <Norepinephrine transporter>
5.08

>  <Serotonin transporter>
5.01

$$$$
CARBAMAZEPINE
  Marvin  02231216192D 0   1.00000     0.00000     0

 18 20  0  0  0  0  0  0  0  0999 V2000
    0.0000   -0.0005    0.0000 O   0  0  0  0  0  0  0  0  0
    0.7145   -0.4130    0.0000 C   0  0  0  0  0  0  0  0  0
    1.4290   -0.0005    0.0000 N   0  0  0  0  0  0  0  0  0
    0.7145   -1.2380    0.0000 N   0  0  0  0  0  0  0  0  0
    1.4578   -1.5959    0.0000 C   0  0  0  0  0  0  0  0  0
    1.6414   -2.4003    0.0000 C   0  0  0  0  0  0  0  0  0
    1.1270   -3.0453    0.0000 C   0  0  0  0  0  0  0  0  0
    0.3020   -3.0453    0.0000 C   0  0  0  0  0  0  0  0  0
   -0.2124   -2.4003    0.0000 C   0  0  0  0  0  0  0  0  0
   -0.0288   -1.5959    0.0000 C   0  0  0  0  0  0  0  0  0
   -0.6336   -1.0348    0.0000 C   0  0  0  0  0  0  0  0  0
   -1.4219   -1.2780    0.0000 C   0  0  0  0  0  0  0  0  0
   -1.6055   -2.0823    0.0000 C   0  0  0  0  0  0  0  0  0
   -1.0007   -2.6434    0.0000 C   0  0  0  0  0  0  0  0  0
    2.4297   -2.6434    0.0000 C   0  0  0  0  0  0  0  0  0
    3.0345   -2.0823    0.0000 C   0  0  0  0  0  0  0  0  0
    2.8509   -1.2780    0.0000 C   0  0  0  0  0  0  0  0  0
    2.0626   -1.0348    0.0000 C   0  0  0  0  0  0  0  0  0
  1  2  2  0  0  0  0
  2  3  1  0  0  0  0
  2  4  1  0  0  0  0
  4  5  1  0  0  0  0
  4 10  1  0  0  0  0
  5  6  4  0  0  0  0
  5 18  4  0  0  0  0
  6  7  1  0  0  0  0
  6 15  4  0  0  0  0
  7  8  2  0  0  0  0
  8  9  1  0  0  0  0
  9 10  4  0  0  0  0
  9 14  4  0  0  0  0
 10 11  4  0  0  0  0
 11 12  4  0  0  0  0
 12 13  4  0  0  0  0
 13 14  4  0  0  0  0
 15 16  4  0  0  0  0
 16 17  4  0  0  0  0
 17 18  4  0  0  0  0
M  END
>  <Name_Molregno>
CARBAMAZEPINE

>  <5-HT1A>
5

>  <DOPAMINE D1>
5

>  <DOPAMINE D2>
5

>  <HISTAMINE H1>
5

$$$$
Cathinone
  Marvin  02231216192D 0   1.00000     0.00000     0

 11 11  0  0  1  0  0  0  0  0999 V2000
    1.9974    0.2298    0.0000 O   0  0  0  0  0  0  0  0  0
    1.2829   -0.1827    0.0000 C   0  0  0  0  0  0  0  0  0
    0.5684    0.2298    0.0000 C   0  0  0  0  0  0  0  0  0
    0.5684    1.0548    0.0000 N   0  0  0  0  0  0  0  0  0
   -0.1461   -0.1827    0.0000 C   0  0  0  0  0  0  0  0  0
    1.2829   -1.0077    0.0000 C   0  0  0  0  0  0  0  0  0
    1.9974   -1.4202    0.0000 C   0  0  0  0  0  0  0  0  0
    1.9974   -2.2452    0.0000 C   0  0  0  0  0  0  0  0  0
    1.2829   -2.6577    0.0000 C   0  0  0  0  0  0  0  0  0
    0.5684   -2.2452    0.0000 C   0  0  0  0  0  0  0  0  0
    0.5684   -1.4202    0.0000 C   0  0  0  0  0  0  0  0  0
  1  2  2  0  0  0  0
  2  3  1  0  0  0  0
  2  6  1  0  0  0  0
  3  4  1  0  0  0  0
  3  5  1  0  0  0  0
  6  7  4  0  0  0  0
  6 11  4  0  0  0  0
  7  8  4  0  0  0  0
  8  9  4  0  0  0  0
  9 10  4  0  0  0  0
 10 11  4  0  0  0  0
M  END
>  <Name_Molregno>
Cathinone

>  <5-HT1A>
5

>  <5-HT1B>
5

>  <5-HT1D>
5

>  <5-HT1E>
5

>  <5-HT3>
5

>  <5-HT5>
5

>  <5-HT6>
5

>  <5-HT7>
5.57

>  <Alpha-1A>
5

>  <Alpha-1B>
5

>  <Alpha-2A>
5.17

>  <Alpha-2B>
6.04

>  <Alpha-2C>
6.12

>  <Beta-1>
5

>  <Beta-2>
5

>  <DOPAMINE D1>
5

>  <DOPAMINE D2>
5

>  <DOPAMINE D4>
5

>  <DOPAMINE D5>
5

>  <Dopamine transporter>
6.37

>  <HISTAMINE H1>
5

>  <HISTAMINE H2>
5

>  <HISTAMINE H4>
5

>  <Muscarinic acetylcholine receptor M1>
5

>  <Muscarinic acetylcholine receptor M2>
5

>  <Muscarinic acetylcholine receptor M3>
5

>  <Muscarinic acetylcholine receptor M4>
5

>  <Muscarinic acetylcholine receptor M5>
5

>  <Norepinephrine transporter>
6.76

>  <Serotonin transporter>
5.32

$$$$
CELECOXIB
  Marvin  02231216192D 0   1.00000     0.00000     0

 26 28  0  0  0  0  0  0  0  0999 V2000
   -2.2304    2.3034    0.0000 S   0  0  0  0  0  0  0  0  0
   -2.2304    3.1284    0.0000 O   0  0  0  0  0  0  0  0  0
   -3.0554    2.3034    0.0000 O   0  0  0  0  0  0  0  0  0
   -1.4054    2.3034    0.0000 N   0  0  0  0  0  0  0  0  0
   -2.2304    1.4784    0.0000 C   0  0  0  0  0  0  0  0  0
   -1.5159    1.0659    0.0000 C   0  0  0  0  0  0  0  0  0
   -1.5159    0.2409    0.0000 C   0  0  0  0  0  0  0  0  0
   -2.2304   -0.1716    0.0000 C   0  0  0  0  0  0  0  0  0
   -2.2304   -0.9966    0.0000 N   0  0  0  0  0  0  0  0  0
   -1.5629   -1.4815    0.0000 N   0  0  0  0  0  0  0  0  0
   -1.8179   -2.2662    0.0000 C   0  0  0  0  0  0  0  0  0
   -2.6429   -2.2662    0.0000 C   0  0  0  0  0  0  0  0  0
   -2.8978   -1.4815    0.0000 C   0  0  0  0  0  0  0  0  0
   -3.6824   -1.2266    0.0000 C   0  0  0  0  0  0  0  0  0
   -4.2955   -1.7786    0.0000 C   0  0  0  0  0  0  0  0  0
   -5.0802   -1.5237    0.0000 C   0  0  0  0  0  0  0  0  0
   -5.2517   -0.7167    0.0000 C   0  0  0  0  0  0  0  0  0
   -4.6386   -0.1647    0.0000 C   0  0  0  0  0  0  0  0  0
   -3.8540   -0.4196    0.0000 C   0  0  0  0  0  0  0  0  0
   -6.0363   -0.4618    0.0000 C   0  0  0  0  0  0  0  0  0
   -1.3330   -2.9336    0.0000 C   0  0  0  0  0  0  0  0  0
   -0.8480   -3.6010    0.0000 F   0  0  0  0  0  0  0  0  0
   -2.0004   -3.4185    0.0000 F   0  0  0  0  0  0  0  0  0
   -0.6655   -2.4487    0.0000 F   0  0  0  0  0  0  0  0  0
   -2.9448    0.2409    0.0000 C   0  0  0  0  0  0  0  0  0
   -2.9448    1.0659    0.0000 C   0  0  0  0  0  0  0  0  0
  1  2  2  0  0  0  0
  1  3  2  0  0  0  0
  1  4  1  0  0  0  0
  1  5  1  0  0  0  0
  5  6  4  0  0  0  0
  5 26  4  0  0  0  0
  6  7  4  0  0  0  0
  7  8  4  0  0  0  0
  8  9  1  0  0  0  0
  8 25  4  0  0  0  0
  9 10  4  0  0  0  0
  9 13  4  0  0  0  0
 10 11  4  0  0  0  0
 11 12  4  0  0  0  0
 11 21  1  0  0  0  0
 12 13  4  0  0  0  0
 13 14  1  0  0  0  0
 14 15  4  0  0  0  0
 14 19  4  0  0  0  0
 15 16  4  0  0  0  0
 16 17  4  0  0  0  0
 17 18  4  0  0  0  0
 17 20  1  0  0  0  0
 18 19  4  0  0  0  0
 21 22  1  0  0  0  0
 21 23  1  0  0  0  0
 21 24  1  0  0  0  0
 25 26  4  0  0  0  0
M  END
>  <Name_Molregno>
CELECOXIB

>  <5-HT1A>
5

>  <5-HT1B>
5

>  <5-HT1D>
5

>  <5-HT1E>
5

>  <5-HT2A>
5

>  <5-HT3>
5

>  <5-HT6>
5

>  <5-HT7>
5

>  <Alpha-1A>
5

>  <Alpha-1B>
5

>  <Alpha-2A>
5

>  <Alpha-2B>
5

>  <Alpha-2C>
5

>  <DOPAMINE D1>
5

>  <DOPAMINE D2>
5

>  <DOPAMINE D4>
5

>  <DOPAMINE D5>
5

>  <Dopamine transporter>
6.18

>  <HISTAMINE H1>
5

>  <HISTAMINE H2>
5

>  <Muscarinic acetylcholine receptor M2>
5

>  <Muscarinic acetylcholine receptor M5>
5

>  <Norepinephrine transporter>
5

>  <Serotonin transporter>
5

$$$$
CETIRIZINE
  Marvin  02231216192D 0   1.00000     0.00000     0

 27 29  0  0  1  0  0  0  0  0999 V2000
   -0.1070   -0.0197    0.0000 Cl  0  0  0  0  0  0  0  0  0
    0.6075    0.3928    0.0000 C   0  0  0  0  0  0  0  0  0
    0.6075    1.2178    0.0000 C   0  0  0  0  0  0  0  0  0
    1.3219    1.6303    0.0000 C   0  0  0  0  0  0  0  0  0
    2.0364    1.2178    0.0000 C   0  0  0  0  0  0  0  0  0
    2.0364    0.3928    0.0000 C   0  0  0  0  0  0  0  0  0
    1.3219   -0.0197    0.0000 C   0  0  0  0  0  0  0  0  0
    2.7509    1.6303    0.0000 C   0  0  0  0  0  0  0  0  0
    3.4653    1.2178    0.0000 N   0  0  0  0  0  0  0  0  0
    4.1798    1.6303    0.0000 C   0  0  0  0  0  0  0  0  0
    4.8943    1.2178    0.0000 C   0  0  0  0  0  0  0  0  0
    4.8943    0.3928    0.0000 N   0  0  0  0  0  0  0  0  0
    4.1798   -0.0197    0.0000 C   0  0  0  0  0  0  0  0  0
    3.4653    0.3928    0.0000 C   0  0  0  0  0  0  0  0  0
    5.6088   -0.0197    0.0000 C   0  0  0  0  0  0  0  0  0
    6.3232    0.3928    0.0000 C   0  0  0  0  0  0  0  0  0
    7.0377   -0.0197    0.0000 O   0  0  0  0  0  0  0  0  0
    7.7522    0.3928    0.0000 C   0  0  0  0  0  0  0  0  0
    8.4666   -0.0197    0.0000 C   0  0  0  0  0  0  0  0  0
    9.1811    0.3928    0.0000 O   0  0  0  0  0  0  0  0  0
    8.4666   -0.8447    0.0000 O   0  0  0  0  0  0  0  0  0
    2.7509    2.4553    0.0000 C   0  0  0  0  0  0  0  0  0
    2.0364    2.8678    0.0000 C   0  0  0  0  0  0  0  0  0
    2.0364    3.6928    0.0000 C   0  0  0  0  0  0  0  0  0
    2.7509    4.1053    0.0000 C   0  0  0  0  0  0  0  0  0
    3.4653    3.6928    0.0000 C   0  0  0  0  0  0  0  0  0
    3.4653    2.8678    0.0000 C   0  0  0  0  0  0  0  0  0
  1  2  1  0  0  0  0
  2  3  4  0  0  0  0
  2  7  4  0  0  0  0
  3  4  4  0  0  0  0
  4  5  4  0  0  0  0
  5  6  4  0  0  0  0
  5  8  1  0  0  0  0
  6  7  4  0  0  0  0
  8  9  1  0  0  0  0
  8 22  1  0  0  0  0
  9 10  1  0  0  0  0
  9 14  1  0  0  0  0
 10 11  1  0  0  0  0
 11 12  1  0  0  0  0
 12 13  1  0  0  0  0
 12 15  1  0  0  0  0
 13 14  1  0  0  0  0
 15 16  1  0  0  0  0
 16 17  1  0  0  0  0
 17 18  1  0  0  0  0
 18 19  1  0  0  0  0
 19 20  1  0  0  0  0
 19 21  2  0  0  0  0
 22 23  4  0  0  0  0
 22 27  4  0  0  0  0
 23 24  4  0  0  0  0
 24 25  4  0  0  0  0
 25 26  4  0  0  0  0
 26 27  4  0  0  0  0
M  END
>  <Name_Molregno>
CETIRIZINE

>  <HISTAMINE H1>
8.04

$$$$
CHLOROPHENYLPIPERAZINE
  Marvin  02231216192D 0   1.00000     0.00000     0

 13 14  0  0  0  0  0  0  0  0999 V2000
    1.2605    1.9269    0.0000 Cl  0  0  0  0  0  0  0  0  0
    1.2605    1.1019    0.0000 C   0  0  0  0  0  0  0  0  0
    1.9750    0.6894    0.0000 C   0  0  0  0  0  0  0  0  0
    1.9750   -0.1356    0.0000 C   0  0  0  0  0  0  0  0  0
    2.6894   -0.5481    0.0000 N   0  0  0  0  0  0  0  0  0
    3.4039   -0.1356    0.0000 C   0  0  0  0  0  0  0  0  0
    4.1184   -0.5481    0.0000 C   0  0  0  0  0  0  0  0  0
    4.1184   -1.3731    0.0000 N   0  0  0  0  0  0  0  0  0
    3.4039   -1.7856    0.0000 C   0  0  0  0  0  0  0  0  0
    2.6894   -1.3731    0.0000 C   0  0  0  0  0  0  0  0  0
    1.2605   -0.5481    0.0000 C   0  0  0  0  0  0  0  0  0
    0.5460   -0.1356    0.0000 C   0  0  0  0  0  0  0  0  0
    0.5460    0.6894    0.0000 C   0  0  0  0  0  0  0  0  0
  1  2  1  0  0  0  0
  2  3  4  0  0  0  0
  2 13  4  0  0  0  0
  3  4  4  0  0  0  0
  4  5  1  0  0  0  0
  4 11  4  0  0  0  0
  5  6  1  0  0  0  0
  5 10  1  0  0  0  0
  6  7  1  0  0  0  0
  7  8  1  0  0  0  0
  8  9  1  0  0  0  0
  9 10  1  0  0  0  0
 11 12  4  0  0  0  0
 12 13  4  0  0  0  0
M  END
>  <Name_Molregno>
CHLOROPHENYLPIPERAZINE

>  <5-HT1A>
6.88

>  <5-HT1B>
6.72

>  <5-HT1D>
6.23

>  <5-HT2A>
7.01

>  <5-HT2C>
7.55

>  <5-HT3>
6.37

>  <5-HT5>
5.87

>  <5-HT6>
5.7

>  <5-HT7>
6.79

>  <Alpha-1A>
5.86

>  <Alpha-1B>
6.04

>  <Alpha-2A>
6.84

>  <Alpha-2B>
6.98

>  <Alpha-2C>
6.91

>  <Beta-1>
5.63

>  <Beta-2>
5.46

>  <DOPAMINE D1>
5.15

>  <DOPAMINE D2>
5

>  <DOPAMINE D5>
5

>  <HISTAMINE H1>
6.49

>  <Norepinephrine transporter>
5.36

>  <Serotonin transporter>
6.13

$$$$
CHLORPROMAZINE
  Marvin  02231216192D 0   1.00000     0.00000     0

 21 23  0  0  0  0  0  0  0  0999 V2000
   -1.3730   -3.5598    0.0000 Cl  0  0  0  0  0  0  0  0  0
   -2.0875   -3.1473    0.0000 C   0  0  0  0  0  0  0  0  0
   -2.0875   -2.3223    0.0000 C   0  0  0  0  0  0  0  0  0
   -2.8019   -1.9098    0.0000 C   0  0  0  0  0  0  0  0  0
   -2.8019   -1.0848    0.0000 N   0  0  0  0  0  0  0  0  0
   -3.5164   -0.6723    0.0000 C   0  0  0  0  0  0  0  0  0
   -4.2309   -1.0848    0.0000 C   0  0  0  0  0  0  0  0  0
   -4.2309   -1.9098    0.0000 S   0  0  0  0  0  0  0  0  0
   -3.5164   -2.3223    0.0000 C   0  0  0  0  0  0  0  0  0
   -3.5164   -3.1473    0.0000 C   0  0  0  0  0  0  0  0  0
   -2.8019   -3.5598    0.0000 C   0  0  0  0  0  0  0  0  0
   -4.9453   -0.6723    0.0000 C   0  0  0  0  0  0  0  0  0
   -4.9453    0.1527    0.0000 C   0  0  0  0  0  0  0  0  0
   -4.2309    0.5652    0.0000 C   0  0  0  0  0  0  0  0  0
   -3.5164    0.1527    0.0000 C   0  0  0  0  0  0  0  0  0
   -2.0875   -0.6723    0.0000 C   0  0  0  0  0  0  0  0  0
   -1.3730   -1.0848    0.0000 C   0  0  0  0  0  0  0  0  0
   -0.6585   -0.6723    0.0000 C   0  0  0  0  0  0  0  0  0
    0.0560   -1.0848    0.0000 N   0  0  0  0  0  0  0  0  0
    0.7704   -0.6723    0.0000 C   0  0  0  0  0  0  0  0  0
    0.0560   -1.9098    0.0000 C   0  0  0  0  0  0  0  0  0
  1  2  1  0  0  0  0
  2  3  4  0  0  0  0
  2 11  4  0  0  0  0
  3  4  4  0  0  0  0
  4  5  1  0  0  0  0
  4  9  4  0  0  0  0
  5  6  1  0  0  0  0
  5 16  1  0  0  0  0
  6  7  4  0  0  0  0
  6 15  4  0  0  0  0
  7  8  1  0  0  0  0
  7 12  4  0  0  0  0
  8  9  1  0  0  0  0
  9 10  4  0  0  0  0
 10 11  4  0  0  0  0
 12 13  4  0  0  0  0
 13 14  4  0  0  0  0
 14 15  4  0  0  0  0
 16 17  1  0  0  0  0
 17 18  1  0  0  0  0
 18 19  1  0  0  0  0
 19 20  1  0  0  0  0
 19 21  1  0  0  0  0
M  END
>  <Name_Molregno>
CHLORPROMAZINE

>  <5-HT1A>
5.98

>  <5-HT1B>
5.83

>  <5-HT1D>
6.34

>  <5-HT1E>
6.46

>  <5-HT2A>
8.36

>  <5-HT2C>
7.74

>  <5-HT3>
6.01

>  <5-HT5>
6.93

>  <5-HT6>
7.59

>  <5-HT7>
7.54

>  <Alpha-1A>
9.55

>  <Alpha-1B>
9.09

>  <Alpha-2A>
6.71

>  <Alpha-2B>
7.81

>  <Alpha-2C>
7.36

>  <Beta-1>
5

>  <Beta-2>
5

>  <DOPAMINE D1>
7.1

>  <DOPAMINE D2>
8.51

>  <DOPAMINE D3>
8.58

>  <DOPAMINE D4>
8.03

>  <DOPAMINE D5>
6.82

>  <Dopamine transporter>
5

>  <HISTAMINE H1>
8.47

>  <HISTAMINE H2>
6.76

>  <HISTAMINE H3>
6

>  <HISTAMINE H4>
6.3

>  <Muscarinic acetylcholine receptor M1>
7.36

>  <Muscarinic acetylcholine receptor M2>
6.67

>  <Muscarinic acetylcholine receptor M3>
7.25

>  <Muscarinic acetylcholine receptor M4>
7.11

>  <Muscarinic acetylcholine receptor M5>
7.5

>  <Norepinephrine transporter>
5.61

>  <Serotonin transporter>
6.54

$$$$
CHLORPROTHIXENE
  Marvin  02231216192D 0   1.00000     0.00000     0

 21 23  0  0  0  0  0  0  0  0999 V2000
    5.5918   -1.4384    0.0000 Cl  0  0  0  0  0  0  0  0  0
    4.8773   -1.0259    0.0000 C   0  0  0  0  0  0  0  0  0
    4.1628   -1.4384    0.0000 C   0  0  0  0  0  0  0  0  0
    3.4484   -1.0259    0.0000 C   0  0  0  0  0  0  0  0  0
    3.4484   -0.2009    0.0000 C   0  0  0  0  0  0  0  0  0
    2.7339    0.2116    0.0000 S   0  0  0  0  0  0  0  0  0
    2.0194   -0.2009    0.0000 C   0  0  0  0  0  0  0  0  0
    2.0194   -1.0259    0.0000 C   0  0  0  0  0  0  0  0  0
    1.3049   -1.4384    0.0000 C   0  0  0  0  0  0  0  0  0
    0.5905   -1.0259    0.0000 C   0  0  0  0  0  0  0  0  0
    0.5905   -0.2009    0.0000 C   0  0  0  0  0  0  0  0  0
    1.3049    0.2116    0.0000 C   0  0  0  0  0  0  0  0  0
    2.7339   -1.4384    0.0000 C   0  0  0  0  0  0  0  0  0
    2.7339   -2.2634    0.0000 C   0  0  0  0  0  0  0  0  0
    2.0194   -2.6759    0.0000 C   0  0  0  0  0  0  0  0  0
    2.0194   -3.5009    0.0000 C   0  0  0  0  0  0  0  0  0
    1.3049   -3.9134    0.0000 N   0  0  0  0  0  0  0  0  0
    1.3049   -4.7384    0.0000 C   0  0  0  0  0  0  0  0  0
    0.5905   -3.5009    0.0000 C   0  0  0  0  0  0  0  0  0
    4.1628    0.2116    0.0000 C   0  0  0  0  0  0  0  0  0
    4.8773   -0.2009    0.0000 C   0  0  0  0  0  0  0  0  0
  1  2  1  0  0  0  0
  2  3  4  0  0  0  0
  2 21  4  0  0  0  0
  3  4  4  0  0  0  0
  4  5  4  0  0  0  0
  4 13  1  0  0  0  0
  5  6  1  0  0  0  0
  5 20  4  0  0  0  0
  6  7  1  0  0  0  0
  7  8  4  0  0  0  0
  7 12  4  0  0  0  0
  8  9  4  0  0  0  0
  8 13  1  0  0  0  0
  9 10  4  0  0  0  0
 10 11  4  0  0  0  0
 11 12  4  0  0  0  0
 13 14  2  0  0  0  0
 14 15  1  0  0  0  0
 15 16  1  0  0  0  0
 16 17  1  0  0  0  0
 17 18  1  0  0  0  0
 17 19  1  0  0  0  0
 20 21  4  0  0  0  0
M  END
>  <Name_Molregno>
CHLORPROTHIXENE

>  <5-HT2A>
9.37

>  <DOPAMINE D1>
7.74

>  <DOPAMINE D2>
8.37

>  <DOPAMINE D3>
8.34

>  <DOPAMINE D4>
9.19

>  <DOPAMINE D5>
8.05

>  <HISTAMINE H1>
8.43

>  <HISTAMINE H3>
6

>  <Muscarinic acetylcholine receptor M1>
7.96

>  <Muscarinic acetylcholine receptor M2>
7.55

>  <Muscarinic acetylcholine receptor M3>
7.66

>  <Muscarinic acetylcholine receptor M4>
7.74

>  <Muscarinic acetylcholine receptor M5>
7.6

$$$$
CIMETIDINE
  Marvin  02231216192D 0   1.00000     0.00000     0

 17 17  0  0  0  0  0  0  0  0999 V2000
   -1.4925   -0.0975    0.0000 S   0  0  0  0  0  0  0  0  0
   -2.2070   -0.5100    0.0000 C   0  0  0  0  0  0  0  0  0
   -2.9215   -0.0975    0.0000 C   0  0  0  0  0  0  0  0  0
   -3.6752   -0.4331    0.0000 N   0  0  0  0  0  0  0  0  0
   -4.2272    0.1800    0.0000 C   0  0  0  0  0  0  0  0  0
   -3.8147    0.8945    0.0000 N   0  0  0  0  0  0  0  0  0
   -3.0077    0.7230    0.0000 C   0  0  0  0  0  0  0  0  0
   -2.3946    1.2750    0.0000 C   0  0  0  0  0  0  0  0  0
   -0.7781   -0.5100    0.0000 C   0  0  0  0  0  0  0  0  0
   -0.0636   -0.0975    0.0000 C   0  0  0  0  0  0  0  0  0
    0.6509   -0.5100    0.0000 N   0  0  0  0  0  0  0  0  0
    1.3653   -0.0975    0.0000 C   0  0  0  0  0  0  0  0  0
    1.3653    0.7275    0.0000 N   0  0  0  0  0  0  0  0  0
    2.0798    1.1400    0.0000 C   0  0  0  0  0  0  0  0  0
    2.0798   -0.5100    0.0000 N   0  0  0  0  0  0  0  0  0
    2.7943   -0.0975    0.0000 C   0  0  0  0  0  0  0  0  0
    3.5088    0.3150    0.0000 N   0  0  0  0  0  0  0  0  0
  1  2  1  0  0  0  0
  1  9  1  0  0  0  0
  2  3  1  0  0  0  0
  3  4  4  0  0  0  0
  3  7  4  0  0  0  0
  4  5  4  0  0  0  0
  5  6  4  0  0  0  0
  6  7  4  0  0  0  0
  7  8  1  0  0  0  0
  9 10  1  0  0  0  0
 10 11  1  0  0  0  0
 11 12  1  0  0  0  0
 12 13  2  0  0  0  0
 12 15  1  0  0  0  0
 13 14  1  0  0  0  0
 15 16  1  0  0  0  0
 16 17  3  0  0  0  0
M  STY  1   1 DAT
M  SAL   1  1   6
M  SDT   1 MRV_IMPLICIT_H                                        
M  SDD   1     0.0000    0.0000    DR    ALL  0       0  
M  SED   1 IMPL_H1
M  END
>  <Name_Molregno>
CIMETIDINE

>  <5-HT2A>
5.15

>  <HISTAMINE H1>
5

>  <HISTAMINE H3>
5

>  <HISTAMINE H4>
5

$$$$
cis-Thiothixene
  Marvin  02231216192D 0   1.00000     0.00000     0

 30 33  0  0  0  0  0  0  0  0999 V2000
    1.0940   -3.6931    0.0000 S   0  0  0  0  0  0  0  0  0
    1.8085   -3.2806    0.0000 C   0  0  0  0  0  0  0  0  0
    1.8085   -2.4556    0.0000 C   0  0  0  0  0  0  0  0  0
    2.5230   -2.0431    0.0000 C   0  0  0  0  0  0  0  0  0
    3.2375   -2.4556    0.0000 C   0  0  0  0  0  0  0  0  0
    3.9519   -2.0431    0.0000 S   0  0  0  0  0  0  0  0  0
    3.5394   -1.3286    0.0000 O   0  0  0  0  0  0  0  0  0
    4.3644   -2.7575    0.0000 O   0  0  0  0  0  0  0  0  0
    4.6664   -1.6306    0.0000 N   0  0  0  0  0  0  0  0  0
    5.3809   -2.0431    0.0000 C   0  0  0  0  0  0  0  0  0
    4.6664   -0.8056    0.0000 C   0  0  0  0  0  0  0  0  0
    3.2375   -3.2806    0.0000 C   0  0  0  0  0  0  0  0  0
    2.5230   -3.6931    0.0000 C   0  0  0  0  0  0  0  0  0
    1.0940   -2.0431    0.0000 C   0  0  0  0  0  0  0  0  0
    0.3796   -2.4556    0.0000 C   0  0  0  0  0  0  0  0  0
    0.3796   -3.2806    0.0000 C   0  0  0  0  0  0  0  0  0
   -0.3349   -3.6931    0.0000 C   0  0  0  0  0  0  0  0  0
   -1.0494   -3.2806    0.0000 C   0  0  0  0  0  0  0  0  0
   -1.0494   -2.4556    0.0000 C   0  0  0  0  0  0  0  0  0
   -0.3349   -2.0431    0.0000 C   0  0  0  0  0  0  0  0  0
    1.0940   -1.2181    0.0000 C   0  0  0  0  0  0  0  0  0
    0.3796   -0.8056    0.0000 C   0  0  0  0  0  0  0  0  0
   -0.3349   -1.2181    0.0000 C   0  0  0  0  0  0  0  0  0
   -1.0494   -0.8056    0.0000 N   0  0  0  0  0  0  0  0  0
   -1.7638   -1.2181    0.0000 C   0  0  0  0  0  0  0  0  0
   -2.4783   -0.8056    0.0000 C   0  0  0  0  0  0  0  0  0
   -2.4783    0.0194    0.0000 N   0  0  0  0  0  0  0  0  0
   -1.7638    0.4319    0.0000 C   0  0  0  0  0  0  0  0  0
   -1.0494    0.0194    0.0000 C   0  0  0  0  0  0  0  0  0
   -3.1928    0.4319    0.0000 C   0  0  0  0  0  0  0  0  0
  1  2  1  0  0  0  0
  1 16  1  0  0  0  0
  2  3  4  0  0  0  0
  2 13  4  0  0  0  0
  3  4  4  0  0  0  0
  3 14  1  0  0  0  0
  4  5  4  0  0  0  0
  5  6  1  0  0  0  0
  5 12  4  0  0  0  0
  6  7  2  0  0  0  0
  6  8  2  0  0  0  0
  6  9  1  0  0  0  0
  9 10  1  0  0  0  0
  9 11  1  0  0  0  0
 12 13  4  0  0  0  0
 14 15  1  0  0  0  0
 14 21  2  0  0  0  0
 15 16  4  0  0  0  0
 15 20  4  0  0  0  0
 16 17  4  0  0  0  0
 17 18  4  0  0  0  0
 18 19  4  0  0  0  0
 19 20  4  0  0  0  0
 21 22  1  0  0  0  0
 22 23  1  0  0  0  0
 23 24  1  0  0  0  0
 24 25  1  0  0  0  0
 24 29  1  0  0  0  0
 25 26  1  0  0  0  0
 26 27  1  0  0  0  0
 27 28  1  0  0  0  0
 27 30  1  0  0  0  0
 28 29  1  0  0  0  0
M  END
>  <Name_Molregno>
cis-Thiothixene

>  <5-HT1A>
6.39

>  <5-HT1B>
6.82

>  <5-HT1D>
6.18

>  <5-HT1E>
5

>  <5-HT2A>
7.42

>  <5-HT2C>
5.87

>  <5-HT3>
5.73

>  <5-HT5>
6.44

>  <5-HT6>
6.62

>  <5-HT7>
7.82

>  <Alpha-1A>
7.94

>  <Alpha-1B>
7.46

>  <Alpha-2A>
7.1

>  <Alpha-2B>
7.3

>  <Alpha-2C>
7.28

>  <Beta-1>
5

>  <Beta-2>
5

>  <DOPAMINE D1>
7.29

>  <DOPAMINE D2>
9.56

>  <DOPAMINE D3>
9.41

>  <DOPAMINE D4>
6.86

>  <DOPAMINE D5>
6.58

>  <Dopamine transporter>
5

>  <HISTAMINE H1>
8.23

>  <HISTAMINE H2>
6.39

>  <HISTAMINE H4>
5

>  <Muscarinic acetylcholine receptor M1>
5.3

>  <Muscarinic acetylcholine receptor M2>
5.34

>  <Muscarinic acetylcholine receptor M3>
5.27

>  <Muscarinic acetylcholine receptor M4>
5.4

>  <Muscarinic acetylcholine receptor M5>
5.32

>  <Norepinephrine transporter>
5

>  <Serotonin transporter>
5.41

$$$$
Clobenpropit
  Marvin  02231216192D 0   1.00000     0.00000     0

 20 21  0  0  0  0  0  0  0  0999 V2000
    0.2554    0.9207    0.0000 Cl  0  0  0  0  0  0  0  0  0
    0.9699    1.3332    0.0000 C   0  0  0  0  0  0  0  0  0
    0.9699    2.1582    0.0000 C   0  0  0  0  0  0  0  0  0
    1.6844    2.5707    0.0000 C   0  0  0  0  0  0  0  0  0
    2.3988    2.1582    0.0000 C   0  0  0  0  0  0  0  0  0
    2.3988    1.3332    0.0000 C   0  0  0  0  0  0  0  0  0
    1.6844    0.9207    0.0000 C   0  0  0  0  0  0  0  0  0
    3.1133    2.5707    0.0000 C   0  0  0  0  0  0  0  0  0
    3.8278    2.1582    0.0000 N   0  0  0  0  0  0  0  0  0
    3.8278    1.3332    0.0000 C   0  0  0  0  0  0  0  0  0
    4.5422    0.9207    0.0000 S   0  0  0  0  0  0  0  0  0
    5.2567    1.3332    0.0000 C   0  0  0  0  0  0  0  0  0
    5.9712    0.9207    0.0000 C   0  0  0  0  0  0  0  0  0
    6.6857    1.3332    0.0000 C   0  0  0  0  0  0  0  0  0
    7.4001    0.9207    0.0000 C   0  0  0  0  0  0  0  0  0
    8.1538    1.2562    0.0000 N   0  0  0  0  0  0  0  0  0
    8.7058    0.6431    0.0000 C   0  0  0  0  0  0  0  0  0
    8.2933   -0.0713    0.0000 N   0  0  0  0  0  0  0  0  0
    7.4864    0.1002    0.0000 C   0  0  0  0  0  0  0  0  0
    3.1133    0.9207    0.0000 N   0  0  0  0  0  0  0  0  0
  1  2  1  0  0  0  0
  2  3  4  0  0  0  0
  2  7  4  0  0  0  0
  3  4  4  0  0  0  0
  4  5  4  0  0  0  0
  5  6  4  0  0  0  0
  5  8  1  0  0  0  0
  6  7  4  0  0  0  0
  8  9  1  0  0  0  0
  9 10  2  0  0  0  0
 10 11  1  0  0  0  0
 10 20  1  0  0  0  0
 11 12  1  0  0  0  0
 12 13  1  0  0  0  0
 13 14  1  0  0  0  0
 14 15  1  0  0  0  0
 15 16  4  0  0  0  0
 15 19  4  0  0  0  0
 16 17  4  0  0  0  0
 17 18  4  0  0  0  0
 18 19  4  0  0  0  0
M  STY  1   1 DAT
M  SAL   1  1  16
M  SDT   1 MRV_IMPLICIT_H                                        
M  SDD   1     0.0000    0.0000    DR    ALL  0       0  
M  SED   1 IMPL_H1
M  END
>  <Name_Molregno>
Clobenpropit

>  <Alpha-2A>
7.76

>  <Alpha-2C>
7.8

>  <HISTAMINE H1>
5.56

>  <HISTAMINE H2>
5.24

>  <HISTAMINE H3>
8.4

>  <HISTAMINE H4>
7.64

$$$$
CLOZAPINE
  Marvin  02231216192D 0   1.00000     0.00000     0

 23 26  0  0  0  0  0  0  0  0999 V2000
   -0.5622   -2.2603    0.0000 Cl  0  0  0  0  0  0  0  0  0
    0.2262   -2.5035    0.0000 C   0  0  0  0  0  0  0  0  0
    0.8309   -1.9424    0.0000 C   0  0  0  0  0  0  0  0  0
    1.6193   -2.1855    0.0000 C   0  0  0  0  0  0  0  0  0
    2.1337   -1.5405    0.0000 N   0  0  0  0  0  0  0  0  0
    2.9587   -1.5405    0.0000 C   0  0  0  0  0  0  0  0  0
    3.3166   -0.7972    0.0000 N   0  0  0  0  0  0  0  0  0
    2.8519   -0.1156    0.0000 C   0  0  0  0  0  0  0  0  0
    3.2098    0.6277    0.0000 C   0  0  0  0  0  0  0  0  0
    4.0325    0.6894    0.0000 N   0  0  0  0  0  0  0  0  0
    4.4973    0.0077    0.0000 C   0  0  0  0  0  0  0  0  0
    4.1393   -0.7356    0.0000 C   0  0  0  0  0  0  0  0  0
    4.3905    1.4327    0.0000 C   0  0  0  0  0  0  0  0  0
    3.4730   -2.1855    0.0000 C   0  0  0  0  0  0  0  0  0
    3.2895   -2.9898    0.0000 C   0  0  0  0  0  0  0  0  0
    2.5462   -3.3478    0.0000 N   0  0  0  0  0  0  0  0  0
    1.8029   -2.9898    0.0000 C   0  0  0  0  0  0  0  0  0
    1.1981   -3.5510    0.0000 C   0  0  0  0  0  0  0  0  0
    0.4098   -3.3078    0.0000 C   0  0  0  0  0  0  0  0  0
    3.8942   -3.5510    0.0000 C   0  0  0  0  0  0  0  0  0
    4.6826   -3.3078    0.0000 C   0  0  0  0  0  0  0  0  0
    4.8662   -2.5035    0.0000 C   0  0  0  0  0  0  0  0  0
    4.2614   -1.9424    0.0000 C   0  0  0  0  0  0  0  0  0
  1  2  1  0  0  0  0
  2  3  4  0  0  0  0
  2 19  4  0  0  0  0
  3  4  4  0  0  0  0
  4  5  1  0  0  0  0
  4 17  4  0  0  0  0
  5  6  1  0  0  0  0
  6  7  1  0  0  0  0
  6 14  2  0  0  0  0
  7  8  1  0  0  0  0
  7 12  1  0  0  0  0
  8  9  1  0  0  0  0
  9 10  1  0  0  0  0
 10 11  1  0  0  0  0
 10 13  1  0  0  0  0
 11 12  1  0  0  0  0
 14 15  1  0  0  0  0
 14 23  1  0  0  0  0
 15 16  2  0  0  0  0
 15 20  1  0  0  0  0
 16 17  1  0  0  0  0
 17 18  4  0  0  0  0
 18 19  4  0  0  0  0
 20 21  2  0  0  0  0
 21 22  1  0  0  0  0
 22 23  2  0  0  0  0
M  END
>  <Name_Molregno>
CLOZAPINE

>  <5-HT1A>
6.88

>  <5-HT1B>
6.33

>  <5-HT1D>
6.27

>  <5-HT1E>
6.19

>  <5-HT2A>
8.22

>  <5-HT2C>
8

>  <5-HT3>
6.62

>  <5-HT5>
5.41

>  <5-HT6>
7.9

>  <5-HT7>
8.05

>  <Alpha-1A>
8.8

>  <Alpha-1B>
8.15

>  <Alpha-2A>
7.15

>  <Alpha-2B>
7.61

>  <Alpha-2C>
7.88

>  <Beta-1>
5.15

>  <Beta-2>
5.39

>  <DOPAMINE D1>
6.69

>  <DOPAMINE D2>
6.9

>  <DOPAMINE D3>
6.62

>  <DOPAMINE D4>
7.62

>  <DOPAMINE D5>
6.62

>  <Dopamine transporter>
5

>  <HISTAMINE H1>
8.81

>  <HISTAMINE H2>
6.82

>  <HISTAMINE H3>
5.25

>  <HISTAMINE H4>
6.15

>  <Muscarinic acetylcholine receptor M1>
8.26

>  <Muscarinic acetylcholine receptor M2>
7.17

>  <Muscarinic acetylcholine receptor M3>
7.59

>  <Muscarinic acetylcholine receptor M4>
7.85

>  <Muscarinic acetylcholine receptor M5>
7.79

>  <Norepinephrine transporter>
5.5

>  <Serotonin transporter>
5.73

$$$$
CLOZAPINE-2
  Marvin  02231216192D 0   1.00000     0.00000     0

 23 26  0  0  0  0  0  0  0  0999 V2000
   -0.5622   -2.2603    0.0000 Cl  0  0  0  0  0  0  0  0  0
    0.2262   -2.5035    0.0000 C   0  0  0  0  0  0  0  0  0
    0.8309   -1.9424    0.0000 C   0  0  0  0  0  0  0  0  0
    1.6193   -2.1855    0.0000 C   0  0  0  0  0  0  0  0  0
    2.1337   -1.5405    0.0000 N   0  0  0  0  0  0  0  0  0
    2.9587   -1.5405    0.0000 C   0  0  0  0  0  0  0  0  0
    3.3166   -0.7972    0.0000 N   0  0  0  0  0  0  0  0  0
    2.8519   -0.1156    0.0000 C   0  0  0  0  0  0  0  0  0
    3.2098    0.6277    0.0000 C   0  0  0  0  0  0  0  0  0
    4.0325    0.6894    0.0000 N   0  0  0  0  0  0  0  0  0
    4.4973    0.0077    0.0000 C   0  0  0  0  0  0  0  0  0
    4.1393   -0.7356    0.0000 C   0  0  0  0  0  0  0  0  0
    4.3905    1.4327    0.0000 C   0  0  0  0  0  0  0  0  0
    3.4730   -2.1855    0.0000 C   0  0  0  0  0  0  0  0  0
    3.2895   -2.9898    0.0000 C   0  0  0  0  0  0  0  0  0
    2.5462   -3.3478    0.0000 N   0  0  0  0  0  0  0  0  0
    1.8029   -2.9898    0.0000 C   0  0  0  0  0  0  0  0  0
    1.1981   -3.5510    0.0000 C   0  0  0  0  0  0  0  0  0
    0.4098   -3.3078    0.0000 C   0  0  0  0  0  0  0  0  0
    3.8942   -3.5510    0.0000 C   0  0  0  0  0  0  0  0  0
    4.6826   -3.3078    0.0000 C   0  0  0  0  0  0  0  0  0
    4.8662   -2.5035    0.0000 C   0  0  0  0  0  0  0  0  0
    4.2614   -1.9424    0.0000 C   0  0  0  0  0  0  0  0  0
  1  2  1  0  0  0  0
  2  3  4  0  0  0  0
  2 19  4  0  0  0  0
  3  4  4  0  0  0  0
  4  5  1  0  0  0  0
  4 17  4  0  0  0  0
  5  6  2  0  0  0  0
  6  7  1  0  0  0  0
  6 14  1  0  0  0  0
  7  8  1  0  0  0  0
  7 12  1  0  0  0  0
  8  9  1  0  0  0  0
  9 10  1  0  0  0  0
 10 11  1  0  0  0  0
 10 13  1  0  0  0  0
 11 12  1  0  0  0  0
 14 15  4  0  0  0  0
 14 23  4  0  0  0  0
 15 16  1  0  0  0  0
 15 20  4  0  0  0  0
 16 17  1  0  0  0  0
 17 18  4  0  0  0  0
 18 19  4  0  0  0  0
 20 21  4  0  0  0  0
 21 22  4  0  0  0  0
 22 23  4  0  0  0  0
M  END
>  <Name_Molregno>
CLOZAPINE-2

>  <5-HT1A>
6.92

>  <5-HT2A>
8.15

>  <5-HT2C>
7.92

>  <5-HT3>
6.4

>  <5-HT5>
6

>  <5-HT6>
7.85

>  <5-HT7>
7.47

>  <Alpha-2A>
7.62

>  <Alpha-2C>
8.54

>  <DOPAMINE D1>
7

>  <DOPAMINE D2>
7.03

>  <DOPAMINE D3>
6.48

>  <DOPAMINE D4>
7.6

>  <DOPAMINE D5>
6.7

>  <HISTAMINE H1>
8.77

>  <HISTAMINE H3>
6.1

>  <HISTAMINE H4>
6.75

>  <Muscarinic acetylcholine receptor M1>
8.47

>  <Muscarinic acetylcholine receptor M4>
7.9

>  <Serotonin transporter>
5.41

$$$$
CYPROHEPTADINE
  Marvin  02231216192D 0   1.00000     0.00000     0

 22 25  0  0  0  0  0  0  0  0999 V2000
    2.3061   -2.3673    0.0000 N   0  0  0  0  0  0  0  0  0
    1.5917   -1.9548    0.0000 C   0  0  0  0  0  0  0  0  0
    1.5917   -1.1298    0.0000 C   0  0  0  0  0  0  0  0  0
    2.3061   -0.7173    0.0000 C   0  0  0  0  0  0  0  0  0
    3.0206   -1.1298    0.0000 C   0  0  0  0  0  0  0  0  0
    3.0206   -1.9548    0.0000 C   0  0  0  0  0  0  0  0  0
    2.3061    0.1077    0.0000 C   0  0  0  0  0  0  0  0  0
    3.0494    0.4657    0.0000 C   0  0  0  0  0  0  0  0  0
    3.2330    1.2700    0.0000 C   0  0  0  0  0  0  0  0  0
    2.7186    1.9150    0.0000 C   0  0  0  0  0  0  0  0  0
    1.8936    1.9150    0.0000 C   0  0  0  0  0  0  0  0  0
    1.3792    1.2700    0.0000 C   0  0  0  0  0  0  0  0  0
    1.5628    0.4657    0.0000 C   0  0  0  0  0  0  0  0  0
    0.9581   -0.0955    0.0000 C   0  0  0  0  0  0  0  0  0
    0.1697    0.1477    0.0000 C   0  0  0  0  0  0  0  0  0
   -0.0139    0.9520    0.0000 C   0  0  0  0  0  0  0  0  0
    0.5909    1.5132    0.0000 C   0  0  0  0  0  0  0  0  0
    4.0214    1.5132    0.0000 C   0  0  0  0  0  0  0  0  0
    4.6261    0.9520    0.0000 C   0  0  0  0  0  0  0  0  0
    4.4425    0.1477    0.0000 C   0  0  0  0  0  0  0  0  0
    3.6542   -0.0955    0.0000 C   0  0  0  0  0  0  0  0  0
    2.3061   -3.1923    0.0000 C   0  0  0  0  0  0  0  0  0
  1  2  1  0  0  0  0
  1  6  1  0  0  0  0
  1 22  1  0  0  0  0
  2  3  1  0  0  0  0
  3  4  1  0  0  0  0
  4  5  1  0  0  0  0
  4  7  2  0  0  0  0
  5  6  1  0  0  0  0
  7  8  1  0  0  0  0
  7 13  1  0  0  0  0
  8  9  4  0  0  0  0
  8 21  4  0  0  0  0
  9 10  1  0  0  0  0
  9 18  4  0  0  0  0
 10 11  2  0  0  0  0
 11 12  1  0  0  0  0
 12 13  4  0  0  0  0
 12 17  4  0  0  0  0
 13 14  4  0  0  0  0
 14 15  4  0  0  0  0
 15 16  4  0  0  0  0
 16 17  4  0  0  0  0
 18 19  4  0  0  0  0
 19 20  4  0  0  0  0
 20 21  4  0  0  0  0
M  END
>  <Name_Molregno>
CYPROHEPTADINE

>  <5-HT1A>
7.12

>  <5-HT1D>
5.89

>  <5-HT2A>
8.42

>  <5-HT2C>
8.65

>  <5-HT6>
6.85

>  <5-HT7>
6.91

>  <DOPAMINE D1>
6.93

>  <DOPAMINE D2>
6.95

>  <DOPAMINE D3>
8.1

>  <HISTAMINE H1>
10.22

>  <HISTAMINE H3>
5

>  <HISTAMINE H4>
5.85

>  <Muscarinic acetylcholine receptor M1>
7.92

>  <Muscarinic acetylcholine receptor M2>
8.15

>  <Muscarinic acetylcholine receptor M3>
7.92

>  <Muscarinic acetylcholine receptor M4>
8.1

>  <Muscarinic acetylcholine receptor M5>
7.93

$$$$
D-cystine
  Marvin  02231216192D 0   1.00000     0.00000     0

 14 13  0  0  1  0  0  0  0  0999 V2000
    0.5597    0.5534    0.0000 S   0  0  0  0  0  0  0  0  0
   -0.1548    0.1409    0.0000 S   0  0  0  0  0  0  0  0  0
   -0.8693    0.5534    0.0000 C   0  0  0  0  0  0  0  0  0
   -1.5838    0.1409    0.0000 C   0  0  0  0  0  0  0  0  0
   -1.5838   -0.6841    0.0000 N   0  0  0  0  0  0  0  0  0
   -2.2982    0.5534    0.0000 C   0  0  0  0  0  0  0  0  0
   -3.0127    0.1409    0.0000 O   0  0  0  0  0  0  0  0  0
   -2.2982    1.3784    0.0000 O   0  0  0  0  0  0  0  0  0
    1.2741    0.1409    0.0000 C   0  0  0  0  0  0  0  0  0
    1.9886    0.5534    0.0000 C   0  0  0  0  0  0  0  0  0
    1.9886    1.3784    0.0000 N   0  0  0  0  0  0  0  0  0
    2.7031    0.1409    0.0000 C   0  0  0  0  0  0  0  0  0
    3.4175    0.5534    0.0000 O   0  0  0  0  0  0  0  0  0
    2.7031   -0.6841    0.0000 O   0  0  0  0  0  0  0  0  0
  1  2  1  0  0  0  0
  1  9  1  0  0  0  0
  2  3  1  0  0  0  0
  3  4  1  0  0  0  0
  4  5  1  0  0  0  0
  4  6  1  0  0  0  0
  6  7  1  0  0  0  0
  6  8  2  0  0  0  0
  9 10  1  0  0  0  0
 10 11  1  0  0  0  0
 10 12  1  0  0  0  0
 12 13  1  0  0  0  0
 12 14  2  0  0  0  0
M  END
>  <Name_Molregno>
D-cystine

>  <5-HT1A>
5

>  <5-HT1B>
5

>  <5-HT1D>
5

>  <5-HT3>
5

>  <5-HT5>
5

>  <5-HT6>
5

>  <5-HT7>
5

>  <Alpha-1A>
5

>  <Alpha-1B>
5

>  <Alpha-2A>
5

>  <Alpha-2B>
5

>  <Alpha-2C>
5

>  <DOPAMINE D1>
5

>  <DOPAMINE D2>
5

>  <DOPAMINE D3>
5

>  <DOPAMINE D5>
5

>  <Dopamine transporter>
5

>  <HISTAMINE H1>
5

>  <HISTAMINE H2>
5

>  <HISTAMINE H4>
5

>  <Muscarinic acetylcholine receptor M1>
5

>  <Muscarinic acetylcholine receptor M2>
5

>  <Muscarinic acetylcholine receptor M3>
5

>  <Muscarinic acetylcholine receptor M4>
5

>  <Muscarinic acetylcholine receptor M5>
5

>  <Norepinephrine transporter>
5

>  <Serotonin transporter>
5

$$$$
DESIPRAMINE
  Marvin  02231216192D 0   1.00000     0.00000     0

 20 22  0  0  0  0  0  0  0  0999 V2000
   -0.0715   -0.0141    0.0000 N   0  0  0  0  0  0  0  0  0
    0.6430   -0.4266    0.0000 C   0  0  0  0  0  0  0  0  0
    1.3575   -0.0141    0.0000 C   0  0  0  0  0  0  0  0  0
    2.0719   -0.4266    0.0000 C   0  0  0  0  0  0  0  0  0
    2.7864   -0.0141    0.0000 N   0  0  0  0  0  0  0  0  0
    2.7248    0.8086    0.0000 C   0  0  0  0  0  0  0  0  0
    3.3295    1.3697    0.0000 C   0  0  0  0  0  0  0  0  0
    4.1453    1.2468    0.0000 C   0  0  0  0  0  0  0  0  0
    4.5578    0.5323    0.0000 C   0  0  0  0  0  0  0  0  0
    4.2564   -0.2357    0.0000 C   0  0  0  0  0  0  0  0  0
    3.4680   -0.4788    0.0000 C   0  0  0  0  0  0  0  0  0
    3.2845   -1.2831    0.0000 C   0  0  0  0  0  0  0  0  0
    3.8892   -1.8443    0.0000 C   0  0  0  0  0  0  0  0  0
    4.6776   -1.6011    0.0000 C   0  0  0  0  0  0  0  0  0
    4.8612   -0.7968    0.0000 C   0  0  0  0  0  0  0  0  0
    3.1459    2.1741    0.0000 C   0  0  0  0  0  0  0  0  0
    2.3576    2.4172    0.0000 C   0  0  0  0  0  0  0  0  0
    1.7528    1.8561    0.0000 C   0  0  0  0  0  0  0  0  0
    1.9364    1.0518    0.0000 C   0  0  0  0  0  0  0  0  0
   -0.7860   -0.4266    0.0000 C   0  0  0  0  0  0  0  0  0
  1  2  1  0  0  0  0
  1 20  1  0  0  0  0
  2  3  1  0  0  0  0
  3  4  1  0  0  0  0
  4  5  1  0  0  0  0
  5  6  1  0  0  0  0
  5 11  1  0  0  0  0
  6  7  4  0  0  0  0
  6 19  4  0  0  0  0
  7  8  1  0  0  0  0
  7 16  4  0  0  0  0
  8  9  1  0  0  0  0
  9 10  1  0  0  0  0
 10 11  4  0  0  0  0
 10 15  4  0  0  0  0
 11 12  4  0  0  0  0
 12 13  4  0  0  0  0
 13 14  4  0  0  0  0
 14 15  4  0  0  0  0
 16 17  4  0  0  0  0
 17 18  4  0  0  0  0
 18 19  4  0  0  0  0
M  END
>  <Name_Molregno>
DESIPRAMINE

>  <5-HT1A>
5.1

>  <DOPAMINE D1>
5.26

>  <DOPAMINE D2>
5.63

>  <Dopamine transporter>
5.17

>  <HISTAMINE H1>
7.16

>  <Muscarinic acetylcholine receptor M1>
6.96

>  <Muscarinic acetylcholine receptor M2>
6.27

>  <Muscarinic acetylcholine receptor M3>
6.68

>  <Muscarinic acetylcholine receptor M4>
6.8

>  <Muscarinic acetylcholine receptor M5>
6.84

>  <Norepinephrine transporter>
8.66

>  <Serotonin transporter>
7.14

$$$$
DESLORATADINE
  Marvin  02231216192D 0   1.00000     0.00000     0

 22 25  0  0  0  0  0  0  0  0999 V2000
    6.0135    1.1020    0.0000 Cl  0  0  0  0  0  0  0  0  0
    5.2252    0.8588    0.0000 C   0  0  0  0  0  0  0  0  0
    4.6204    1.4199    0.0000 C   0  0  0  0  0  0  0  0  0
    3.8321    1.1767    0.0000 C   0  0  0  0  0  0  0  0  0
    3.6485    0.3724    0.0000 C   0  0  0  0  0  0  0  0  0
    4.2532   -0.1887    0.0000 C   0  0  0  0  0  0  0  0  0
    5.0416    0.0545    0.0000 C   0  0  0  0  0  0  0  0  0
    2.9052    0.0145    0.0000 C   0  0  0  0  0  0  0  0  0
    2.1619    0.3724    0.0000 C   0  0  0  0  0  0  0  0  0
    1.5571   -0.1887    0.0000 N   0  0  0  0  0  0  0  0  0
    0.7688    0.0545    0.0000 C   0  0  0  0  0  0  0  0  0
    0.5852    0.8588    0.0000 C   0  0  0  0  0  0  0  0  0
    1.1899    1.4199    0.0000 C   0  0  0  0  0  0  0  0  0
    1.9783    1.1767    0.0000 C   0  0  0  0  0  0  0  0  0
    2.4927    1.8218    0.0000 C   0  0  0  0  0  0  0  0  0
    3.3177    1.8218    0.0000 C   0  0  0  0  0  0  0  0  0
    2.9052   -0.8105    0.0000 C   0  0  0  0  0  0  0  0  0
    2.1907   -1.2230    0.0000 C   0  0  0  0  0  0  0  0  0
    2.1907   -2.0480    0.0000 C   0  0  0  0  0  0  0  0  0
    2.9052   -2.4605    0.0000 N   0  0  0  0  0  0  0  0  0
    3.6196   -2.0480    0.0000 C   0  0  0  0  0  0  0  0  0
    3.6196   -1.2230    0.0000 C   0  0  0  0  0  0  0  0  0
  1  2  1  0  0  0  0
  2  3  4  0  0  0  0
  2  7  4  0  0  0  0
  3  4  4  0  0  0  0
  4  5  4  0  0  0  0
  4 16  1  0  0  0  0
  5  6  4  0  0  0  0
  5  8  1  0  0  0  0
  6  7  4  0  0  0  0
  8  9  1  0  0  0  0
  8 17  2  0  0  0  0
  9 10  4  0  0  0  0
  9 14  4  0  0  0  0
 10 11  4  0  0  0  0
 11 12  4  0  0  0  0
 12 13  4  0  0  0  0
 13 14  4  0  0  0  0
 14 15  1  0  0  0  0
 15 16  1  0  0  0  0
 17 18  1  0  0  0  0
 17 22  1  0  0  0  0
 18 19  1  0  0  0  0
 19 20  1  0  0  0  0
 20 21  1  0  0  0  0
 21 22  1  0  0  0  0
M  END
>  <Name_Molregno>
DESLORATADINE

>  <HISTAMINE H1>
9.01

$$$$
Desmethylsertraline
  Marvin  02231216192D 0   1.00000     0.00000     0

 19 21  0  0  1  0  0  0  0  0999 V2000
    3.6862    2.6089    0.0000 Cl  0  0  0  0  0  0  0  0  0
    2.9717    2.1964    0.0000 C   0  0  0  0  0  0  0  0  0
    2.9717    1.3714    0.0000 C   0  0  0  0  0  0  0  0  0
    2.2572    0.9589    0.0000 C   0  0  0  0  0  0  0  0  0
    1.5428    1.3714    0.0000 C   0  0  0  0  0  0  0  0  0
    1.5428    2.1964    0.0000 C   0  0  0  0  0  0  0  0  0
    2.2572    2.6089    0.0000 C   0  0  0  0  0  0  0  0  0
    2.2572    3.4339    0.0000 Cl  0  0  0  0  0  0  0  0  0
    2.2572    0.1339    0.0000 C   0  0  0  0  0  0  0  0  0
    1.5428   -0.2786    0.0000 C   0  0  0  0  0  0  0  0  0
    1.5428   -1.1036    0.0000 C   0  0  0  0  0  0  0  0  0
    2.2572   -1.5161    0.0000 C   0  0  0  0  0  0  0  0  0
    2.2572   -2.3411    0.0000 N   0  0  0  0  0  0  0  0  0
    2.9717   -1.1036    0.0000 C   0  0  0  0  0  0  0  0  0
    2.9717   -0.2786    0.0000 C   0  0  0  0  0  0  0  0  0
    3.6862    0.1339    0.0000 C   0  0  0  0  0  0  0  0  0
    4.4007   -0.2786    0.0000 C   0  0  0  0  0  0  0  0  0
    4.4007   -1.1036    0.0000 C   0  0  0  0  0  0  0  0  0
    3.6862   -1.5161    0.0000 C   0  0  0  0  0  0  0  0  0
  1  2  1  0  0  0  0
  2  3  4  0  0  0  0
  2  7  4  0  0  0  0
  3  4  4  0  0  0  0
  4  5  4  0  0  0  0
  4  9  1  0  0  0  0
  5  6  4  0  0  0  0
  6  7  4  0  0  0  0
  7  8  1  0  0  0  0
  9 10  1  0  0  0  0
  9 15  1  0  0  0  0
 10 11  1  0  0  0  0
 11 12  1  0  0  0  0
 12 13  1  0  0  0  0
 12 14  1  0  0  0  0
 14 15  4  0  0  0  0
 14 19  4  0  0  0  0
 15 16  4  0  0  0  0
 16 17  4  0  0  0  0
 17 18  4  0  0  0  0
 18 19  4  0  0  0  0
M  END
>  <Name_Molregno>
Desmethylsertraline

>  <5-HT1A>
5

>  <DOPAMINE D2>
5

>  <Dopamine transporter>
6.89

>  <HISTAMINE H1>
5.05

>  <Muscarinic acetylcholine receptor M1>
5.78

>  <Muscarinic acetylcholine receptor M2>
5.48

>  <Muscarinic acetylcholine receptor M3>
5.46

>  <Muscarinic acetylcholine receptor M4>
5.51

>  <Muscarinic acetylcholine receptor M5>
5.42

>  <Norepinephrine transporter>
6.04

>  <Serotonin transporter>
7.89

$$$$
d-Fenfluramine
  Marvin  02231216192D 0   1.00000     0.00000     0

 16 16  0  0  1  0  0  0  0  0999 V2000
   -5.1694    0.5172    0.0000 F   0  0  0  0  0  0  0  0  0
   -4.4549    0.1047    0.0000 C   0  0  0  0  0  0  0  0  0
   -4.8674   -0.6097    0.0000 F   0  0  0  0  0  0  0  0  0
   -4.0424    0.8192    0.0000 F   0  0  0  0  0  0  0  0  0
   -3.7405   -0.3078    0.0000 C   0  0  0  0  0  0  0  0  0
   -3.0260    0.1047    0.0000 C   0  0  0  0  0  0  0  0  0
   -2.3115   -0.3078    0.0000 C   0  0  0  0  0  0  0  0  0
   -2.3115   -1.1328    0.0000 C   0  0  0  0  0  0  0  0  0
   -3.0260   -1.5453    0.0000 C   0  0  0  0  0  0  0  0  0
   -3.7405   -1.1328    0.0000 C   0  0  0  0  0  0  0  0  0
   -1.5971    0.1047    0.0000 C   0  0  0  0  0  0  0  0  0
   -0.8826   -0.3078    0.0000 C   0  0  0  0  0  0  0  0  0
   -0.1681    0.1047    0.0000 N   0  0  0  0  0  0  0  0  0
    0.5464   -0.3078    0.0000 C   0  0  0  0  0  0  0  0  0
    1.2608    0.1047    0.0000 C   0  0  0  0  0  0  0  0  0
   -0.8826   -1.1328    0.0000 C   0  0  0  0  0  0  0  0  0
  1  2  1  0  0  0  0
  2  3  1  0  0  0  0
  2  4  1  0  0  0  0
  2  5  1  0  0  0  0
  5  6  4  0  0  0  0
  5 10  4  0  0  0  0
  6  7  4  0  0  0  0
  7  8  4  0  0  0  0
  7 11  1  0  0  0  0
  8  9  4  0  0  0  0
  9 10  4  0  0  0  0
 11 12  1  0  0  0  0
 12 13  1  0  0  0  0
 12 16  1  0  0  0  0
 13 14  1  0  0  0  0
 14 15  1  0  0  0  0
M  END
>  <Name_Molregno>
d-Fenfluramine

>  <5-HT1A>
6.11

>  <5-HT1B>
5.67

>  <5-HT1D>
5.79

>  <5-HT1E>
5

>  <5-HT2A>
5.92

>  <5-HT2C>
6.27

>  <5-HT3>
5

>  <5-HT5>
5

>  <5-HT6>
5.01

>  <5-HT7>
5.17

>  <Alpha-1A>
5.52

>  <Alpha-1B>
5.62

>  <Alpha-2A>
6.26

>  <Alpha-2B>
6.65

>  <Alpha-2C>
6.68

>  <Beta-1>
5.67

>  <Beta-2>
5.07

>  <DOPAMINE D1>
5

>  <DOPAMINE D2>
5

>  <DOPAMINE D4>
5

>  <DOPAMINE D5>
5

>  <Dopamine transporter>
5

>  <HISTAMINE H1>
5

>  <HISTAMINE H2>
5

>  <Muscarinic acetylcholine receptor M1>
5.61

>  <Muscarinic acetylcholine receptor M2>
5.39

>  <Muscarinic acetylcholine receptor M3>
5.22

>  <Muscarinic acetylcholine receptor M4>
5.1

>  <Muscarinic acetylcholine receptor M5>
5

>  <Norepinephrine transporter>
5

>  <Serotonin transporter>
6.18

$$$$
Diclofenac
  Marvin  02231216192D 0   1.00000     0.00000     0

 19 20  0  0  0  0  0  0  0  0999 V2000
    1.8639   -0.1839    0.0000 Cl  0  0  0  0  0  0  0  0  0
    1.8639   -1.0089    0.0000 C   0  0  0  0  0  0  0  0  0
    2.5784   -1.4214    0.0000 C   0  0  0  0  0  0  0  0  0
    2.5784   -2.2464    0.0000 C   0  0  0  0  0  0  0  0  0
    1.8639   -2.6589    0.0000 C   0  0  0  0  0  0  0  0  0
    1.1494   -2.2464    0.0000 C   0  0  0  0  0  0  0  0  0
    0.4350   -2.6589    0.0000 Cl  0  0  0  0  0  0  0  0  0
    1.1494   -1.4214    0.0000 C   0  0  0  0  0  0  0  0  0
    0.4350   -1.0089    0.0000 N   0  0  0  0  0  0  0  0  0
   -0.2795   -1.4214    0.0000 C   0  0  0  0  0  0  0  0  0
   -0.2795   -2.2464    0.0000 C   0  0  0  0  0  0  0  0  0
   -0.9940   -2.6589    0.0000 C   0  0  0  0  0  0  0  0  0
   -1.7085   -2.2464    0.0000 C   0  0  0  0  0  0  0  0  0
   -1.7085   -1.4214    0.0000 C   0  0  0  0  0  0  0  0  0
   -0.9940   -1.0089    0.0000 C   0  0  0  0  0  0  0  0  0
   -0.9940   -0.1839    0.0000 C   0  0  0  0  0  0  0  0  0
   -0.2795    0.2286    0.0000 C   0  0  0  0  0  0  0  0  0
   -0.2795    1.0536    0.0000 O   0  0  0  0  0  0  0  0  0
    0.4350   -0.1839    0.0000 O   0  0  0  0  0  0  0  0  0
  1  2  1  0  0  0  0
  2  3  4  0  0  0  0
  2  8  4  0  0  0  0
  3  4  4  0  0  0  0
  4  5  4  0  0  0  0
  5  6  4  0  0  0  0
  6  7  1  0  0  0  0
  6  8  4  0  0  0  0
  8  9  1  0  0  0  0
  9 10  1  0  0  0  0
 10 11  4  0  0  0  0
 10 15  4  0  0  0  0
 11 12  4  0  0  0  0
 12 13  4  0  0  0  0
 13 14  4  0  0  0  0
 14 15  4  0  0  0  0
 15 16  1  0  0  0  0
 16 17  1  0  0  0  0
 17 18  1  0  0  0  0
 17 19  2  0  0  0  0
M  END
>  <Name_Molregno>
Diclofenac

>  <5-HT1A>
5

>  <5-HT1B>
5

>  <5-HT1D>
5

>  <5-HT1E>
5

>  <5-HT2A>
5

>  <5-HT3>
5

>  <5-HT5>
5

>  <5-HT6>
5

>  <5-HT7>
5

>  <Alpha-1A>
5

>  <Alpha-1B>
5

>  <Alpha-2A>
5

>  <Alpha-2B>
5

>  <Alpha-2C>
5

>  <DOPAMINE D1>
5

>  <DOPAMINE D2>
5

>  <DOPAMINE D4>
5

>  <DOPAMINE D5>
5

>  <HISTAMINE H1>
5

>  <HISTAMINE H2>
5

>  <Muscarinic acetylcholine receptor M2>
5

>  <Muscarinic acetylcholine receptor M5>
5

$$$$
Diphenhydramine
  Marvin  02231216192D 0   1.00000     0.00000     0

 19 20  0  0  0  0  0  0  0  0999 V2000
    0.5098    1.4209    0.0000 O   0  0  0  0  0  0  0  0  0
   -0.2047    1.0084    0.0000 C   0  0  0  0  0  0  0  0  0
   -0.9192    1.4209    0.0000 C   0  0  0  0  0  0  0  0  0
   -1.6337    1.0084    0.0000 C   0  0  0  0  0  0  0  0  0
   -2.3481    1.4209    0.0000 C   0  0  0  0  0  0  0  0  0
   -2.3481    2.2459    0.0000 C   0  0  0  0  0  0  0  0  0
   -1.6337    2.6584    0.0000 C   0  0  0  0  0  0  0  0  0
   -0.9192    2.2459    0.0000 C   0  0  0  0  0  0  0  0  0
   -0.2047    0.1834    0.0000 C   0  0  0  0  0  0  0  0  0
    0.5098   -0.2291    0.0000 C   0  0  0  0  0  0  0  0  0
    0.5098   -1.0541    0.0000 C   0  0  0  0  0  0  0  0  0
   -0.2047   -1.4666    0.0000 C   0  0  0  0  0  0  0  0  0
   -0.9192   -1.0541    0.0000 C   0  0  0  0  0  0  0  0  0
   -0.9192   -0.2291    0.0000 C   0  0  0  0  0  0  0  0  0
    1.2242    1.0084    0.0000 C   0  0  0  0  0  0  0  0  0
    1.9387    1.4209    0.0000 C   0  0  0  0  0  0  0  0  0
    2.6532    1.0084    0.0000 N   0  0  0  0  0  0  0  0  0
    3.3676    1.4209    0.0000 C   0  0  0  0  0  0  0  0  0
    2.6532    0.1834    0.0000 C   0  0  0  0  0  0  0  0  0
  1  2  1  0  0  0  0
  1 15  1  0  0  0  0
  2  3  1  0  0  0  0
  2  9  1  0  0  0  0
  3  4  4  0  0  0  0
  3  8  4  0  0  0  0
  4  5  4  0  0  0  0
  5  6  4  0  0  0  0
  6  7  4  0  0  0  0
  7  8  4  0  0  0  0
  9 10  4  0  0  0  0
  9 14  4  0  0  0  0
 10 11  4  0  0  0  0
 11 12  4  0  0  0  0
 12 13  4  0  0  0  0
 13 14  4  0  0  0  0
 15 16  1  0  0  0  0
 16 17  1  0  0  0  0
 17 18  1  0  0  0  0
 17 19  1  0  0  0  0
M  END
>  <Name_Molregno>
Diphenhydramine

>  <HISTAMINE H1>
7.78

>  <HISTAMINE H3>
5

>  <HISTAMINE H4>
5

>  <Muscarinic acetylcholine receptor M1>
7

>  <Muscarinic acetylcholine receptor M2>
6.92

>  <Muscarinic acetylcholine receptor M3>
6.64

>  <Muscarinic acetylcholine receptor M4>
6.95

>  <Muscarinic acetylcholine receptor M5>
6.59

$$$$
DL-homocysteine
  Marvin  02231216192D 0   1.00000     0.00000     0

  8  7  0  0  1  0  0  0  0  0999 V2000
   -0.0519    0.0021    0.0000 S   0  0  0  0  0  0  0  0  0
    0.6626    0.4146    0.0000 C   0  0  0  0  0  0  0  0  0
    1.3770    0.0021    0.0000 C   0  0  0  0  0  0  0  0  0
    2.0915    0.4146    0.0000 C   0  0  0  0  0  0  0  0  0
    2.0915    1.2396    0.0000 N   0  0  0  0  0  0  0  0  0
    2.8060    0.0021    0.0000 C   0  0  0  0  0  0  0  0  0
    3.5205    0.4146    0.0000 O   0  0  0  0  0  0  0  0  0
    2.8060   -0.8229    0.0000 O   0  0  0  0  0  0  0  0  0
  1  2  1  0  0  0  0
  2  3  1  0  0  0  0
  3  4  1  0  0  0  0
  4  5  1  0  0  0  0
  4  6  1  0  0  0  0
  6  7  1  0  0  0  0
  6  8  2  0  0  0  0
M  END
>  <Name_Molregno>
DL-homocysteine

>  <5-HT1A>
5

>  <5-HT1B>
5

>  <5-HT1D>
5

>  <5-HT3>
5

>  <5-HT5>
5

>  <5-HT6>
5

>  <5-HT7>
5

>  <Alpha-1A>
5

>  <Alpha-1B>
5

>  <Alpha-2A>
5

>  <Alpha-2B>
5

>  <Alpha-2C>
5

>  <DOPAMINE D1>
5

>  <DOPAMINE D2>
5

>  <DOPAMINE D3>
5

>  <DOPAMINE D5>
5

>  <Dopamine transporter>
5

>  <HISTAMINE H1>
5

>  <HISTAMINE H2>
5

>  <HISTAMINE H4>
5

>  <Muscarinic acetylcholine receptor M1>
5

>  <Muscarinic acetylcholine receptor M2>
5

>  <Muscarinic acetylcholine receptor M3>
5

>  <Muscarinic acetylcholine receptor M4>
5

>  <Muscarinic acetylcholine receptor M5>
5

>  <Norepinephrine transporter>
5

>  <Serotonin transporter>
5

$$$$
D-methionine
  Marvin  02231216192D 0   1.00000     0.00000     0

  9  8  0  0  1  0  0  0  0  0999 V2000
   -0.3763    1.2394    0.0000 S   0  0  0  0  0  0  0  0  0
    0.3381    0.8269    0.0000 C   0  0  0  0  0  0  0  0  0
    1.0526    1.2394    0.0000 C   0  0  0  0  0  0  0  0  0
    1.7671    0.8269    0.0000 C   0  0  0  0  0  0  0  0  0
    1.7671    0.0019    0.0000 N   0  0  0  0  0  0  0  0  0
    2.4816    1.2394    0.0000 C   0  0  0  0  0  0  0  0  0
    3.1960    0.8269    0.0000 O   0  0  0  0  0  0  0  0  0
    2.4816    2.0644    0.0000 O   0  0  0  0  0  0  0  0  0
   -1.0908    0.8269    0.0000 C   0  0  0  0  0  0  0  0  0
  1  2  1  0  0  0  0
  1  9  1  0  0  0  0
  2  3  1  0  0  0  0
  3  4  1  0  0  0  0
  4  5  1  0  0  0  0
  4  6  1  0  0  0  0
  6  7  1  0  0  0  0
  6  8  2  0  0  0  0
M  END
>  <Name_Molregno>
D-methionine

>  <5-HT1A>
5

>  <5-HT1B>
5

>  <5-HT1D>
5

>  <5-HT3>
5

>  <5-HT5>
5

>  <5-HT6>
5

>  <5-HT7>
5

>  <Alpha-1A>
5

>  <Alpha-1B>
5

>  <Alpha-2A>
5

>  <Alpha-2B>
5

>  <Alpha-2C>
5

>  <DOPAMINE D1>
5

>  <DOPAMINE D2>
5

>  <DOPAMINE D3>
5

>  <DOPAMINE D5>
5

>  <Dopamine transporter>
5

>  <HISTAMINE H1>
5

>  <HISTAMINE H2>
5

>  <HISTAMINE H4>
5

>  <Muscarinic acetylcholine receptor M1>
5

>  <Muscarinic acetylcholine receptor M2>
5

>  <Muscarinic acetylcholine receptor M3>
5

>  <Muscarinic acetylcholine receptor M4>
5

>  <Muscarinic acetylcholine receptor M5>
5

>  <Norepinephrine transporter>
5

>  <Serotonin transporter>
5

$$$$
DOXEPIN
  Marvin  02231216192D 0   1.00000     0.00000     0

 21 23  0  0  0  0  0  0  0  0999 V2000
    0.5748    0.1771    0.0000 O   0  0  0  0  0  0  0  0  0
    1.3998    0.1771    0.0000 C   0  0  0  0  0  0  0  0  0
    1.9142   -0.4679    0.0000 C   0  0  0  0  0  0  0  0  0
    1.7306   -1.2722    0.0000 C   0  0  0  0  0  0  0  0  0
    2.3354   -1.8333    0.0000 C   0  0  0  0  0  0  0  0  0
    3.1237   -1.5902    0.0000 C   0  0  0  0  0  0  0  0  0
    3.3073   -0.7858    0.0000 C   0  0  0  0  0  0  0  0  0
    2.7026   -0.2247    0.0000 C   0  0  0  0  0  0  0  0  0
    0.9873   -1.6301    0.0000 C   0  0  0  0  0  0  0  0  0
    0.2440   -1.2722    0.0000 C   0  0  0  0  0  0  0  0  0
    0.0604   -0.4679    0.0000 C   0  0  0  0  0  0  0  0  0
   -0.7279   -0.2247    0.0000 C   0  0  0  0  0  0  0  0  0
   -1.3327   -0.7858    0.0000 C   0  0  0  0  0  0  0  0  0
   -1.1491   -1.5902    0.0000 C   0  0  0  0  0  0  0  0  0
   -0.3607   -1.8333    0.0000 C   0  0  0  0  0  0  0  0  0
    0.9873   -2.4551    0.0000 C   0  0  0  0  0  0  0  0  0
    0.2729   -2.8676    0.0000 C   0  0  0  0  0  0  0  0  0
    0.2729   -3.6926    0.0000 C   0  0  0  0  0  0  0  0  0
   -0.4416   -4.1051    0.0000 N   0  0  0  0  0  0  0  0  0
   -0.4416   -4.9301    0.0000 C   0  0  0  0  0  0  0  0  0
   -1.1561   -3.6926    0.0000 C   0  0  0  0  0  0  0  0  0
  1  2  1  0  0  0  0
  1 11  1  0  0  0  0
  2  3  1  0  0  0  0
  3  4  4  0  0  0  0
  3  8  4  0  0  0  0
  4  5  4  0  0  0  0
  4  9  1  0  0  0  0
  5  6  4  0  0  0  0
  6  7  4  0  0  0  0
  7  8  4  0  0  0  0
  9 10  1  0  0  0  0
  9 16  2  0  0  0  0
 10 11  4  0  0  0  0
 10 15  4  0  0  0  0
 11 12  4  0  0  0  0
 12 13  4  0  0  0  0
 13 14  4  0  0  0  0
 14 15  4  0  0  0  0
 16 17  1  0  0  0  0
 17 18  1  0  0  0  0
 18 19  1  0  0  0  0
 19 20  1  0  0  0  0
 19 21  1  0  0  0  0
M  END
>  <Name_Molregno>
DOXEPIN

>  <5-HT1A>
6.56

>  <DOPAMINE D2>
6.44

>  <Dopamine transporter>
5

>  <HISTAMINE H1>
9.68

>  <HISTAMINE H4>
6.98

>  <Muscarinic acetylcholine receptor M1>
7.42

>  <Muscarinic acetylcholine receptor M2>
6.8

>  <Muscarinic acetylcholine receptor M3>
7.28

>  <Muscarinic acetylcholine receptor M4>
7.09

>  <Muscarinic acetylcholine receptor M5>
7.12

>  <Norepinephrine transporter>
7.53

>  <Serotonin transporter>
7.17

$$$$
Ephedrine
  Marvin  02231216192D 0   1.00000     0.00000     0

 12 12  0  0  1  0  0  0  0  0999 V2000
    1.9192   -0.0549    0.0000 O   0  0  0  0  0  0  0  0  0
    1.2047   -0.4674    0.0000 C   0  0  0  0  0  0  0  0  0
    0.4903   -0.0549    0.0000 C   0  0  0  0  0  0  0  0  0
    0.4903    0.7701    0.0000 N   0  0  0  0  0  0  0  0  0
   -0.2242    1.1826    0.0000 C   0  0  0  0  0  0  0  0  0
   -0.2242   -0.4674    0.0000 C   0  0  0  0  0  0  0  0  0
    1.2047   -1.2924    0.0000 C   0  0  0  0  0  0  0  0  0
    1.9192   -1.7049    0.0000 C   0  0  0  0  0  0  0  0  0
    1.9192   -2.5299    0.0000 C   0  0  0  0  0  0  0  0  0
    1.2047   -2.9424    0.0000 C   0  0  0  0  0  0  0  0  0
    0.4903   -2.5299    0.0000 C   0  0  0  0  0  0  0  0  0
    0.4903   -1.7049    0.0000 C   0  0  0  0  0  0  0  0  0
  1  2  1  0  0  0  0
  2  3  1  0  0  0  0
  2  7  1  0  0  0  0
  3  4  1  0  0  0  0
  3  6  1  0  0  0  0
  4  5  1  0  0  0  0
  7  8  4  0  0  0  0
  7 12  4  0  0  0  0
  8  9  4  0  0  0  0
  9 10  4  0  0  0  0
 10 11  4  0  0  0  0
 11 12  4  0  0  0  0
M  END
>  <Name_Molregno>
Ephedrine

>  <5-HT1A>
5

>  <5-HT1B>
5

>  <5-HT1D>
5

>  <5-HT1E>
5

>  <5-HT3>
5

>  <5-HT5>
5

>  <5-HT6>
5

>  <5-HT7>
5.33

>  <Alpha-1A>
5

>  <Alpha-1B>
5

>  <Alpha-2A>
5.17

>  <Alpha-2B>
5.48

>  <Alpha-2C>
5.51

>  <Beta-1>
5

>  <Beta-2>
5

>  <DOPAMINE D1>
5

>  <DOPAMINE D2>
5

>  <DOPAMINE D4>
5

>  <DOPAMINE D5>
5

>  <Dopamine transporter>
5.38

>  <HISTAMINE H1>
5

>  <HISTAMINE H2>
5

>  <HISTAMINE H4>
5

>  <Muscarinic acetylcholine receptor M1>
5

>  <Muscarinic acetylcholine receptor M2>
5

>  <Muscarinic acetylcholine receptor M3>
5

>  <Muscarinic acetylcholine receptor M4>
5

>  <Muscarinic acetylcholine receptor M5>
5

>  <Norepinephrine transporter>
5.79

>  <Serotonin transporter>
5

$$$$
ERGOTAMINE
  Marvin  02231216192D 0   1.00000     0.00000     0

 43 50  0  0  1  0  0  0  0  0999 V2000
   -2.1239   -1.0172    0.0000 O   0  0  0  0  0  0  0  0  0
   -1.3035   -1.1045    0.0000 C   0  0  0  0  0  0  0  0  0
   -1.3025   -0.2795    0.0000 N   0  0  0  0  0  0  0  0  0
   -0.5876    0.1322    0.0000 C   0  0  0  0  0  0  0  0  0
    0.1264   -0.2812    0.0000 O   0  0  0  0  0  0  0  0  0
   -0.5866    0.9572    0.0000 C   0  0  0  0  0  0  0  0  0
    0.1284    1.3688    0.0000 C   0  0  0  0  0  0  0  0  0
    0.1294    2.1938    0.0000 C   0  0  0  0  0  0  0  0  0
   -0.5846    2.6072    0.0000 C   0  0  0  0  0  0  0  0  0
   -1.2996    2.1955    0.0000 N   0  0  0  0  0  0  0  0  0
   -1.3006    1.3705    0.0000 C   0  0  0  0  0  0  0  0  0
   -2.0136    2.6089    0.0000 C   0  0  0  0  0  0  0  0  0
   -0.5831    3.4313    0.0000 C   0  0  0  0  0  0  0  0  0
    0.1294    3.8438    0.0000 C   0  0  0  0  0  0  0  0  0
    0.8419    3.4313    0.0000 C   0  0  0  0  0  0  0  0  0
    0.8419    2.6063    0.0000 C   0  0  0  0  0  0  0  0  0
    1.5597    2.1938    0.0000 C   0  0  0  0  0  0  0  0  0
    2.2722    2.6063    0.0000 C   0  0  0  0  0  0  0  0  0
    2.2722    3.4313    0.0000 C   0  0  0  0  0  0  0  0  0
    1.5597    3.8438    0.0000 C   0  0  0  0  0  0  0  0  0
    1.2544    4.7010    0.0000 N   0  0  0  0  0  0  0  0  0
    0.4294    4.7010    0.0000 C   0  0  0  0  0  0  0  0  0
   -0.4830   -1.0192    0.0000 C   0  0  0  0  0  0  0  0  0
   -1.1330   -1.9116    0.0000 C   0  0  0  0  0  0  0  0  0
   -0.3797   -2.2481    0.0000 O   0  0  0  0  0  0  0  0  0
   -1.8479   -2.3233    0.0000 N   0  0  0  0  0  0  0  0  0
   -2.0204   -3.1301    0.0000 C   0  0  0  0  0  0  0  0  0
   -1.4080   -3.6828    0.0000 C   0  0  0  0  0  0  0  0  0
   -1.5805   -4.4896    0.0000 C   0  0  0  0  0  0  0  0  0
   -0.9681   -5.0424    0.0000 C   0  0  0  0  0  0  0  0  0
   -1.1406   -5.8491    0.0000 C   0  0  0  0  0  0  0  0  0
   -1.9255   -6.1031    0.0000 C   0  0  0  0  0  0  0  0  0
   -2.5379   -5.5504    0.0000 C   0  0  0  0  0  0  0  0  0
   -2.3654   -4.7436    0.0000 C   0  0  0  0  0  0  0  0  0
   -2.8054   -3.3841    0.0000 C   0  0  0  0  0  0  0  0  0
   -2.9779   -4.1908    0.0000 O   0  0  0  0  0  0  0  0  0
   -3.4178   -2.8313    0.0000 N   0  0  0  0  0  0  0  0  0
   -3.2453   -2.0245    0.0000 C   0  0  0  0  0  0  0  0  0
   -3.9593   -1.6112    0.0000 C   0  0  0  0  0  0  0  0  0
   -4.5730   -2.1625    0.0000 C   0  0  0  0  0  0  0  0  0
   -4.2384   -2.9165    0.0000 C   0  0  0  0  0  0  0  0  0
   -2.4604   -1.7705    0.0000 C   0  0  0  0  0  0  0  0  0
   -3.0117   -1.1568    0.0000 O   0  0  0  0  0  0  0  0  0
  1  2  1  0  0  0  0
  1 42  1  0  0  0  0
  2  3  1  0  0  0  0
  2 23  1  0  0  0  0
  2 24  1  0  0  0  0
  3  4  1  0  0  0  0
  4  5  2  0  0  0  0
  4  6  1  0  0  0  0
  6  7  1  0  0  0  0
  6 11  1  0  0  0  0
  7  8  2  0  0  0  0
  8  9  1  0  0  0  0
  8 16  1  0  0  0  0
  9 10  1  0  0  0  0
  9 13  1  0  0  0  0
 10 11  1  0  0  0  0
 10 12  1  0  0  0  0
 13 14  1  0  0  0  0
 14 15  4  0  0  0  0
 14 22  4  0  0  0  0
 15 16  4  0  0  0  0
 15 20  4  0  0  0  0
 16 17  4  0  0  0  0
 17 18  4  0  0  0  0
 18 19  4  0  0  0  0
 19 20  4  0  0  0  0
 20 21  4  0  0  0  0
 21 22  4  0  0  0  0
 24 25  2  0  0  0  0
 24 26  1  0  0  0  0
 26 27  1  0  0  0  0
 26 42  1  0  0  0  0
 27 28  1  0  0  0  0
 27 35  1  0  0  0  0
 28 29  1  0  0  0  0
 29 30  4  0  0  0  0
 29 34  4  0  0  0  0
 30 31  4  0  0  0  0
 31 32  4  0  0  0  0
 32 33  4  0  0  0  0
 33 34  4  0  0  0  0
 35 36  2  0  0  0  0
 35 37  1  0  0  0  0
 37 38  1  0  0  0  0
 37 41  1  0  0  0  0
 38 39  1  0  0  0  0
 38 42  1  0  0  0  0
 39 40  1  0  0  0  0
 40 41  1  0  0  0  0
 42 43  1  0  0  0  0
M  STY  1   1 DAT
M  SAL   1  1  21
M  SDT   1 MRV_IMPLICIT_H                                        
M  SDD   1     0.0000    0.0000    DR    ALL  0       0  
M  SED   1 IMPL_H1
M  END
>  <Name_Molregno>
ERGOTAMINE

>  <5-HT1A>
9.77

>  <5-HT1B>
8.33

>  <5-HT1D>
9

>  <5-HT1E>
6.58

>  <5-HT2A>
9.1

>  <5-HT2C>
8.37

>  <5-HT3>
5

>  <5-HT6>
7.92

>  <5-HT7>
5.89

>  <Alpha-1A>
5

>  <Alpha-1B>
5

>  <Alpha-2A>
6.97

>  <Alpha-2B>
7.05

>  <Alpha-2C>
5

>  <Beta-1>
5

>  <Beta-2>
5

>  <DOPAMINE D1>
5

>  <DOPAMINE D2>
5

>  <DOPAMINE D4>
5

>  <DOPAMINE D5>
6.77

>  <Dopamine transporter>
5

>  <HISTAMINE H1>
5

>  <HISTAMINE H2>
5

>  <Muscarinic acetylcholine receptor M1>
6.06

>  <Muscarinic acetylcholine receptor M2>
6.04

>  <Muscarinic acetylcholine receptor M3>
5

>  <Muscarinic acetylcholine receptor M4>
5

>  <Muscarinic acetylcholine receptor M5>
5

>  <Norepinephrine transporter>
5

>  <Serotonin transporter>
5

$$$$
Ethosuximide
  Marvin  02231216192D 0   1.00000     0.00000     0

 10 10  0  0  1  0  0  0  0  0999 V2000
    1.8302   -1.3729    0.0000 O   0  0  0  0  0  0  0  0  0
    1.0456   -1.6278    0.0000 C   0  0  0  0  0  0  0  0  0
    0.7906   -2.4124    0.0000 N   0  0  0  0  0  0  0  0  0
   -0.0344   -2.4124    0.0000 C   0  0  0  0  0  0  0  0  0
   -0.5193   -3.0799    0.0000 O   0  0  0  0  0  0  0  0  0
   -0.2893   -1.6278    0.0000 C   0  0  0  0  0  0  0  0  0
    0.3781   -1.1429    0.0000 C   0  0  0  0  0  0  0  0  0
    0.7831   -0.4241    0.0000 C   0  0  0  0  0  0  0  0  0
    0.3632    0.2860    0.0000 C   0  0  0  0  0  0  0  0  0
   -0.0269   -0.4241    0.0000 C   0  0  0  0  0  0  0  0  0
  1  2  2  0  0  0  0
  2  3  1  0  0  0  0
  2  7  1  0  0  0  0
  3  4  1  0  0  0  0
  4  5  2  0  0  0  0
  4  6  1  0  0  0  0
  6  7  1  0  0  0  0
  7  8  1  0  0  0  0
  7 10  1  0  0  0  0
  8  9  1  0  0  0  0
M  END
>  <Name_Molregno>
Ethosuximide

>  <HISTAMINE H1>
5

$$$$
Etoperidone
  Marvin  02231216192D 0   1.00000     0.00000     0

 26 28  0  0  0  0  0  0  0  0999 V2000
    8.8513    2.0412    0.0000 Cl  0  0  0  0  0  0  0  0  0
    8.1368    2.4537    0.0000 C   0  0  0  0  0  0  0  0  0
    7.4223    2.0412    0.0000 C   0  0  0  0  0  0  0  0  0
    6.7079    2.4537    0.0000 C   0  0  0  0  0  0  0  0  0
    5.9934    2.0412    0.0000 N   0  0  0  0  0  0  0  0  0
    5.9934    1.2162    0.0000 C   0  0  0  0  0  0  0  0  0
    5.2789    0.8037    0.0000 C   0  0  0  0  0  0  0  0  0
    4.5644    1.2162    0.0000 N   0  0  0  0  0  0  0  0  0
    4.5644    2.0412    0.0000 C   0  0  0  0  0  0  0  0  0
    5.2789    2.4537    0.0000 C   0  0  0  0  0  0  0  0  0
    3.8500    0.8037    0.0000 C   0  0  0  0  0  0  0  0  0
    3.8500   -0.0213    0.0000 C   0  0  0  0  0  0  0  0  0
    3.1355   -0.4338    0.0000 C   0  0  0  0  0  0  0  0  0
    3.1355   -1.2588    0.0000 N   0  0  0  0  0  0  0  0  0
    3.8029   -1.7438    0.0000 N   0  0  0  0  0  0  0  0  0
    3.5480   -2.5284    0.0000 C   0  0  0  0  0  0  0  0  0
    2.7230   -2.5284    0.0000 N   0  0  0  0  0  0  0  0  0
    2.2381   -3.1958    0.0000 C   0  0  0  0  0  0  0  0  0
    2.5736   -3.9495    0.0000 C   0  0  0  0  0  0  0  0  0
    2.4681   -1.7438    0.0000 C   0  0  0  0  0  0  0  0  0
    1.6834   -1.4888    0.0000 O   0  0  0  0  0  0  0  0  0
    4.0329   -3.1958    0.0000 C   0  0  0  0  0  0  0  0  0
    3.6974   -3.9495    0.0000 C   0  0  0  0  0  0  0  0  0
    6.7079    3.2787    0.0000 C   0  0  0  0  0  0  0  0  0
    7.4223    3.6912    0.0000 C   0  0  0  0  0  0  0  0  0
    8.1368    3.2787    0.0000 C   0  0  0  0  0  0  0  0  0
  1  2  1  0  0  0  0
  2  3  4  0  0  0  0
  2 26  4  0  0  0  0
  3  4  4  0  0  0  0
  4  5  1  0  0  0  0
  4 24  4  0  0  0  0
  5  6  1  0  0  0  0
  5 10  1  0  0  0  0
  6  7  1  0  0  0  0
  7  8  1  0  0  0  0
  8  9  1  0  0  0  0
  8 11  1  0  0  0  0
  9 10  1  0  0  0  0
 11 12  1  0  0  0  0
 12 13  1  0  0  0  0
 13 14  1  0  0  0  0
 14 15  1  0  0  0  0
 14 20  1  0  0  0  0
 15 16  2  0  0  0  0
 16 17  1  0  0  0  0
 16 22  1  0  0  0  0
 17 18  1  0  0  0  0
 17 20  1  0  0  0  0
 18 19  1  0  0  0  0
 20 21  2  0  0  0  0
 22 23  1  0  0  0  0
 24 25  4  0  0  0  0
 25 26  4  0  0  0  0
M  END
>  <Name_Molregno>
Etoperidone

>  <5-HT1A>
7.07

>  <DOPAMINE D2>
5.64

>  <Dopamine transporter>
5

>  <HISTAMINE H1>
5.51

>  <Muscarinic acetylcholine receptor M1>
5

>  <Muscarinic acetylcholine receptor M2>
5

>  <Muscarinic acetylcholine receptor M3>
5

>  <Muscarinic acetylcholine receptor M4>
5

>  <Muscarinic acetylcholine receptor M5>
5

>  <Norepinephrine transporter>
5

>  <Serotonin transporter>
6.05

$$$$
Femoxetine
  Marvin  02231216192D 0   1.00000     0.00000     0

 23 25  0  0  1  0  0  0  0  0999 V2000
    0.2450    1.0399    0.0000 O   0  0  0  0  0  0  0  0  0
    0.9594    0.6274    0.0000 C   0  0  0  0  0  0  0  0  0
    0.9594   -0.1976    0.0000 C   0  0  0  0  0  0  0  0  0
    1.6739   -0.6101    0.0000 C   0  0  0  0  0  0  0  0  0
    1.6739   -1.4351    0.0000 N   0  0  0  0  0  0  0  0  0
    0.9594   -1.8476    0.0000 C   0  0  0  0  0  0  0  0  0
    0.2450   -1.4351    0.0000 C   0  0  0  0  0  0  0  0  0
    0.2450   -0.6101    0.0000 C   0  0  0  0  0  0  0  0  0
   -0.4695   -0.1976    0.0000 C   0  0  0  0  0  0  0  0  0
   -1.1840   -0.6101    0.0000 C   0  0  0  0  0  0  0  0  0
   -1.8985   -0.1976    0.0000 C   0  0  0  0  0  0  0  0  0
   -1.8985    0.6274    0.0000 C   0  0  0  0  0  0  0  0  0
   -1.1840    1.0399    0.0000 C   0  0  0  0  0  0  0  0  0
   -0.4695    0.6274    0.0000 C   0  0  0  0  0  0  0  0  0
    2.3884   -1.8476    0.0000 C   0  0  0  0  0  0  0  0  0
    0.2450    1.8649    0.0000 C   0  0  0  0  0  0  0  0  0
   -0.4695    2.2774    0.0000 C   0  0  0  0  0  0  0  0  0
   -0.4695    3.1024    0.0000 C   0  0  0  0  0  0  0  0  0
    0.2450    3.5149    0.0000 C   0  0  0  0  0  0  0  0  0
    0.2450    4.3399    0.0000 O   0  0  0  0  0  0  0  0  0
   -0.4695    4.7524    0.0000 C   0  0  0  0  0  0  0  0  0
    0.9594    3.1024    0.0000 C   0  0  0  0  0  0  0  0  0
    0.9594    2.2774    0.0000 C   0  0  0  0  0  0  0  0  0
  1  2  1  0  0  0  0
  1 16  1  0  0  0  0
  2  3  1  0  0  0  0
  3  4  1  0  0  0  0
  3  8  1  0  0  0  0
  4  5  1  0  0  0  0
  5  6  1  0  0  0  0
  5 15  1  0  0  0  0
  6  7  1  0  0  0  0
  7  8  1  0  0  0  0
  8  9  1  0  0  0  0
  9 10  4  0  0  0  0
  9 14  4  0  0  0  0
 10 11  4  0  0  0  0
 11 12  4  0  0  0  0
 12 13  4  0  0  0  0
 13 14  4  0  0  0  0
 16 17  4  0  0  0  0
 16 23  4  0  0  0  0
 17 18  4  0  0  0  0
 18 19  4  0  0  0  0
 19 20  1  0  0  0  0
 19 22  4  0  0  0  0
 20 21  1  0  0  0  0
 22 23  4  0  0  0  0
M  END
>  <Name_Molregno>
Femoxetine

>  <5-HT1A>
5.64

>  <DOPAMINE D2>
6.23

>  <Dopamine transporter>
5.69

>  <HISTAMINE H1>
5.38

>  <Muscarinic acetylcholine receptor M1>
7.04

>  <Muscarinic acetylcholine receptor M2>
6.82

>  <Muscarinic acetylcholine receptor M3>
6.66

>  <Muscarinic acetylcholine receptor M4>
6.33

>  <Muscarinic acetylcholine receptor M5>
6.4

>  <Norepinephrine transporter>
6.12

>  <Serotonin transporter>
7.96

$$$$
Fexofenadine
  Marvin  02231216192D 0   1.00000     0.00000     0

 37 40  0  0  1  0  0  0  0  0999 V2000
   -3.4630    2.6408    0.0000 O   0  0  0  0  0  0  0  0  0
   -2.6380    2.6408    0.0000 C   0  0  0  0  0  0  0  0  0
   -2.6380    1.8158    0.0000 C   0  0  0  0  0  0  0  0  0
   -1.9235    1.4033    0.0000 C   0  0  0  0  0  0  0  0  0
   -1.9235    0.5783    0.0000 C   0  0  0  0  0  0  0  0  0
   -2.6380    0.1658    0.0000 N   0  0  0  0  0  0  0  0  0
   -3.3524    0.5783    0.0000 C   0  0  0  0  0  0  0  0  0
   -3.3524    1.4033    0.0000 C   0  0  0  0  0  0  0  0  0
   -2.6380   -0.6592    0.0000 C   0  0  0  0  0  0  0  0  0
   -3.3524   -1.0717    0.0000 C   0  0  0  0  0  0  0  0  0
   -3.3524   -1.8967    0.0000 C   0  0  0  0  0  0  0  0  0
   -4.0669   -2.3092    0.0000 C   0  0  0  0  0  0  0  0  0
   -4.7814   -1.8967    0.0000 O   0  0  0  0  0  0  0  0  0
   -4.0669   -3.1342    0.0000 C   0  0  0  0  0  0  0  0  0
   -3.3524   -3.5467    0.0000 C   0  0  0  0  0  0  0  0  0
   -3.3524   -4.3717    0.0000 C   0  0  0  0  0  0  0  0  0
   -4.0669   -4.7842    0.0000 C   0  0  0  0  0  0  0  0  0
   -4.7814   -4.3717    0.0000 C   0  0  0  0  0  0  0  0  0
   -4.7814   -3.5467    0.0000 C   0  0  0  0  0  0  0  0  0
   -4.0669   -5.6092    0.0000 C   0  0  0  0  0  0  0  0  0
   -4.0669   -6.4342    0.0000 C   0  0  0  0  0  0  0  0  0
   -4.7814   -6.8467    0.0000 O   0  0  0  0  0  0  0  0  0
   -3.3524   -6.8467    0.0000 O   0  0  0  0  0  0  0  0  0
   -3.2419   -5.6092    0.0000 C   0  0  0  0  0  0  0  0  0
   -4.8919   -5.6092    0.0000 C   0  0  0  0  0  0  0  0  0
   -2.6380    3.4658    0.0000 C   0  0  0  0  0  0  0  0  0
   -3.3524    3.8783    0.0000 C   0  0  0  0  0  0  0  0  0
   -3.3524    4.7033    0.0000 C   0  0  0  0  0  0  0  0  0
   -2.6380    5.1158    0.0000 C   0  0  0  0  0  0  0  0  0
   -1.9235    4.7033    0.0000 C   0  0  0  0  0  0  0  0  0
   -1.9235    3.8783    0.0000 C   0  0  0  0  0  0  0  0  0
   -1.8130    2.6408    0.0000 C   0  0  0  0  0  0  0  0  0
   -1.4005    3.3552    0.0000 C   0  0  0  0  0  0  0  0  0
   -0.5755    3.3552    0.0000 C   0  0  0  0  0  0  0  0  0
   -0.1630    2.6408    0.0000 C   0  0  0  0  0  0  0  0  0
   -0.5755    1.9263    0.0000 C   0  0  0  0  0  0  0  0  0
   -1.4005    1.9263    0.0000 C   0  0  0  0  0  0  0  0  0
  1  2  1  0  0  0  0
  2  3  1  0  0  0  0
  2 26  1  0  0  0  0
  2 32  1  0  0  0  0
  3  4  1  0  0  0  0
  3  8  1  0  0  0  0
  4  5  1  0  0  0  0
  5  6  1  0  0  0  0
  6  7  1  0  0  0  0
  6  9  1  0  0  0  0
  7  8  1  0  0  0  0
  9 10  1  0  0  0  0
 10 11  1  0  0  0  0
 11 12  1  0  0  0  0
 12 13  1  0  0  0  0
 12 14  1  0  0  0  0
 14 15  4  0  0  0  0
 14 19  4  0  0  0  0
 15 16  4  0  0  0  0
 16 17  4  0  0  0  0
 17 18  4  0  0  0  0
 17 20  1  0  0  0  0
 18 19  4  0  0  0  0
 20 21  1  0  0  0  0
 20 24  1  0  0  0  0
 20 25  1  0  0  0  0
 21 22  1  0  0  0  0
 21 23  2  0  0  0  0
 26 27  4  0  0  0  0
 26 31  4  0  0  0  0
 27 28  4  0  0  0  0
 28 29  4  0  0  0  0
 29 30  4  0  0  0  0
 30 31  4  0  0  0  0
 32 33  4  0  0  0  0
 32 37  4  0  0  0  0
 33 34  4  0  0  0  0
 34 35  4  0  0  0  0
 35 36  4  0  0  0  0
 36 37  4  0  0  0  0
M  END
>  <Name_Molregno>
Fexofenadine

>  <HISTAMINE H1>
7.71

$$$$
FLUOXETINE
  Marvin  02231216192D 0   1.00000     0.00000     0

 22 23  0  0  1  0  0  0  0  0999 V2000
    0.2470    0.2265    0.0000 F   0  0  0  0  0  0  0  0  0
    0.9615   -0.1860    0.0000 C   0  0  0  0  0  0  0  0  0
    0.5490   -0.9005    0.0000 F   0  0  0  0  0  0  0  0  0
    1.3740    0.5285    0.0000 F   0  0  0  0  0  0  0  0  0
    1.6760   -0.5985    0.0000 C   0  0  0  0  0  0  0  0  0
    2.3904   -0.1860    0.0000 C   0  0  0  0  0  0  0  0  0
    3.1049   -0.5985    0.0000 C   0  0  0  0  0  0  0  0  0
    3.1049   -1.4235    0.0000 C   0  0  0  0  0  0  0  0  0
    3.8194   -1.8360    0.0000 O   0  0  0  0  0  0  0  0  0
    4.5339   -1.4235    0.0000 C   0  0  0  0  0  0  0  0  0
    5.2483   -1.8360    0.0000 C   0  0  0  0  0  0  0  0  0
    5.9628   -1.4235    0.0000 C   0  0  0  0  0  0  0  0  0
    6.6773   -1.8360    0.0000 N   0  0  0  0  0  0  0  0  0
    7.3917   -1.4235    0.0000 C   0  0  0  0  0  0  0  0  0
    4.5339   -0.5985    0.0000 C   0  0  0  0  0  0  0  0  0
    3.8194   -0.1860    0.0000 C   0  0  0  0  0  0  0  0  0
    3.8194    0.6390    0.0000 C   0  0  0  0  0  0  0  0  0
    4.5339    1.0515    0.0000 C   0  0  0  0  0  0  0  0  0
    5.2483    0.6390    0.0000 C   0  0  0  0  0  0  0  0  0
    5.2483   -0.1860    0.0000 C   0  0  0  0  0  0  0  0  0
    2.3904   -1.8360    0.0000 C   0  0  0  0  0  0  0  0  0
    1.6760   -1.4235    0.0000 C   0  0  0  0  0  0  0  0  0
  1  2  1  0  0  0  0
  2  3  1  0  0  0  0
  2  4  1  0  0  0  0
  2  5  1  0  0  0  0
  5  6  4  0  0  0  0
  5 22  4  0  0  0  0
  6  7  4  0  0  0  0
  7  8  4  0  0  0  0
  8  9  1  0  0  0  0
  8 21  4  0  0  0  0
  9 10  1  0  0  0  0
 10 11  1  0  0  0  0
 10 15  1  0  0  0  0
 11 12  1  0  0  0  0
 12 13  1  0  0  0  0
 13 14  1  0  0  0  0
 15 16  4  0  0  0  0
 15 20  4  0  0  0  0
 16 17  4  0  0  0  0
 17 18  4  0  0  0  0
 18 19  4  0  0  0  0
 19 20  4  0  0  0  0
 21 22  4  0  0  0  0
M  END
>  <Name_Molregno>
FLUOXETINE

>  <5-HT1A>
5

>  <5-HT2A>
6.72

>  <5-HT2C>
6.67

>  <Alpha-2A>
8.2

>  <DOPAMINE D2>
5

>  <Dopamine transporter>
5.32

>  <HISTAMINE H1>
5.62

>  <HISTAMINE H3>
5.14

>  <Muscarinic acetylcholine receptor M1>
6.05

>  <Muscarinic acetylcholine receptor M2>
5.57

>  <Muscarinic acetylcholine receptor M3>
6

>  <Muscarinic acetylcholine receptor M4>
5.54

>  <Muscarinic acetylcholine receptor M5>
5.57

>  <Norepinephrine transporter>
6.05

>  <Serotonin transporter>
8.57

$$$$
FLUPENTHIXOL-Alpha
  Marvin  02231216192D 0   1.00000     0.00000     0

 30 33  0  0  0  0  0  0  0  0999 V2000
    2.2729   -3.8406    0.0000 S   0  0  0  0  0  0  0  0  0
    2.9874   -3.4281    0.0000 C   0  0  0  0  0  0  0  0  0
    2.9874   -2.6031    0.0000 C   0  0  0  0  0  0  0  0  0
    3.7018   -2.1906    0.0000 C   0  0  0  0  0  0  0  0  0
    4.4163   -2.6031    0.0000 C   0  0  0  0  0  0  0  0  0
    4.4163   -3.4281    0.0000 C   0  0  0  0  0  0  0  0  0
    3.7018   -3.8406    0.0000 C   0  0  0  0  0  0  0  0  0
    5.1308   -2.1906    0.0000 C   0  0  0  0  0  0  0  0  0
    5.8453   -1.7781    0.0000 F   0  0  0  0  0  0  0  0  0
    4.7183   -1.4762    0.0000 F   0  0  0  0  0  0  0  0  0
    5.5433   -2.9051    0.0000 F   0  0  0  0  0  0  0  0  0
    2.2729   -2.1906    0.0000 C   0  0  0  0  0  0  0  0  0
    1.5584   -2.6031    0.0000 C   0  0  0  0  0  0  0  0  0
    1.5584   -3.4281    0.0000 C   0  0  0  0  0  0  0  0  0
    0.8440   -3.8406    0.0000 C   0  0  0  0  0  0  0  0  0
    0.1295   -3.4281    0.0000 C   0  0  0  0  0  0  0  0  0
    0.1295   -2.6031    0.0000 C   0  0  0  0  0  0  0  0  0
    0.8440   -2.1906    0.0000 C   0  0  0  0  0  0  0  0  0
    2.2729   -1.3656    0.0000 C   0  0  0  0  0  0  0  0  0
    1.5584   -0.9531    0.0000 C   0  0  0  0  0  0  0  0  0
    0.8440   -1.3656    0.0000 C   0  0  0  0  0  0  0  0  0
    0.1295   -0.9531    0.0000 N   0  0  0  0  0  0  0  0  0
   -0.5850   -1.3656    0.0000 C   0  0  0  0  0  0  0  0  0
   -1.2994   -0.9531    0.0000 C   0  0  0  0  0  0  0  0  0
   -1.2994   -0.1281    0.0000 N   0  0  0  0  0  0  0  0  0
   -0.5850    0.2844    0.0000 C   0  0  0  0  0  0  0  0  0
    0.1295   -0.1281    0.0000 C   0  0  0  0  0  0  0  0  0
   -2.0139    0.2844    0.0000 C   0  0  0  0  0  0  0  0  0
   -2.0139    1.1094    0.0000 C   0  0  0  0  0  0  0  0  0
   -2.7284    1.5219    0.0000 O   0  0  0  0  0  0  0  0  0
  1  2  1  0  0  0  0
  1 14  1  0  0  0  0
  2  3  4  0  0  0  0
  2  7  4  0  0  0  0
  3  4  4  0  0  0  0
  3 12  1  0  0  0  0
  4  5  4  0  0  0  0
  5  6  4  0  0  0  0
  5  8  1  0  0  0  0
  6  7  4  0  0  0  0
  8  9  1  0  0  0  0
  8 10  1  0  0  0  0
  8 11  1  0  0  0  0
 12 13  1  0  0  0  0
 12 19  2  0  0  0  0
 13 14  4  0  0  0  0
 13 18  4  0  0  0  0
 14 15  4  0  0  0  0
 15 16  4  0  0  0  0
 16 17  4  0  0  0  0
 17 18  4  0  0  0  0
 19 20  1  0  0  0  0
 20 21  1  0  0  0  0
 21 22  1  0  0  0  0
 22 23  1  0  0  0  0
 22 27  1  0  0  0  0
 23 24  1  0  0  0  0
 24 25  1  0  0  0  0
 25 26  1  0  0  0  0
 25 28  1  0  0  0  0
 26 27  1  0  0  0  0
 28 29  1  0  0  0  0
 29 30  1  0  0  0  0
M  END
>  <Name_Molregno>
FLUPENTHIXOL-Alpha

>  <5-HT1A>
5.1

>  <5-HT2A>
7.06

>  <DOPAMINE D1>
8.44

>  <DOPAMINE D2>
8.74

>  <DOPAMINE D3>
8.15

>  <DOPAMINE D4>
7.23

>  <DOPAMINE D5>
8.1

>  <HISTAMINE H1>
8.65

$$$$
FLUPHENAZINE
  Marvin  02231216192D 0   1.00000     0.00000     0

 38 41  0  0  0  0  0  0  0  0999 V2000
   -7.1492   -1.5262    0.0000 S   0  0  0  0  0  0  0  0  0
   -7.1492   -2.3512    0.0000 C   0  0  0  0  0  0  0  0  0
   -6.4348   -2.7637    0.0000 C   0  0  0  0  0  0  0  0  0
   -5.7203   -2.3512    0.0000 N   0  0  0  0  0  0  0  0  0
   -5.7203   -1.5262    0.0000 C   0  0  0  0  0  0  0  0  0
   -6.4348   -1.1137    0.0000 C   0  0  0  0  0  0  0  0  0
   -6.4348   -0.2887    0.0000 C   0  0  0  0  0  0  0  0  0
   -5.7203    0.1238    0.0000 C   0  0  0  0  0  0  0  0  0
   -5.0058   -0.2887    0.0000 C   0  0  0  0  0  0  0  0  0
   -5.0058   -1.1137    0.0000 C   0  0  0  0  0  0  0  0  0
   -5.0058   -2.7637    0.0000 C   0  0  0  0  0  0  0  0  0
   -4.2914   -2.3512    0.0000 C   0  0  0  0  0  0  0  0  0
   -3.5769   -2.7637    0.0000 C   0  0  0  0  0  0  0  0  0
   -2.8624   -2.3512    0.0000 N   0  0  0  0  0  0  0  0  0
   -2.8624   -1.5262    0.0000 C   0  0  0  0  0  0  0  0  0
   -2.1479   -1.1137    0.0000 C   0  0  0  0  0  0  0  0  0
   -1.4335   -1.5262    0.0000 N   0  0  0  0  0  0  0  0  0
   -1.4335   -2.3512    0.0000 C   0  0  0  0  0  0  0  0  0
   -2.1479   -2.7637    0.0000 C   0  0  0  0  0  0  0  0  0
   -0.7190   -1.1137    0.0000 C   0  0  0  0  0  0  0  0  0
   -0.0045   -1.5262    0.0000 C   0  0  0  0  0  0  0  0  0
    0.7099   -1.1137    0.0000 O   0  0  0  0  0  0  0  0  0
    1.4244   -1.5262    0.0000 C   0  0  0  0  0  0  0  0  0
    1.4244   -2.3512    0.0000 O   0  0  0  0  0  0  0  0  0
    2.1389   -1.1137    0.0000 C   0  0  0  0  0  0  0  0  0
    2.8534   -1.5262    0.0000 C   0  0  0  0  0  0  0  0  0
    3.5678   -1.1137    0.0000 C   0  0  0  0  0  0  0  0  0
    4.2823   -1.5262    0.0000 C   0  0  0  0  0  0  0  0  0
    4.9968   -1.1137    0.0000 C   0  0  0  0  0  0  0  0  0
    5.7112   -1.5262    0.0000 C   0  0  0  0  0  0  0  0  0
   -6.4348   -3.5887    0.0000 C   0  0  0  0  0  0  0  0  0
   -7.1492   -4.0012    0.0000 C   0  0  0  0  0  0  0  0  0
   -7.8637   -3.5887    0.0000 C   0  0  0  0  0  0  0  0  0
   -7.8637   -2.7637    0.0000 C   0  0  0  0  0  0  0  0  0
   -7.1492   -4.8262    0.0000 C   0  0  0  0  0  0  0  0  0
   -7.1492   -5.6512    0.0000 F   0  0  0  0  0  0  0  0  0
   -7.9742   -4.8262    0.0000 F   0  0  0  0  0  0  0  0  0
   -6.3242   -4.8262    0.0000 F   0  0  0  0  0  0  0  0  0
  1  2  1  0  0  0  0
  1  6  1  0  0  0  0
  2  3  4  0  0  0  0
  2 34  4  0  0  0  0
  3  4  1  0  0  0  0
  3 31  4  0  0  0  0
  4  5  1  0  0  0  0
  4 11  1  0  0  0  0
  5  6  4  0  0  0  0
  5 10  4  0  0  0  0
  6  7  4  0  0  0  0
  7  8  4  0  0  0  0
  8  9  4  0  0  0  0
  9 10  4  0  0  0  0
 11 12  1  0  0  0  0
 12 13  1  0  0  0  0
 13 14  1  0  0  0  0
 14 15  1  0  0  0  0
 14 19  1  0  0  0  0
 15 16  1  0  0  0  0
 16 17  1  0  0  0  0
 17 18  1  0  0  0  0
 17 20  1  0  0  0  0
 18 19  1  0  0  0  0
 20 21  1  0  0  0  0
 21 22  1  0  0  0  0
 22 23  1  0  0  0  0
 23 24  2  0  0  0  0
 23 25  1  0  0  0  0
 25 26  1  0  0  0  0
 26 27  1  0  0  0  0
 27 28  1  0  0  0  0
 28 29  1  0  0  0  0
 29 30  1  0  0  0  0
 31 32  4  0  0  0  0
 32 33  4  0  0  0  0
 32 35  1  0  0  0  0
 33 34  4  0  0  0  0
 35 36  1  0  0  0  0
 35 37  1  0  0  0  0
 35 38  1  0  0  0  0
M  END
>  <Name_Molregno>
FLUPHENAZINE

>  <5-HT1A>
6.41

>  <5-HT1B>
6.48

>  <5-HT1D>
6.48

>  <5-HT1E>
6.27

>  <5-HT2A>
7.87

>  <5-HT2C>
6.05

>  <5-HT3>
5

>  <5-HT5>
6.84

>  <5-HT6>
7.46

>  <5-HT7>
8.1

>  <Alpha-1A>
8.19

>  <Alpha-1B>
7.89

>  <Alpha-2A>
6.5

>  <Alpha-2B>
7.09

>  <Alpha-2C>
7.54

>  <Beta-1>
5

>  <Beta-2>
5

>  <DOPAMINE D1>
7.55

>  <DOPAMINE D2>
9.22

>  <DOPAMINE D3>
9.33

>  <DOPAMINE D4>
7.52

>  <DOPAMINE D5>
7.82

>  <Dopamine transporter>
5

>  <HISTAMINE H1>
7.72

>  <HISTAMINE H2>
6.25

>  <HISTAMINE H3>
6

>  <HISTAMINE H4>
5

>  <Muscarinic acetylcholine receptor M1>
5.96

>  <Muscarinic acetylcholine receptor M2>
5.14

>  <Muscarinic acetylcholine receptor M3>
5.84

>  <Muscarinic acetylcholine receptor M4>
5.27

>  <Muscarinic acetylcholine receptor M5>
6.45

>  <Norepinephrine transporter>
5.51

>  <Serotonin transporter>
5.23

$$$$
FLUPHENAZINE-2
  Marvin  02231216192D 0   1.00000     0.00000     0

 30 33  0  0  0  0  0  0  0  0999 V2000
    2.0347   -4.2531    0.0000 S   0  0  0  0  0  0  0  0  0
    2.7492   -3.8406    0.0000 C   0  0  0  0  0  0  0  0  0
    2.7492   -3.0156    0.0000 C   0  0  0  0  0  0  0  0  0
    2.0347   -2.6031    0.0000 N   0  0  0  0  0  0  0  0  0
    1.3203   -3.0156    0.0000 C   0  0  0  0  0  0  0  0  0
    1.3203   -3.8406    0.0000 C   0  0  0  0  0  0  0  0  0
    0.6058   -4.2531    0.0000 C   0  0  0  0  0  0  0  0  0
   -0.1087   -3.8406    0.0000 C   0  0  0  0  0  0  0  0  0
   -0.1087   -3.0156    0.0000 C   0  0  0  0  0  0  0  0  0
    0.6058   -2.6031    0.0000 C   0  0  0  0  0  0  0  0  0
    2.0347   -1.7781    0.0000 C   0  0  0  0  0  0  0  0  0
    1.3203   -1.3656    0.0000 C   0  0  0  0  0  0  0  0  0
    1.3203   -0.5406    0.0000 C   0  0  0  0  0  0  0  0  0
    0.6058   -0.1281    0.0000 N   0  0  0  0  0  0  0  0  0
   -0.1087   -0.5406    0.0000 C   0  0  0  0  0  0  0  0  0
   -0.8231   -0.1281    0.0000 C   0  0  0  0  0  0  0  0  0
   -0.8231    0.6969    0.0000 N   0  0  0  0  0  0  0  0  0
   -0.1087    1.1094    0.0000 C   0  0  0  0  0  0  0  0  0
    0.6058    0.6969    0.0000 C   0  0  0  0  0  0  0  0  0
   -1.5376    1.1094    0.0000 C   0  0  0  0  0  0  0  0  0
   -1.5376    1.9344    0.0000 C   0  0  0  0  0  0  0  0  0
   -2.2521    2.3469    0.0000 O   0  0  0  0  0  0  0  0  0
    3.4637   -2.6031    0.0000 C   0  0  0  0  0  0  0  0  0
    4.1782   -3.0156    0.0000 C   0  0  0  0  0  0  0  0  0
    4.1782   -3.8406    0.0000 C   0  0  0  0  0  0  0  0  0
    3.4637   -4.2531    0.0000 C   0  0  0  0  0  0  0  0  0
    4.8926   -2.6031    0.0000 C   0  0  0  0  0  0  0  0  0
    5.6071   -2.1906    0.0000 F   0  0  0  0  0  0  0  0  0
    5.3051   -3.3176    0.0000 F   0  0  0  0  0  0  0  0  0
    4.4801   -1.8887    0.0000 F   0  0  0  0  0  0  0  0  0
  1  2  1  0  0  0  0
  1  6  1  0  0  0  0
  2  3  4  0  0  0  0
  2 26  4  0  0  0  0
  3  4  1  0  0  0  0
  3 23  4  0  0  0  0
  4  5  1  0  0  0  0
  4 11  1  0  0  0  0
  5  6  4  0  0  0  0
  5 10  4  0  0  0  0
  6  7  4  0  0  0  0
  7  8  4  0  0  0  0
  8  9  4  0  0  0  0
  9 10  4  0  0  0  0
 11 12  1  0  0  0  0
 12 13  1  0  0  0  0
 13 14  1  0  0  0  0
 14 15  1  0  0  0  0
 14 19  1  0  0  0  0
 15 16  1  0  0  0  0
 16 17  1  0  0  0  0
 17 18  1  0  0  0  0
 17 20  1  0  0  0  0
 18 19  1  0  0  0  0
 20 21  1  0  0  0  0
 21 22  1  0  0  0  0
 23 24  4  0  0  0  0
 24 25  4  0  0  0  0
 24 27  1  0  0  0  0
 25 26  4  0  0  0  0
 27 28  1  0  0  0  0
 27 29  1  0  0  0  0
 27 30  1  0  0  0  0
M  END
>  <Name_Molregno>
FLUPHENAZINE-2

>  <5-HT6>
7.3

>  <DOPAMINE D1>
6.75

>  <DOPAMINE D2>
8.84

>  <DOPAMINE D3>
8.49

>  <DOPAMINE D5>
7.68

>  <HISTAMINE H1>
7.4

>  <HISTAMINE H3>
6

$$$$
FLUSPIRILENE
  Marvin  02231216192D 0   1.00000     0.00000     0

 35 39  0  0  0  0  0  0  0  0999 V2000
    3.1924   -2.1696    0.0000 F   0  0  0  0  0  0  0  0  0
    2.3674   -2.1696    0.0000 C   0  0  0  0  0  0  0  0  0
    1.9549   -2.8841    0.0000 C   0  0  0  0  0  0  0  0  0
    1.1299   -2.8841    0.0000 C   0  0  0  0  0  0  0  0  0
    0.7174   -2.1696    0.0000 C   0  0  0  0  0  0  0  0  0
    1.1299   -1.4552    0.0000 C   0  0  0  0  0  0  0  0  0
    1.9549   -1.4552    0.0000 C   0  0  0  0  0  0  0  0  0
   -0.1076   -2.1696    0.0000 C   0  0  0  0  0  0  0  0  0
   -0.5201   -2.8841    0.0000 C   0  0  0  0  0  0  0  0  0
   -1.3451   -2.8841    0.0000 C   0  0  0  0  0  0  0  0  0
   -1.7576   -3.5986    0.0000 C   0  0  0  0  0  0  0  0  0
   -2.5826   -3.5986    0.0000 N   0  0  0  0  0  0  0  0  0
   -2.9951   -4.3130    0.0000 C   0  0  0  0  0  0  0  0  0
   -3.8201   -4.3130    0.0000 C   0  0  0  0  0  0  0  0  0
   -4.2326   -3.5986    0.0000 C   0  0  0  0  0  0  0  0  0
   -4.7175   -4.2660    0.0000 N   0  0  0  0  0  0  0  0  0
   -5.5021   -4.0111    0.0000 C   0  0  0  0  0  0  0  0  0
   -5.5021   -3.1861    0.0000 N   0  0  0  0  0  0  0  0  0
   -4.7175   -2.9311    0.0000 C   0  0  0  0  0  0  0  0  0
   -4.4626   -2.1465    0.0000 O   0  0  0  0  0  0  0  0  0
   -4.4626   -5.0506    0.0000 C   0  0  0  0  0  0  0  0  0
   -3.6556   -5.2222    0.0000 C   0  0  0  0  0  0  0  0  0
   -3.4007   -6.0068    0.0000 C   0  0  0  0  0  0  0  0  0
   -3.9527   -6.6199    0.0000 C   0  0  0  0  0  0  0  0  0
   -4.7597   -6.4483    0.0000 C   0  0  0  0  0  0  0  0  0
   -5.0146   -5.6637    0.0000 C   0  0  0  0  0  0  0  0  0
   -3.8201   -2.8841    0.0000 C   0  0  0  0  0  0  0  0  0
   -2.9951   -2.8841    0.0000 C   0  0  0  0  0  0  0  0  0
   -0.5201   -1.4552    0.0000 C   0  0  0  0  0  0  0  0  0
   -1.3451   -1.4552    0.0000 C   0  0  0  0  0  0  0  0  0
   -1.7576   -0.7407    0.0000 C   0  0  0  0  0  0  0  0  0
   -1.3451   -0.0262    0.0000 C   0  0  0  0  0  0  0  0  0
   -1.7576    0.6883    0.0000 F   0  0  0  0  0  0  0  0  0
   -0.5201   -0.0262    0.0000 C   0  0  0  0  0  0  0  0  0
   -0.1076   -0.7407    0.0000 C   0  0  0  0  0  0  0  0  0
  1  2  1  0  0  0  0
  2  3  4  0  0  0  0
  2  7  4  0  0  0  0
  3  4  4  0  0  0  0
  4  5  4  0  0  0  0
  5  6  4  0  0  0  0
  5  8  1  0  0  0  0
  6  7  4  0  0  0  0
  8  9  1  0  0  0  0
  8 29  1  0  0  0  0
  9 10  1  0  0  0  0
 10 11  1  0  0  0  0
 11 12  1  0  0  0  0
 12 13  1  0  0  0  0
 12 28  1  0  0  0  0
 13 14  1  0  0  0  0
 14 15  1  0  0  0  0
 15 16  1  0  0  0  0
 15 19  1  0  0  0  0
 15 27  1  0  0  0  0
 16 17  1  0  0  0  0
 16 21  1  0  0  0  0
 17 18  1  0  0  0  0
 18 19  1  0  0  0  0
 19 20  2  0  0  0  0
 21 22  4  0  0  0  0
 21 26  4  0  0  0  0
 22 23  4  0  0  0  0
 23 24  4  0  0  0  0
 24 25  4  0  0  0  0
 25 26  4  0  0  0  0
 27 28  1  0  0  0  0
 29 30  4  0  0  0  0
 29 35  4  0  0  0  0
 30 31  4  0  0  0  0
 31 32  4  0  0  0  0
 32 33  1  0  0  0  0
 32 34  4  0  0  0  0
 34 35  4  0  0  0  0
M  END
>  <Name_Molregno>
FLUSPIRILENE

>  <5-HT1A>
7.25

>  <5-HT1B>
5.95

>  <5-HT1D>
5.3

>  <5-HT1E>
5.65

>  <5-HT2A>
8.02

>  <Alpha-2A>
6.24

>  <Alpha-2B>
7.32

>  <Alpha-2C>
7.21

>  <Beta-1>
6.23

>  <Beta-2>
6.29

>  <DOPAMINE D2>
9.37

>  <DOPAMINE D3>
8.73

>  <DOPAMINE D4>
8.26

>  <HISTAMINE H1>
7.92

>  <Serotonin transporter>
6

$$$$
GBR-12909
  Marvin  02231216192D 0   1.00000     0.00000     0

 33 36  0  0  0  0  0  0  0  0999 V2000
    1.8465    2.7773    0.0000 F   0  0  0  0  0  0  0  0  0
    1.8465    1.9523    0.0000 C   0  0  0  0  0  0  0  0  0
    2.5610    1.5398    0.0000 C   0  0  0  0  0  0  0  0  0
    2.5610    0.7148    0.0000 C   0  0  0  0  0  0  0  0  0
    1.8465    0.3023    0.0000 C   0  0  0  0  0  0  0  0  0
    1.1320    0.7148    0.0000 C   0  0  0  0  0  0  0  0  0
    1.1320    1.5398    0.0000 C   0  0  0  0  0  0  0  0  0
    1.8465   -0.5227    0.0000 C   0  0  0  0  0  0  0  0  0
    2.5610   -0.9352    0.0000 O   0  0  0  0  0  0  0  0  0
    2.5610   -1.7602    0.0000 C   0  0  0  0  0  0  0  0  0
    3.2755   -2.1727    0.0000 C   0  0  0  0  0  0  0  0  0
    3.2755   -2.9977    0.0000 N   0  0  0  0  0  0  0  0  0
    3.9899   -3.4102    0.0000 C   0  0  0  0  0  0  0  0  0
    3.9899   -4.2352    0.0000 C   0  0  0  0  0  0  0  0  0
    3.2755   -4.6477    0.0000 N   0  0  0  0  0  0  0  0  0
    2.5610   -4.2352    0.0000 C   0  0  0  0  0  0  0  0  0
    2.5610   -3.4102    0.0000 C   0  0  0  0  0  0  0  0  0
    3.2755   -5.4727    0.0000 C   0  0  0  0  0  0  0  0  0
    2.5610   -5.8852    0.0000 C   0  0  0  0  0  0  0  0  0
    2.5610   -6.7102    0.0000 C   0  0  0  0  0  0  0  0  0
    3.2755   -7.1227    0.0000 C   0  0  0  0  0  0  0  0  0
    3.9899   -6.7102    0.0000 C   0  0  0  0  0  0  0  0  0
    4.7044   -7.1227    0.0000 C   0  0  0  0  0  0  0  0  0
    4.7044   -7.9477    0.0000 C   0  0  0  0  0  0  0  0  0
    3.9899   -8.3602    0.0000 C   0  0  0  0  0  0  0  0  0
    3.2755   -7.9477    0.0000 C   0  0  0  0  0  0  0  0  0
    1.1320   -0.9352    0.0000 C   0  0  0  0  0  0  0  0  0
    1.1320   -1.7602    0.0000 C   0  0  0  0  0  0  0  0  0
    0.4176   -2.1727    0.0000 C   0  0  0  0  0  0  0  0  0
   -0.2969   -1.7602    0.0000 C   0  0  0  0  0  0  0  0  0
   -1.0114   -2.1727    0.0000 F   0  0  0  0  0  0  0  0  0
   -0.2969   -0.9352    0.0000 C   0  0  0  0  0  0  0  0  0
    0.4176   -0.5227    0.0000 C   0  0  0  0  0  0  0  0  0
  1  2  1  0  0  0  0
  2  3  4  0  0  0  0
  2  7  4  0  0  0  0
  3  4  4  0  0  0  0
  4  5  4  0  0  0  0
  5  6  4  0  0  0  0
  5  8  1  0  0  0  0
  6  7  4  0  0  0  0
  8  9  1  0  0  0  0
  8 27  1  0  0  0  0
  9 10  1  0  0  0  0
 10 11  1  0  0  0  0
 11 12  1  0  0  0  0
 12 13  1  0  0  0  0
 12 17  1  0  0  0  0
 13 14  1  0  0  0  0
 14 15  1  0  0  0  0
 15 16  1  0  0  0  0
 15 18  1  0  0  0  0
 16 17  1  0  0  0  0
 18 19  1  0  0  0  0
 19 20  1  0  0  0  0
 20 21  1  0  0  0  0
 21 22  4  0  0  0  0
 21 26  4  0  0  0  0
 22 23  4  0  0  0  0
 23 24  4  0  0  0  0
 24 25  4  0  0  0  0
 25 26  4  0  0  0  0
 27 28  4  0  0  0  0
 27 33  4  0  0  0  0
 28 29  4  0  0  0  0
 29 30  4  0  0  0  0
 30 31  1  0  0  0  0
 30 32  4  0  0  0  0
 32 33  4  0  0  0  0
M  END
>  <Name_Molregno>
GBR-12909

>  <5-HT1A>
5.33

>  <DOPAMINE D1>
5

>  <DOPAMINE D2>
6.13

>  <DOPAMINE D3>
6.96

>  <Dopamine transporter>
8.16

>  <HISTAMINE H1>
8.03

$$$$
HALOPERIDOL
  Marvin  02231216192D 0   1.00000     0.00000     0

 26 28  0  0  0  0  0  0  0  0999 V2000
    1.7138    2.6466    0.0000 Cl  0  0  0  0  0  0  0  0  0
    1.9960    1.8714    0.0000 C   0  0  0  0  0  0  0  0  0
    2.8084    1.7281    0.0000 C   0  0  0  0  0  0  0  0  0
    3.0906    0.9529    0.0000 C   0  0  0  0  0  0  0  0  0
    2.5603    0.3209    0.0000 C   0  0  0  0  0  0  0  0  0
    1.7478    0.4642    0.0000 C   0  0  0  0  0  0  0  0  0
    1.4657    1.2394    0.0000 C   0  0  0  0  0  0  0  0  0
    2.8425   -0.4543    0.0000 C   0  0  0  0  0  0  0  0  0
    2.0300   -0.5976    0.0000 O   0  0  0  0  0  0  0  0  0
    3.5569   -0.0418    0.0000 C   0  0  0  0  0  0  0  0  0
    4.2714   -0.4543    0.0000 C   0  0  0  0  0  0  0  0  0
    4.2714   -1.2793    0.0000 N   0  0  0  0  0  0  0  0  0
    3.5569   -1.6918    0.0000 C   0  0  0  0  0  0  0  0  0
    2.8425   -1.2793    0.0000 C   0  0  0  0  0  0  0  0  0
    4.9859   -1.6918    0.0000 C   0  0  0  0  0  0  0  0  0
    5.7003   -1.2793    0.0000 C   0  0  0  0  0  0  0  0  0
    6.4148   -1.6918    0.0000 C   0  0  0  0  0  0  0  0  0
    7.1293   -1.2793    0.0000 C   0  0  0  0  0  0  0  0  0
    7.1293   -0.4543    0.0000 O   0  0  0  0  0  0  0  0  0
    7.8438   -1.6918    0.0000 C   0  0  0  0  0  0  0  0  0
    8.5582   -1.2793    0.0000 C   0  0  0  0  0  0  0  0  0
    9.2727   -1.6918    0.0000 C   0  0  0  0  0  0  0  0  0
    9.2727   -2.5168    0.0000 C   0  0  0  0  0  0  0  0  0
    9.9872   -2.9293    0.0000 F   0  0  0  0  0  0  0  0  0
    8.5582   -2.9293    0.0000 C   0  0  0  0  0  0  0  0  0
    7.8438   -2.5168    0.0000 C   0  0  0  0  0  0  0  0  0
  1  2  1  0  0  0  0
  2  3  4  0  0  0  0
  2  7  4  0  0  0  0
  3  4  4  0  0  0  0
  4  5  4  0  0  0  0
  5  6  4  0  0  0  0
  5  8  1  0  0  0  0
  6  7  4  0  0  0  0
  8  9  1  0  0  0  0
  8 10  1  0  0  0  0
  8 14  1  0  0  0  0
 10 11  1  0  0  0  0
 11 12  1  0  0  0  0
 12 13  1  0  0  0  0
 12 15  1  0  0  0  0
 13 14  1  0  0  0  0
 15 16  1  0  0  0  0
 16 17  1  0  0  0  0
 17 18  1  0  0  0  0
 18 19  2  0  0  0  0
 18 20  1  0  0  0  0
 20 21  4  0  0  0  0
 20 26  4  0  0  0  0
 21 22  4  0  0  0  0
 22 23  4  0  0  0  0
 23 24  1  0  0  0  0
 23 25  4  0  0  0  0
 25 26  4  0  0  0  0
M  END
>  <Name_Molregno>
HALOPERIDOL

>  <5-HT1A>
5.67

>  <5-HT1B>
6.63

>  <5-HT1D>
5.56

>  <5-HT1E>
5.15

>  <5-HT2A>
7.01

>  <5-HT2C>
5.24

>  <5-HT3>
5

>  <5-HT5>
5.65

>  <5-HT6>
5.28

>  <5-HT7>
6.32

>  <Alpha-1A>
7.92

>  <Alpha-1B>
8.1

>  <Alpha-2A>
6.04

>  <Alpha-2B>
6.32

>  <Alpha-2C>
6.34

>  <Beta-1>
5

>  <Beta-2>
5.15

>  <DOPAMINE D1>
7.22

>  <DOPAMINE D2>
8.75

>  <DOPAMINE D3>
8.33

>  <DOPAMINE D4>
8.29

>  <DOPAMINE D5>
7.03

>  <Dopamine transporter>
5

>  <HISTAMINE H1>
6.04

>  <HISTAMINE H2>
6

>  <HISTAMINE H4>
5

>  <Muscarinic acetylcholine receptor M1>
5.4

>  <Muscarinic acetylcholine receptor M2>
5

>  <Muscarinic acetylcholine receptor M3>
5

>  <Muscarinic acetylcholine receptor M4>
5

>  <Muscarinic acetylcholine receptor M5>
5.59

>  <Norepinephrine transporter>
5.68

>  <Serotonin transporter>
5.74

$$$$
HISTAMINE
  Marvin  02231216192D 0   1.00000     0.00000     0

  8  8  0  0  0  0  0  0  0  0999 V2000
    1.0236   -1.0521    0.0000 N   0  0  0  0  0  0  0  0  0
    0.7687   -1.8367    0.0000 C   0  0  0  0  0  0  0  0  0
   -0.0563   -1.8367    0.0000 N   0  0  0  0  0  0  0  0  0
   -0.3113   -1.0521    0.0000 C   0  0  0  0  0  0  0  0  0
    0.3562   -0.5672    0.0000 C   0  0  0  0  0  0  0  0  0
    0.3562    0.2578    0.0000 C   0  0  0  0  0  0  0  0  0
    1.0706    0.6703    0.0000 C   0  0  0  0  0  0  0  0  0
    1.0706    1.4953    0.0000 N   0  0  0  0  0  0  0  0  0
  1  2  4  0  0  0  0
  1  5  4  0  0  0  0
  2  3  4  0  0  0  0
  3  4  4  0  0  0  0
  4  5  4  0  0  0  0
  5  6  1  0  0  0  0
  6  7  1  0  0  0  0
  7  8  1  0  0  0  0
M  STY  1   1 DAT
M  SAL   1  1   1
M  SDT   1 MRV_IMPLICIT_H                                        
M  SDD   1     0.0000    0.0000    DR    ALL  0       0  
M  SED   1 IMPL_H1
M  END
>  <Name_Molregno>
HISTAMINE

>  <5-HT2A>
5

>  <5-HT3>
5

>  <5-HT7>
5

>  <HISTAMINE H1>
5.5

>  <HISTAMINE H2>
5

>  <HISTAMINE H3>
7.87

>  <HISTAMINE H4>
7.46

$$$$
Hydroxyzine
  Marvin  02231216192D 0   1.00000     0.00000     0

 26 28  0  0  1  0  0  0  0  0999 V2000
   -0.1032   -0.0206    0.0000 Cl  0  0  0  0  0  0  0  0  0
    0.6113    0.3919    0.0000 C   0  0  0  0  0  0  0  0  0
    0.6113    1.2169    0.0000 C   0  0  0  0  0  0  0  0  0
    1.3258    1.6294    0.0000 C   0  0  0  0  0  0  0  0  0
    2.0402    1.2169    0.0000 C   0  0  0  0  0  0  0  0  0
    2.0402    0.3919    0.0000 C   0  0  0  0  0  0  0  0  0
    1.3258   -0.0206    0.0000 C   0  0  0  0  0  0  0  0  0
    2.7547    1.6294    0.0000 C   0  0  0  0  0  0  0  0  0
    3.4692    1.2169    0.0000 N   0  0  0  0  0  0  0  0  0
    4.1837    1.6294    0.0000 C   0  0  0  0  0  0  0  0  0
    4.8981    1.2169    0.0000 C   0  0  0  0  0  0  0  0  0
    4.8981    0.3919    0.0000 N   0  0  0  0  0  0  0  0  0
    4.1837   -0.0206    0.0000 C   0  0  0  0  0  0  0  0  0
    3.4692    0.3919    0.0000 C   0  0  0  0  0  0  0  0  0
    5.6126   -0.0206    0.0000 C   0  0  0  0  0  0  0  0  0
    6.3271    0.3919    0.0000 C   0  0  0  0  0  0  0  0  0
    7.0415   -0.0206    0.0000 O   0  0  0  0  0  0  0  0  0
    7.7560    0.3919    0.0000 C   0  0  0  0  0  0  0  0  0
    8.4705   -0.0206    0.0000 C   0  0  0  0  0  0  0  0  0
    9.1849    0.3919    0.0000 O   0  0  0  0  0  0  0  0  0
    2.7547    2.4544    0.0000 C   0  0  0  0  0  0  0  0  0
    2.0402    2.8669    0.0000 C   0  0  0  0  0  0  0  0  0
    2.0402    3.6919    0.0000 C   0  0  0  0  0  0  0  0  0
    2.7547    4.1044    0.0000 C   0  0  0  0  0  0  0  0  0
    3.4692    3.6919    0.0000 C   0  0  0  0  0  0  0  0  0
    3.4692    2.8669    0.0000 C   0  0  0  0  0  0  0  0  0
  1  2  1  0  0  0  0
  2  3  4  0  0  0  0
  2  7  4  0  0  0  0
  3  4  4  0  0  0  0
  4  5  4  0  0  0  0
  5  6  4  0  0  0  0
  5  8  1  0  0  0  0
  6  7  4  0  0  0  0
  8  9  1  0  0  0  0
  8 21  1  0  0  0  0
  9 10  1  0  0  0  0
  9 14  1  0  0  0  0
 10 11  1  0  0  0  0
 11 12  1  0  0  0  0
 12 13  1  0  0  0  0
 12 15  1  0  0  0  0
 13 14  1  0  0  0  0
 15 16  1  0  0  0  0
 16 17  1  0  0  0  0
 17 18  1  0  0  0  0
 18 19  1  0  0  0  0
 19 20  1  0  0  0  0
 21 22  4  0  0  0  0
 21 26  4  0  0  0  0
 22 23  4  0  0  0  0
 23 24  4  0  0  0  0
 24 25  4  0  0  0  0
 25 26  4  0  0  0  0
M  END
>  <Name_Molregno>
Hydroxyzine

>  <HISTAMINE H1>
8.85

$$$$
ibuprofen
  Marvin  02231216192D 0   1.00000     0.00000     0

 15 15  0  0  1  0  0  0  0  0999 V2000
    3.0591   -3.4943    0.0000 O   0  0  0  0  0  0  0  0  0
    3.0591   -2.6693    0.0000 C   0  0  0  0  0  0  0  0  0
    3.7735   -2.2568    0.0000 O   0  0  0  0  0  0  0  0  0
    2.3446   -2.2568    0.0000 C   0  0  0  0  0  0  0  0  0
    1.6301   -2.6693    0.0000 C   0  0  0  0  0  0  0  0  0
    2.3446   -1.4318    0.0000 C   0  0  0  0  0  0  0  0  0
    1.6301   -1.0193    0.0000 C   0  0  0  0  0  0  0  0  0
    1.6301   -0.1943    0.0000 C   0  0  0  0  0  0  0  0  0
    2.3446    0.2182    0.0000 C   0  0  0  0  0  0  0  0  0
    3.0591   -0.1943    0.0000 C   0  0  0  0  0  0  0  0  0
    3.0591   -1.0193    0.0000 C   0  0  0  0  0  0  0  0  0
    2.3446    1.0432    0.0000 C   0  0  0  0  0  0  0  0  0
    3.0591    1.4557    0.0000 C   0  0  0  0  0  0  0  0  0
    3.0591    2.2807    0.0000 C   0  0  0  0  0  0  0  0  0
    3.7735    1.0432    0.0000 C   0  0  0  0  0  0  0  0  0
  1  2  1  0  0  0  0
  2  3  2  0  0  0  0
  2  4  1  0  0  0  0
  4  5  1  0  0  0  0
  4  6  1  0  0  0  0
  6  7  4  0  0  0  0
  6 11  4  0  0  0  0
  7  8  4  0  0  0  0
  8  9  4  0  0  0  0
  9 10  4  0  0  0  0
  9 12  1  0  0  0  0
 10 11  4  0  0  0  0
 12 13  1  0  0  0  0
 13 14  1  0  0  0  0
 13 15  1  0  0  0  0
M  END
>  <Name_Molregno>
ibuprofen

>  <5-HT1A>
5

>  <5-HT1B>
5

>  <5-HT1D>
5

>  <5-HT1E>
5

>  <5-HT2A>
5

>  <5-HT3>
5

>  <5-HT6>
5

>  <5-HT7>
5

>  <Alpha-1A>
5

>  <Alpha-1B>
5

>  <Alpha-2A>
5

>  <Alpha-2B>
5

>  <Alpha-2C>
5

>  <DOPAMINE D1>
5

>  <DOPAMINE D2>
5

>  <DOPAMINE D4>
5

>  <DOPAMINE D5>
5

>  <Dopamine transporter>
5

>  <HISTAMINE H1>
5

>  <HISTAMINE H2>
5

>  <Muscarinic acetylcholine receptor M2>
5

>  <Muscarinic acetylcholine receptor M5>
5

>  <Norepinephrine transporter>
5

>  <Serotonin transporter>
5

$$$$
ILOPERIDONE
  Marvin  02231216192D 0   1.00000     0.00000     0

 31 34  0  0  0  0  0  0  0  0999 V2000
    9.8408   -5.0338    0.0000 F   0  0  0  0  0  0  0  0  0
    9.1263   -4.6213    0.0000 C   0  0  0  0  0  0  0  0  0
    8.4119   -5.0338    0.0000 C   0  0  0  0  0  0  0  0  0
    7.6974   -4.6213    0.0000 C   0  0  0  0  0  0  0  0  0
    6.9128   -4.8762    0.0000 O   0  0  0  0  0  0  0  0  0
    6.4279   -4.2088    0.0000 N   0  0  0  0  0  0  0  0  0
    6.9128   -3.5413    0.0000 C   0  0  0  0  0  0  0  0  0
    7.6974   -3.7963    0.0000 C   0  0  0  0  0  0  0  0  0
    8.4119   -3.3838    0.0000 C   0  0  0  0  0  0  0  0  0
    9.1263   -3.7963    0.0000 C   0  0  0  0  0  0  0  0  0
    6.6578   -2.7567    0.0000 C   0  0  0  0  0  0  0  0  0
    5.8509   -2.5852    0.0000 C   0  0  0  0  0  0  0  0  0
    5.5959   -1.8006    0.0000 C   0  0  0  0  0  0  0  0  0
    6.1480   -1.1875    0.0000 N   0  0  0  0  0  0  0  0  0
    6.9549   -1.3590    0.0000 C   0  0  0  0  0  0  0  0  0
    7.2099   -2.1436    0.0000 C   0  0  0  0  0  0  0  0  0
    5.8930   -0.4028    0.0000 C   0  0  0  0  0  0  0  0  0
    5.0861   -0.2313    0.0000 C   0  0  0  0  0  0  0  0  0
    4.8311    0.5533    0.0000 C   0  0  0  0  0  0  0  0  0
    4.0241    0.7248    0.0000 O   0  0  0  0  0  0  0  0  0
    3.7692    1.5095    0.0000 C   0  0  0  0  0  0  0  0  0
    2.9622    1.6810    0.0000 C   0  0  0  0  0  0  0  0  0
    2.7073    2.4656    0.0000 C   0  0  0  0  0  0  0  0  0
    3.2593    3.0787    0.0000 C   0  0  0  0  0  0  0  0  0
    4.0663    2.9072    0.0000 C   0  0  0  0  0  0  0  0  0
    4.3212    2.1225    0.0000 C   0  0  0  0  0  0  0  0  0
    5.1282    1.9510    0.0000 O   0  0  0  0  0  0  0  0  0
    5.6802    2.5641    0.0000 C   0  0  0  0  0  0  0  0  0
    3.0044    3.8633    0.0000 C   0  0  0  0  0  0  0  0  0
    2.1974    4.0348    0.0000 O   0  0  0  0  0  0  0  0  0
    3.5564    4.4764    0.0000 C   0  0  0  0  0  0  0  0  0
  1  2  1  0  0  0  0
  2  3  4  0  0  0  0
  2 10  4  0  0  0  0
  3  4  4  0  0  0  0
  4  5  4  0  0  0  0
  4  8  4  0  0  0  0
  5  6  4  0  0  0  0
  6  7  4  0  0  0  0
  7  8  4  0  0  0  0
  7 11  1  0  0  0  0
  8  9  4  0  0  0  0
  9 10  4  0  0  0  0
 11 12  1  0  0  0  0
 11 16  1  0  0  0  0
 12 13  1  0  0  0  0
 13 14  1  0  0  0  0
 14 15  1  0  0  0  0
 14 17  1  0  0  0  0
 15 16  1  0  0  0  0
 17 18  1  0  0  0  0
 18 19  1  0  0  0  0
 19 20  1  0  0  0  0
 20 21  1  0  0  0  0
 21 22  4  0  0  0  0
 21 26  4  0  0  0  0
 22 23  4  0  0  0  0
 23 24  4  0  0  0  0
 24 25  4  0  0  0  0
 24 29  1  0  0  0  0
 25 26  4  0  0  0  0
 26 27  1  0  0  0  0
 27 28  1  0  0  0  0
 29 30  2  0  0  0  0
 29 31  1  0  0  0  0
M  END
>  <Name_Molregno>
ILOPERIDONE

>  <5-HT1A>
7.18

>  <5-HT1B>
7.05

>  <5-HT1D>
7.82

>  <5-HT2A>
9.46

>  <5-HT2C>
7.27

>  <5-HT3>
5

>  <5-HT6>
7.2

>  <5-HT7>
6.95

>  <Alpha-2A>
6.79

>  <Alpha-2B>
6.79

>  <Alpha-2C>
7.79

>  <Beta-1>
5

>  <Beta-2>
5

>  <DOPAMINE D1>
7.02

>  <DOPAMINE D2>
8.23

>  <DOPAMINE D3>
8

>  <DOPAMINE D4>
7.96

>  <DOPAMINE D5>
6.5

>  <Dopamine transporter>
5.53

>  <HISTAMINE H1>
7.91

>  <Muscarinic acetylcholine receptor M1>
5.31

>  <Muscarinic acetylcholine receptor M2>
5.48

>  <Muscarinic acetylcholine receptor M3>
5

>  <Muscarinic acetylcholine receptor M4>
5.08

>  <Muscarinic acetylcholine receptor M5>
5

>  <Norepinephrine transporter>
5.83

$$$$
IMIPRAMINE
  Marvin  02231216192D 0   1.00000     0.00000     0

 21 23  0  0  0  0  0  0  0  0999 V2000
   -0.5243    1.2470    0.0000 N   0  0  0  0  0  0  0  0  0
    0.1902    0.8345    0.0000 C   0  0  0  0  0  0  0  0  0
    0.9046    1.2470    0.0000 C   0  0  0  0  0  0  0  0  0
    1.6191    0.8345    0.0000 C   0  0  0  0  0  0  0  0  0
    2.3336    1.2470    0.0000 N   0  0  0  0  0  0  0  0  0
    2.2719    2.0697    0.0000 C   0  0  0  0  0  0  0  0  0
    2.8767    2.6309    0.0000 C   0  0  0  0  0  0  0  0  0
    3.6925    2.5079    0.0000 C   0  0  0  0  0  0  0  0  0
    4.1050    1.7934    0.0000 C   0  0  0  0  0  0  0  0  0
    3.8036    1.0255    0.0000 C   0  0  0  0  0  0  0  0  0
    3.0152    0.7823    0.0000 C   0  0  0  0  0  0  0  0  0
    2.8316   -0.0220    0.0000 C   0  0  0  0  0  0  0  0  0
    3.4364   -0.5832    0.0000 C   0  0  0  0  0  0  0  0  0
    4.2248   -0.3400    0.0000 C   0  0  0  0  0  0  0  0  0
    4.4083    0.4643    0.0000 C   0  0  0  0  0  0  0  0  0
    2.6931    3.4352    0.0000 C   0  0  0  0  0  0  0  0  0
    1.9048    3.6784    0.0000 C   0  0  0  0  0  0  0  0  0
    1.3000    3.1172    0.0000 C   0  0  0  0  0  0  0  0  0
    1.4836    2.3129    0.0000 C   0  0  0  0  0  0  0  0  0
   -1.2388    0.8345    0.0000 C   0  0  0  0  0  0  0  0  0
   -0.5243    2.0720    0.0000 C   0  0  0  0  0  0  0  0  0
  1  2  1  0  0  0  0
  1 20  1  0  0  0  0
  1 21  1  0  0  0  0
  2  3  1  0  0  0  0
  3  4  1  0  0  0  0
  4  5  1  0  0  0  0
  5  6  1  0  0  0  0
  5 11  1  0  0  0  0
  6  7  4  0  0  0  0
  6 19  4  0  0  0  0
  7  8  1  0  0  0  0
  7 16  4  0  0  0  0
  8  9  1  0  0  0  0
  9 10  1  0  0  0  0
 10 11  4  0  0  0  0
 10 15  4  0  0  0  0
 11 12  4  0  0  0  0
 12 13  4  0  0  0  0
 13 14  4  0  0  0  0
 14 15  4  0  0  0  0
 16 17  4  0  0  0  0
 17 18  4  0  0  0  0
 18 19  4  0  0  0  0
M  END
>  <Name_Molregno>
IMIPRAMINE

>  <5-HT1A>
5.12

>  <DOPAMINE D1>
5

>  <DOPAMINE D2>
6.17

>  <DOPAMINE D3>
6.41

>  <Dopamine transporter>
5.04

>  <HISTAMINE H1>
7.62

>  <Muscarinic acetylcholine receptor M1>
7.38

>  <Muscarinic acetylcholine receptor M2>
8.48

>  <Muscarinic acetylcholine receptor M3>
7.22

>  <Muscarinic acetylcholine receptor M4>
6.95

>  <Muscarinic acetylcholine receptor M5>
7.08

>  <Norepinephrine transporter>
7.18

>  <Serotonin transporter>
8.6

$$$$
IPRINDOLE
  Marvin  02231216192D 0   1.00000     0.00000     0

 21 23  0  0  0  0  0  0  0  0999 V2000
   -0.0085    0.7429    0.0000 N   0  0  0  0  0  0  0  0  0
   -0.0947   -0.0776    0.0000 C   0  0  0  0  0  0  0  0  0
    0.5972   -0.5269    0.0000 C   0  0  0  0  0  0  0  0  0
    0.7687   -1.3339    0.0000 C   0  0  0  0  0  0  0  0  0
    0.3194   -2.0258    0.0000 C   0  0  0  0  0  0  0  0  0
   -0.4876   -2.1973    0.0000 C   0  0  0  0  0  0  0  0  0
   -1.1795   -1.7480    0.0000 C   0  0  0  0  0  0  0  0  0
   -1.3510   -0.9410    0.0000 C   0  0  0  0  0  0  0  0  0
   -0.9017   -0.2491    0.0000 C   0  0  0  0  0  0  0  0  0
   -1.3142    0.4653    0.0000 C   0  0  0  0  0  0  0  0  0
   -0.7622    1.0784    0.0000 C   0  0  0  0  0  0  0  0  0
   -1.0171    1.8630    0.0000 C   0  0  0  0  0  0  0  0  0
   -1.8241    2.0346    0.0000 C   0  0  0  0  0  0  0  0  0
   -2.3761    1.4215    0.0000 C   0  0  0  0  0  0  0  0  0
   -2.1212    0.6369    0.0000 C   0  0  0  0  0  0  0  0  0
    0.7060    1.1554    0.0000 C   0  0  0  0  0  0  0  0  0
    1.4205    0.7429    0.0000 C   0  0  0  0  0  0  0  0  0
    2.1349    1.1554    0.0000 C   0  0  0  0  0  0  0  0  0
    2.8494    0.7429    0.0000 N   0  0  0  0  0  0  0  0  0
    3.5639    1.1554    0.0000 C   0  0  0  0  0  0  0  0  0
    2.8494   -0.0821    0.0000 C   0  0  0  0  0  0  0  0  0
  1  2  4  0  0  0  0
  1 11  4  0  0  0  0
  1 16  1  0  0  0  0
  2  3  1  0  0  0  0
  2  9  4  0  0  0  0
  3  4  1  0  0  0  0
  4  5  1  0  0  0  0
  5  6  1  0  0  0  0
  6  7  1  0  0  0  0
  7  8  1  0  0  0  0
  8  9  1  0  0  0  0
  9 10  4  0  0  0  0
 10 11  4  0  0  0  0
 10 15  4  0  0  0  0
 11 12  4  0  0  0  0
 12 13  4  0  0  0  0
 13 14  4  0  0  0  0
 14 15  4  0  0  0  0
 16 17  1  0  0  0  0
 17 18  1  0  0  0  0
 18 19  1  0  0  0  0
 19 20  1  0  0  0  0
 19 21  1  0  0  0  0
M  END
>  <Name_Molregno>
IPRINDOLE

>  <Dopamine transporter>
5.19

>  <HISTAMINE H1>
6.92

>  <Norepinephrine transporter>
5.9

>  <Serotonin transporter>
5.79

$$$$
KETANSERIN
  Marvin  02231216192D 0   1.00000     0.00000     0

 29 32  0  0  0  0  0  0  0  0999 V2000
    2.3505   -3.5857    0.0000 F   0  0  0  0  0  0  0  0  0
    2.3505   -2.7607    0.0000 C   0  0  0  0  0  0  0  0  0
    1.6360   -2.3482    0.0000 C   0  0  0  0  0  0  0  0  0
    1.6360   -1.5232    0.0000 C   0  0  0  0  0  0  0  0  0
    2.3505   -1.1107    0.0000 C   0  0  0  0  0  0  0  0  0
    3.0649   -1.5232    0.0000 C   0  0  0  0  0  0  0  0  0
    3.0649   -2.3482    0.0000 C   0  0  0  0  0  0  0  0  0
    2.3505   -0.2857    0.0000 C   0  0  0  0  0  0  0  0  0
    1.6360    0.1268    0.0000 O   0  0  0  0  0  0  0  0  0
    3.0649    0.1268    0.0000 C   0  0  0  0  0  0  0  0  0
    3.0649    0.9518    0.0000 C   0  0  0  0  0  0  0  0  0
    3.7794    1.3643    0.0000 C   0  0  0  0  0  0  0  0  0
    4.4939    0.9518    0.0000 N   0  0  0  0  0  0  0  0  0
    4.4939    0.1268    0.0000 C   0  0  0  0  0  0  0  0  0
    3.7794   -0.2857    0.0000 C   0  0  0  0  0  0  0  0  0
    5.2083    1.3643    0.0000 C   0  0  0  0  0  0  0  0  0
    5.9228    0.9518    0.0000 C   0  0  0  0  0  0  0  0  0
    6.6373    1.3643    0.0000 N   0  0  0  0  0  0  0  0  0
    7.3518    0.9518    0.0000 C   0  0  0  0  0  0  0  0  0
    7.3518    0.1268    0.0000 O   0  0  0  0  0  0  0  0  0
    8.0662    1.3643    0.0000 C   0  0  0  0  0  0  0  0  0
    8.0662    2.1893    0.0000 C   0  0  0  0  0  0  0  0  0
    7.3518    2.6018    0.0000 N   0  0  0  0  0  0  0  0  0
    6.6373    2.1893    0.0000 C   0  0  0  0  0  0  0  0  0
    5.9228    2.6018    0.0000 O   0  0  0  0  0  0  0  0  0
    8.7807    2.6018    0.0000 C   0  0  0  0  0  0  0  0  0
    9.4952    2.1893    0.0000 C   0  0  0  0  0  0  0  0  0
    9.4952    1.3643    0.0000 C   0  0  0  0  0  0  0  0  0
    8.7807    0.9518    0.0000 C   0  0  0  0  0  0  0  0  0
  1  2  1  0  0  0  0
  2  3  4  0  0  0  0
  2  7  4  0  0  0  0
  3  4  4  0  0  0  0
  4  5  4  0  0  0  0
  5  6  4  0  0  0  0
  5  8  1  0  0  0  0
  6  7  4  0  0  0  0
  8  9  2  0  0  0  0
  8 10  1  0  0  0  0
 10 11  1  0  0  0  0
 10 15  1  0  0  0  0
 11 12  1  0  0  0  0
 12 13  1  0  0  0  0
 13 14  1  0  0  0  0
 13 16  1  0  0  0  0
 14 15  1  0  0  0  0
 16 17  1  0  0  0  0
 17 18  1  0  0  0  0
 18 19  1  0  0  0  0
 18 24  1  0  0  0  0
 19 20  2  0  0  0  0
 19 21  1  0  0  0  0
 21 22  4  0  0  0  0
 21 29  4  0  0  0  0
 22 23  1  0  0  0  0
 22 26  4  0  0  0  0
 23 24  1  0  0  0  0
 24 25  2  0  0  0  0
 26 27  4  0  0  0  0
 27 28  4  0  0  0  0
 28 29  4  0  0  0  0
M  END
>  <Name_Molregno>
KETANSERIN

>  <5-HT1A>
5.28

>  <5-HT1B>
5.48

>  <5-HT1D>
5.65

>  <5-HT1E>
5

>  <5-HT2A>
8.67

>  <5-HT2C>
7.08

>  <5-HT5>
4.7

>  <5-HT6>
5.55

>  <5-HT7>
6.1

>  <Alpha-2B>
6.7

>  <DOPAMINE D1>
6.52

>  <DOPAMINE D2>
5

>  <DOPAMINE D5>
5.6

>  <Dopamine transporter>
5

>  <HISTAMINE H1>
8.75

$$$$
Ketorolac
  Marvin  02231216192D 0   1.00000     0.00000     0

 19 21  0  0  1  0  0  0  0  0999 V2000
    1.4450    2.2138    0.0000 O   0  0  0  0  0  0  0  0  0
    2.2520    2.0422    0.0000 C   0  0  0  0  0  0  0  0  0
    2.8040    2.6553    0.0000 O   0  0  0  0  0  0  0  0  0
    2.5069    1.2576    0.0000 C   0  0  0  0  0  0  0  0  0
    2.0220    0.5902    0.0000 C   0  0  0  0  0  0  0  0  0
    2.5069   -0.0773    0.0000 C   0  0  0  0  0  0  0  0  0
    3.2915    0.1777    0.0000 N   0  0  0  0  0  0  0  0  0
    3.2915    1.0027    0.0000 C   0  0  0  0  0  0  0  0  0
    4.0761    1.2576    0.0000 C   0  0  0  0  0  0  0  0  0
    4.5611    0.5902    0.0000 C   0  0  0  0  0  0  0  0  0
    4.0761   -0.0773    0.0000 C   0  0  0  0  0  0  0  0  0
    4.3311   -0.8619    0.0000 C   0  0  0  0  0  0  0  0  0
    5.1381   -1.0334    0.0000 O   0  0  0  0  0  0  0  0  0
    3.7791   -1.4750    0.0000 C   0  0  0  0  0  0  0  0  0
    4.0340   -2.2596    0.0000 C   0  0  0  0  0  0  0  0  0
    3.4820   -2.8727    0.0000 C   0  0  0  0  0  0  0  0  0
    2.6750   -2.7012    0.0000 C   0  0  0  0  0  0  0  0  0
    2.4201   -1.9166    0.0000 C   0  0  0  0  0  0  0  0  0
    2.9721   -1.3035    0.0000 C   0  0  0  0  0  0  0  0  0
  1  2  1  0  0  0  0
  2  3  2  0  0  0  0
  2  4  1  0  0  0  0
  4  5  1  0  0  0  0
  4  8  1  0  0  0  0
  5  6  1  0  0  0  0
  6  7  1  0  0  0  0
  7  8  4  0  0  0  0
  7 11  4  0  0  0  0
  8  9  4  0  0  0  0
  9 10  4  0  0  0  0
 10 11  4  0  0  0  0
 11 12  1  0  0  0  0
 12 13  2  0  0  0  0
 12 14  1  0  0  0  0
 14 15  4  0  0  0  0
 14 19  4  0  0  0  0
 15 16  4  0  0  0  0
 16 17  4  0  0  0  0
 17 18  4  0  0  0  0
 18 19  4  0  0  0  0
M  END
>  <Name_Molregno>
Ketorolac

>  <5-HT1A>
5

>  <5-HT1B>
5

>  <5-HT1D>
5

>  <5-HT1E>
5

>  <5-HT2A>
5

>  <5-HT3>
5

>  <5-HT5>
5

>  <5-HT6>
5

>  <5-HT7>
5

>  <Alpha-1A>
5

>  <Alpha-1B>
5

>  <Alpha-2A>
5

>  <Alpha-2B>
5

>  <Alpha-2C>
5

>  <DOPAMINE D1>
5

>  <DOPAMINE D2>
5

>  <DOPAMINE D4>
5

>  <DOPAMINE D5>
5

>  <Dopamine transporter>
5

>  <HISTAMINE H1>
5

>  <HISTAMINE H2>
5

>  <Muscarinic acetylcholine receptor M2>
5

>  <Muscarinic acetylcholine receptor M5>
5

>  <Norepinephrine transporter>
5

>  <Serotonin transporter>
5

$$$$
l-Chlorpheniramine
  Marvin  02231216192D 0   1.00000     0.00000     0

 12 12  0  0  0  0  0  0  0  0999 V2000
    0.1963   -0.8306    0.0000 N   0  0  0  0  0  0  0  0  0
   -0.5181   -1.2431    0.0000 C   0  0  0  0  0  0  0  0  0
   -1.2326   -0.8306    0.0000 C   0  0  0  0  0  0  0  0  0
   -1.2326   -0.0056    0.0000 C   0  0  0  0  0  0  0  0  0
   -0.5181    0.4069    0.0000 C   0  0  0  0  0  0  0  0  0
    0.1963   -0.0056    0.0000 C   0  0  0  0  0  0  0  0  0
    0.9108    0.4069    0.0000 C   0  0  0  0  0  0  0  0  0
    1.6253   -0.0056    0.0000 C   0  0  0  0  0  0  0  0  0
    2.3398    0.4069    0.0000 C   0  0  0  0  0  0  0  0  0
    3.0542   -0.0056    0.0000 N   0  0  0  0  0  0  0  0  0
    3.7687    0.4069    0.0000 C   0  0  0  0  0  0  0  0  0
    3.0542   -0.8306    0.0000 C   0  0  0  0  0  0  0  0  0
  1  2  4  0  0  0  0
  1  6  4  0  0  0  0
  2  3  4  0  0  0  0
  3  4  4  0  0  0  0
  4  5  4  0  0  0  0
  5  6  4  0  0  0  0
  6  7  1  0  0  0  0
  7  8  1  0  0  0  0
  8  9  1  0  0  0  0
  9 10  1  0  0  0  0
 10 11  1  0  0  0  0
 10 12  1  0  0  0  0
M  END
>  <Name_Molregno>
l-Chlorpheniramine

>  <HISTAMINE H1>
7.43

$$$$
L-cysteic-acid
  Marvin  02231216192D 0   1.00000     0.00000     0

 10  9  0  0  1  0  0  0  0  0999 V2000
   -1.9749    0.1579    0.0000 S   0  0  0  0  0  0  0  0  0
   -2.6894    0.5704    0.0000 O   0  0  0  0  0  0  0  0  0
   -2.3874   -0.5565    0.0000 O   0  0  0  0  0  0  0  0  0
   -1.5624    0.8724    0.0000 O   0  0  0  0  0  0  0  0  0
   -1.2605   -0.2546    0.0000 C   0  0  0  0  0  0  0  0  0
   -0.5460    0.1579    0.0000 C   0  0  0  0  0  0  0  0  0
   -0.5460    0.9829    0.0000 N   0  0  0  0  0  0  0  0  0
    0.1685   -0.2546    0.0000 C   0  0  0  0  0  0  0  0  0
    0.8829    0.1579    0.0000 O   0  0  0  0  0  0  0  0  0
    0.1685   -1.0796    0.0000 O   0  0  0  0  0  0  0  0  0
  1  2  2  0  0  0  0
  1  3  2  0  0  0  0
  1  4  1  0  0  0  0
  1  5  1  0  0  0  0
  5  6  1  0  0  0  0
  6  7  1  0  0  0  0
  6  8  1  0  0  0  0
  8  9  1  0  0  0  0
  8 10  2  0  0  0  0
M  END
>  <Name_Molregno>
L-cysteic-acid

>  <5-HT1A>
5

>  <5-HT1B>
5

>  <5-HT1D>
5

>  <5-HT3>
5

>  <5-HT5>
5

>  <5-HT6>
5

>  <5-HT7>
5

>  <Alpha-1A>
5

>  <Alpha-1B>
5

>  <Alpha-2A>
5

>  <Alpha-2C>
5

>  <DOPAMINE D1>
5

>  <DOPAMINE D2>
5

>  <DOPAMINE D3>
5

>  <DOPAMINE D5>
5

>  <Dopamine transporter>
5

>  <HISTAMINE H1>
5

>  <HISTAMINE H2>
5

>  <HISTAMINE H4>
5

>  <Muscarinic acetylcholine receptor M1>
5

>  <Muscarinic acetylcholine receptor M2>
5

>  <Muscarinic acetylcholine receptor M3>
5

>  <Muscarinic acetylcholine receptor M4>
5

>  <Muscarinic acetylcholine receptor M5>
5

>  <Norepinephrine transporter>
5

>  <Serotonin transporter>
5

$$$$
L-cysteine
  Marvin  02231216192D 0   1.00000     0.00000     0

  7  6  0  0  1  0  0  0  0  0999 V2000
    1.5580    2.1190    0.0000 S   0  0  0  0  0  0  0  0  0
    1.1455    1.4045    0.0000 C   0  0  0  0  0  0  0  0  0
    1.5580    0.6901    0.0000 C   0  0  0  0  0  0  0  0  0
    2.3830    0.6901    0.0000 N   0  0  0  0  0  0  0  0  0
    1.1455   -0.0244    0.0000 C   0  0  0  0  0  0  0  0  0
    1.5580   -0.7389    0.0000 O   0  0  0  0  0  0  0  0  0
    0.3205   -0.0244    0.0000 O   0  0  0  0  0  0  0  0  0
  1  2  1  0  0  0  0
  2  3  1  0  0  0  0
  3  4  1  0  0  0  0
  3  5  1  0  0  0  0
  5  6  1  0  0  0  0
  5  7  2  0  0  0  0
M  END
>  <Name_Molregno>
L-cysteine

>  <5-HT1A>
5

>  <5-HT1B>
5

>  <5-HT1D>
5

>  <5-HT3>
5

>  <5-HT5>
5

>  <5-HT6>
5

>  <5-HT7>
5

>  <Alpha-1A>
5

>  <Alpha-1B>
5

>  <Alpha-2A>
5

>  <Alpha-2B>
5

>  <Alpha-2C>
5

>  <DOPAMINE D1>
5

>  <DOPAMINE D2>
5

>  <DOPAMINE D3>
5

>  <DOPAMINE D5>
5

>  <Dopamine transporter>
5

>  <HISTAMINE H1>
5

>  <HISTAMINE H2>
5

>  <HISTAMINE H4>
5

>  <Muscarinic acetylcholine receptor M1>
5

>  <Muscarinic acetylcholine receptor M2>
5

>  <Muscarinic acetylcholine receptor M3>
5

>  <Muscarinic acetylcholine receptor M4>
5

>  <Muscarinic acetylcholine receptor M5>
5

>  <Norepinephrine transporter>
5

>  <Serotonin transporter>
5

$$$$
L-cysteine-sulfinic-acid
  Marvin  02231216192D 0   1.00000     0.00000     0

  9  8  0  0  1  0  0  0  0  0999 V2000
   -2.0945    0.5537    0.0000 S   0  0  0  0  0  0  0  0  0
   -2.8090    0.1412    0.0000 O   0  0  0  0  0  0  0  0  0
   -2.0945    1.3787    0.0000 O   0  0  0  0  0  0  0  0  0
   -1.3800    0.1412    0.0000 C   0  0  0  0  0  0  0  0  0
   -0.6656    0.5537    0.0000 C   0  0  0  0  0  0  0  0  0
   -0.6656    1.3787    0.0000 N   0  0  0  0  0  0  0  0  0
    0.0489    0.1412    0.0000 C   0  0  0  0  0  0  0  0  0
    0.7634    0.5537    0.0000 O   0  0  0  0  0  0  0  0  0
    0.0489   -0.6838    0.0000 O   0  0  0  0  0  0  0  0  0
  1  2  2  0  0  0  0
  1  3  1  0  0  0  0
  1  4  1  0  0  0  0
  4  5  1  0  0  0  0
  5  6  1  0  0  0  0
  5  7  1  0  0  0  0
  7  8  1  0  0  0  0
  7  9  2  0  0  0  0
M  END
>  <Name_Molregno>
L-cysteine-sulfinic-acid

>  <5-HT1A>
5

>  <5-HT1B>
5

>  <5-HT1D>
5

>  <5-HT3>
5

>  <5-HT5>
5

>  <5-HT6>
5

>  <5-HT7>
5

>  <Alpha-1A>
5

>  <Alpha-1B>
5

>  <Alpha-2A>
5

>  <Alpha-2B>
5

>  <Alpha-2C>
5

>  <DOPAMINE D1>
5

>  <DOPAMINE D2>
5

>  <DOPAMINE D3>
5

>  <DOPAMINE D5>
5

>  <Dopamine transporter>
5

>  <HISTAMINE H1>
5

>  <HISTAMINE H2>
5

>  <HISTAMINE H4>
5

>  <Muscarinic acetylcholine receptor M1>
5

>  <Muscarinic acetylcholine receptor M2>
5

>  <Muscarinic acetylcholine receptor M3>
5

>  <Muscarinic acetylcholine receptor M4>
5

>  <Muscarinic acetylcholine receptor M5>
5

>  <Norepinephrine transporter>
5

>  <Serotonin transporter>
5

$$$$
Levomepromazine
  Marvin  02231216192D 0   1.00000     0.00000     0

 23 25  0  0  1  0  0  0  0  0999 V2000
   -0.6246   -0.6070    0.0000 S   0  0  0  0  0  0  0  0  0
   -0.6246   -1.4320    0.0000 C   0  0  0  0  0  0  0  0  0
    0.0899   -1.8445    0.0000 C   0  0  0  0  0  0  0  0  0
    0.8044   -1.4320    0.0000 N   0  0  0  0  0  0  0  0  0
    0.8044   -0.6070    0.0000 C   0  0  0  0  0  0  0  0  0
    0.0899   -0.1945    0.0000 C   0  0  0  0  0  0  0  0  0
    0.0899    0.6305    0.0000 C   0  0  0  0  0  0  0  0  0
    0.8044    1.0430    0.0000 C   0  0  0  0  0  0  0  0  0
    1.5188    0.6305    0.0000 C   0  0  0  0  0  0  0  0  0
    1.5188   -0.1945    0.0000 C   0  0  0  0  0  0  0  0  0
    1.5188   -1.8445    0.0000 C   0  0  0  0  0  0  0  0  0
    2.2333   -1.4320    0.0000 C   0  0  0  0  0  0  0  0  0
    2.9478   -1.8445    0.0000 C   0  0  0  0  0  0  0  0  0
    3.6623   -1.4320    0.0000 N   0  0  0  0  0  0  0  0  0
    4.3767   -1.8445    0.0000 C   0  0  0  0  0  0  0  0  0
    3.6623   -0.6070    0.0000 C   0  0  0  0  0  0  0  0  0
    2.2333   -0.6070    0.0000 C   0  0  0  0  0  0  0  0  0
    0.0899   -2.6695    0.0000 C   0  0  0  0  0  0  0  0  0
   -0.6246   -3.0820    0.0000 C   0  0  0  0  0  0  0  0  0
   -0.6246   -3.9070    0.0000 O   0  0  0  0  0  0  0  0  0
   -1.3390   -4.3195    0.0000 C   0  0  0  0  0  0  0  0  0
   -1.3390   -2.6695    0.0000 C   0  0  0  0  0  0  0  0  0
   -1.3390   -1.8445    0.0000 C   0  0  0  0  0  0  0  0  0
  1  2  1  0  0  0  0
  1  6  1  0  0  0  0
  2  3  4  0  0  0  0
  2 23  4  0  0  0  0
  3  4  1  0  0  0  0
  3 18  4  0  0  0  0
  4  5  1  0  0  0  0
  4 11  1  0  0  0  0
  5  6  4  0  0  0  0
  5 10  4  0  0  0  0
  6  7  4  0  0  0  0
  7  8  4  0  0  0  0
  8  9  4  0  0  0  0
  9 10  4  0  0  0  0
 11 12  1  0  0  0  0
 12 13  1  0  0  0  0
 12 17  1  0  0  0  0
 13 14  1  0  0  0  0
 14 15  1  0  0  0  0
 14 16  1  0  0  0  0
 18 19  4  0  0  0  0
 19 20  1  0  0  0  0
 19 22  4  0  0  0  0
 20 21  1  0  0  0  0
 22 23  4  0  0  0  0
M  END
>  <Name_Molregno>
Levomepromazine

>  <HISTAMINE H1>
9.24

$$$$
L-homocysteine-thiolactone
  Marvin  02231216192D 0   1.00000     0.00000     0

  7  7  0  0  1  0  0  0  0  0999 V2000
    1.4299   -0.7189    0.0000 S   0  0  0  0  0  0  0  0  0
    1.1749   -1.5035    0.0000 C   0  0  0  0  0  0  0  0  0
    0.3499   -1.5035    0.0000 C   0  0  0  0  0  0  0  0  0
    0.0950   -0.7189    0.0000 C   0  0  0  0  0  0  0  0  0
   -0.6896   -0.4639    0.0000 N   0  0  0  0  0  0  0  0  0
    0.7624   -0.2339    0.0000 C   0  0  0  0  0  0  0  0  0
    0.7624    0.5911    0.0000 O   0  0  0  0  0  0  0  0  0
  1  2  1  0  0  0  0
  1  6  1  0  0  0  0
  2  3  1  0  0  0  0
  3  4  1  0  0  0  0
  4  5  1  0  0  0  0
  4  6  1  0  0  0  0
  6  7  2  0  0  0  0
M  END
>  <Name_Molregno>
L-homocysteine-thiolactone

>  <5-HT1A>
5

>  <5-HT3>
5

>  <5-HT5>
5

>  <5-HT6>
5

>  <5-HT7>
5

>  <Alpha-1A>
5

>  <Alpha-1B>
5

>  <Alpha-2A>
5

>  <Alpha-2B>
5

>  <Alpha-2C>
5

>  <DOPAMINE D1>
5

>  <DOPAMINE D2>
5

>  <DOPAMINE D5>
5

>  <Dopamine transporter>
5

>  <HISTAMINE H1>
5

>  <HISTAMINE H2>
5

>  <HISTAMINE H4>
5

>  <Muscarinic acetylcholine receptor M1>
5

>  <Muscarinic acetylcholine receptor M2>
5

>  <Muscarinic acetylcholine receptor M3>
5

>  <Muscarinic acetylcholine receptor M4>
5

>  <Muscarinic acetylcholine receptor M5>
5

>  <Norepinephrine transporter>
5

>  <Serotonin transporter>
5

$$$$
Lofepramine
  Marvin  02231216192D 0   1.00000     0.00000     0

 30 33  0  0  0  0  0  0  0  0999 V2000
   -0.0355   -2.8173    0.0000 Cl  0  0  0  0  0  0  0  0  0
    0.6789   -2.4048    0.0000 C   0  0  0  0  0  0  0  0  0
    0.6789   -1.5798    0.0000 C   0  0  0  0  0  0  0  0  0
    1.3934   -1.1673    0.0000 C   0  0  0  0  0  0  0  0  0
    2.1079   -1.5798    0.0000 C   0  0  0  0  0  0  0  0  0
    2.1079   -2.4048    0.0000 C   0  0  0  0  0  0  0  0  0
    1.3934   -2.8173    0.0000 C   0  0  0  0  0  0  0  0  0
    2.8224   -1.1673    0.0000 C   0  0  0  0  0  0  0  0  0
    2.8224   -0.3423    0.0000 O   0  0  0  0  0  0  0  0  0
    3.5368   -1.5798    0.0000 C   0  0  0  0  0  0  0  0  0
    4.2513   -1.1673    0.0000 N   0  0  0  0  0  0  0  0  0
    4.9658   -1.5798    0.0000 C   0  0  0  0  0  0  0  0  0
    5.6802   -1.1673    0.0000 C   0  0  0  0  0  0  0  0  0
    6.3947   -1.5798    0.0000 C   0  0  0  0  0  0  0  0  0
    7.1092   -1.1673    0.0000 N   0  0  0  0  0  0  0  0  0
    7.0475   -0.3446    0.0000 C   0  0  0  0  0  0  0  0  0
    7.6523    0.2165    0.0000 C   0  0  0  0  0  0  0  0  0
    8.4681    0.0936    0.0000 C   0  0  0  0  0  0  0  0  0
    8.8806   -0.6209    0.0000 C   0  0  0  0  0  0  0  0  0
    8.5792   -1.3889    0.0000 C   0  0  0  0  0  0  0  0  0
    7.7908   -1.6321    0.0000 C   0  0  0  0  0  0  0  0  0
    7.6072   -2.4364    0.0000 C   0  0  0  0  0  0  0  0  0
    8.2120   -2.9975    0.0000 C   0  0  0  0  0  0  0  0  0
    9.0004   -2.7543    0.0000 C   0  0  0  0  0  0  0  0  0
    9.1839   -1.9500    0.0000 C   0  0  0  0  0  0  0  0  0
    7.4687    1.0208    0.0000 C   0  0  0  0  0  0  0  0  0
    6.6804    1.2640    0.0000 C   0  0  0  0  0  0  0  0  0
    6.0756    0.7029    0.0000 C   0  0  0  0  0  0  0  0  0
    6.2592   -0.1015    0.0000 C   0  0  0  0  0  0  0  0  0
    4.2513   -0.3423    0.0000 C   0  0  0  0  0  0  0  0  0
  1  2  1  0  0  0  0
  2  3  4  0  0  0  0
  2  7  4  0  0  0  0
  3  4  4  0  0  0  0
  4  5  4  0  0  0  0
  5  6  4  0  0  0  0
  5  8  1  0  0  0  0
  6  7  4  0  0  0  0
  8  9  2  0  0  0  0
  8 10  1  0  0  0  0
 10 11  1  0  0  0  0
 11 12  1  0  0  0  0
 11 30  1  0  0  0  0
 12 13  1  0  0  0  0
 13 14  1  0  0  0  0
 14 15  1  0  0  0  0
 15 16  1  0  0  0  0
 15 21  1  0  0  0  0
 16 17  4  0  0  0  0
 16 29  4  0  0  0  0
 17 18  1  0  0  0  0
 17 26  4  0  0  0  0
 18 19  1  0  0  0  0
 19 20  1  0  0  0  0
 20 21  4  0  0  0  0
 20 25  4  0  0  0  0
 21 22  4  0  0  0  0
 22 23  4  0  0  0  0
 23 24  4  0  0  0  0
 24 25  4  0  0  0  0
 26 27  4  0  0  0  0
 27 28  4  0  0  0  0
 28 29  4  0  0  0  0
M  END
>  <Name_Molregno>
Lofepramine

>  <5-HT1A>
5.34

>  <DOPAMINE D2>
5.7

>  <Dopamine transporter>
5

>  <HISTAMINE H1>
6.44

>  <Muscarinic acetylcholine receptor M1>
7.17

>  <Muscarinic acetylcholine receptor M2>
6.48

>  <Muscarinic acetylcholine receptor M3>
6.89

>  <Muscarinic acetylcholine receptor M4>
6.47

>  <Muscarinic acetylcholine receptor M5>
6.34

>  <Norepinephrine transporter>
8.27

>  <Serotonin transporter>
7.15

$$$$
Loperamide
  Marvin  02231216192D 0   1.00000     0.00000     0

 34 37  0  0  0  0  0  0  0  0999 V2000
    0.0392    1.0434    0.0000 Cl  0  0  0  0  0  0  0  0  0
    0.7869    0.6948    0.0000 C   0  0  0  0  0  0  0  0  0
    1.4627    1.1680    0.0000 C   0  0  0  0  0  0  0  0  0
    2.2104    0.8193    0.0000 C   0  0  0  0  0  0  0  0  0
    2.2823   -0.0026    0.0000 C   0  0  0  0  0  0  0  0  0
    1.6065   -0.4758    0.0000 C   0  0  0  0  0  0  0  0  0
    0.8588   -0.1271    0.0000 C   0  0  0  0  0  0  0  0  0
    3.0300   -0.3512    0.0000 C   0  0  0  0  0  0  0  0  0
    2.5568   -1.0270    0.0000 O   0  0  0  0  0  0  0  0  0
    3.2435    0.4457    0.0000 C   0  0  0  0  0  0  0  0  0
    4.0404    0.6592    0.0000 C   0  0  0  0  0  0  0  0  0
    4.6238    0.0758    0.0000 N   0  0  0  0  0  0  0  0  0
    4.4102   -0.7211    0.0000 C   0  0  0  0  0  0  0  0  0
    3.6133   -0.9346    0.0000 C   0  0  0  0  0  0  0  0  0
    5.4206    0.2893    0.0000 C   0  0  0  0  0  0  0  0  0
    5.6342    1.0862    0.0000 C   0  0  0  0  0  0  0  0  0
    6.4311    1.2998    0.0000 C   0  0  0  0  0  0  0  0  0
    6.6446    0.5029    0.0000 C   0  0  0  0  0  0  0  0  0
    6.0612   -0.0805    0.0000 O   0  0  0  0  0  0  0  0  0
    7.4415    0.2893    0.0000 N   0  0  0  0  0  0  0  0  0
    8.1766    0.6639    0.0000 C   0  0  0  0  0  0  0  0  0
    7.6550   -0.5075    0.0000 C   0  0  0  0  0  0  0  0  0
    7.2280    1.5133    0.0000 C   0  0  0  0  0  0  0  0  0
    7.4415    2.3102    0.0000 C   0  0  0  0  0  0  0  0  0
    8.2384    2.5237    0.0000 C   0  0  0  0  0  0  0  0  0
    8.8217    1.9403    0.0000 C   0  0  0  0  0  0  0  0  0
    8.6082    1.1435    0.0000 C   0  0  0  0  0  0  0  0  0
    7.8113    0.9299    0.0000 C   0  0  0  0  0  0  0  0  0
    6.2175    2.0967    0.0000 C   0  0  0  0  0  0  0  0  0
    5.4206    2.3102    0.0000 C   0  0  0  0  0  0  0  0  0
    5.2071    3.1071    0.0000 C   0  0  0  0  0  0  0  0  0
    5.7905    3.6904    0.0000 C   0  0  0  0  0  0  0  0  0
    6.5874    3.4769    0.0000 C   0  0  0  0  0  0  0  0  0
    6.8009    2.6800    0.0000 C   0  0  0  0  0  0  0  0  0
  1  2  1  0  0  0  0
  2  3  4  0  0  0  0
  2  7  4  0  0  0  0
  3  4  4  0  0  0  0
  4  5  4  0  0  0  0
  5  6  4  0  0  0  0
  5  8  1  0  0  0  0
  6  7  4  0  0  0  0
  8  9  1  0  0  0  0
  8 10  1  0  0  0  0
  8 14  1  0  0  0  0
 10 11  1  0  0  0  0
 11 12  1  0  0  0  0
 12 13  1  0  0  0  0
 12 15  1  0  0  0  0
 13 14  1  0  0  0  0
 15 16  1  0  0  0  0
 16 17  1  0  0  0  0
 17 18  1  0  0  0  0
 17 23  1  0  0  0  0
 17 29  1  0  0  0  0
 18 19  2  0  0  0  0
 18 20  1  0  0  0  0
 20 21  1  0  0  0  0
 20 22  1  0  0  0  0
 23 24  4  0  0  0  0
 23 28  4  0  0  0  0
 24 25  4  0  0  0  0
 25 26  4  0  0  0  0
 26 27  4  0  0  0  0
 27 28  4  0  0  0  0
 29 30  4  0  0  0  0
 29 34  4  0  0  0  0
 30 31  4  0  0  0  0
 31 32  4  0  0  0  0
 32 33  4  0  0  0  0
 33 34  4  0  0  0  0
M  END
>  <Name_Molregno>
Loperamide

>  <HISTAMINE H1>
5.7

$$$$
LORATADINE
  Marvin  02231216192D 0   1.00000     0.00000     0

 27 30  0  0  0  0  0  0  0  0999 V2000
    0.5616   -0.7619    0.0000 Cl  0  0  0  0  0  0  0  0  0
   -0.2267   -1.0051    0.0000 C   0  0  0  0  0  0  0  0  0
   -0.8315   -0.4439    0.0000 C   0  0  0  0  0  0  0  0  0
   -1.6198   -0.6871    0.0000 C   0  0  0  0  0  0  0  0  0
   -1.8034   -1.4914    0.0000 C   0  0  0  0  0  0  0  0  0
   -1.1986   -2.0525    0.0000 C   0  0  0  0  0  0  0  0  0
   -0.4103   -1.8094    0.0000 C   0  0  0  0  0  0  0  0  0
   -2.5467   -1.8494    0.0000 C   0  0  0  0  0  0  0  0  0
   -3.2900   -1.4914    0.0000 C   0  0  0  0  0  0  0  0  0
   -3.8948   -2.0525    0.0000 N   0  0  0  0  0  0  0  0  0
   -4.6831   -1.8094    0.0000 C   0  0  0  0  0  0  0  0  0
   -4.8667   -1.0051    0.0000 C   0  0  0  0  0  0  0  0  0
   -4.2619   -0.4439    0.0000 C   0  0  0  0  0  0  0  0  0
   -3.4736   -0.6871    0.0000 C   0  0  0  0  0  0  0  0  0
   -2.9592   -0.0421    0.0000 C   0  0  0  0  0  0  0  0  0
   -2.1342   -0.0421    0.0000 C   0  0  0  0  0  0  0  0  0
   -2.5467   -2.6744    0.0000 C   0  0  0  0  0  0  0  0  0
   -3.2612   -3.0869    0.0000 C   0  0  0  0  0  0  0  0  0
   -3.2612   -3.9119    0.0000 C   0  0  0  0  0  0  0  0  0
   -2.5467   -4.3244    0.0000 N   0  0  0  0  0  0  0  0  0
   -1.8322   -3.9119    0.0000 C   0  0  0  0  0  0  0  0  0
   -1.8322   -3.0869    0.0000 C   0  0  0  0  0  0  0  0  0
   -2.5467   -5.1494    0.0000 C   0  0  0  0  0  0  0  0  0
   -1.8322   -5.5619    0.0000 O   0  0  0  0  0  0  0  0  0
   -1.8322   -6.3869    0.0000 C   0  0  0  0  0  0  0  0  0
   -1.1178   -6.7994    0.0000 C   0  0  0  0  0  0  0  0  0
   -3.2612   -5.5619    0.0000 O   0  0  0  0  0  0  0  0  0
  1  2  1  0  0  0  0
  2  3  4  0  0  0  0
  2  7  4  0  0  0  0
  3  4  4  0  0  0  0
  4  5  4  0  0  0  0
  4 16  1  0  0  0  0
  5  6  4  0  0  0  0
  5  8  1  0  0  0  0
  6  7  4  0  0  0  0
  8  9  1  0  0  0  0
  8 17  2  0  0  0  0
  9 10  4  0  0  0  0
  9 14  4  0  0  0  0
 10 11  4  0  0  0  0
 11 12  4  0  0  0  0
 12 13  4  0  0  0  0
 13 14  4  0  0  0  0
 14 15  1  0  0  0  0
 15 16  1  0  0  0  0
 17 18  1  0  0  0  0
 17 22  1  0  0  0  0
 18 19  1  0  0  0  0
 19 20  1  0  0  0  0
 20 21  1  0  0  0  0
 20 23  1  0  0  0  0
 21 22  1  0  0  0  0
 23 24  1  0  0  0  0
 23 27  2  0  0  0  0
 24 25  1  0  0  0  0
 25 26  1  0  0  0  0
M  END
>  <Name_Molregno>
LORATADINE

>  <HISTAMINE H1>
6.38

$$$$
LOXAPINE
  Marvin  02231216192D 0   1.00000     0.00000     0

 23 26  0  0  0  0  0  0  0  0999 V2000
    3.9671    1.6854    0.0000 Cl  0  0  0  0  0  0  0  0  0
    3.1788    1.4422    0.0000 C   0  0  0  0  0  0  0  0  0
    2.5740    2.0033    0.0000 C   0  0  0  0  0  0  0  0  0
    1.7856    1.7602    0.0000 C   0  0  0  0  0  0  0  0  0
    1.6021    0.9558    0.0000 C   0  0  0  0  0  0  0  0  0
    0.8588    0.5979    0.0000 O   0  0  0  0  0  0  0  0  0
    0.1155    0.9558    0.0000 C   0  0  0  0  0  0  0  0  0
   -0.0681    1.7602    0.0000 C   0  0  0  0  0  0  0  0  0
    0.4463    2.4052    0.0000 N   0  0  0  0  0  0  0  0  0
    1.2713    2.4052    0.0000 C   0  0  0  0  0  0  0  0  0
    1.6292    3.1485    0.0000 N   0  0  0  0  0  0  0  0  0
    1.1645    3.8301    0.0000 C   0  0  0  0  0  0  0  0  0
    1.5224    4.5734    0.0000 C   0  0  0  0  0  0  0  0  0
    2.3451    4.6351    0.0000 N   0  0  0  0  0  0  0  0  0
    2.8099    3.9534    0.0000 C   0  0  0  0  0  0  0  0  0
    2.4519    3.2101    0.0000 C   0  0  0  0  0  0  0  0  0
    2.7031    5.3784    0.0000 C   0  0  0  0  0  0  0  0  0
   -0.8565    2.0033    0.0000 C   0  0  0  0  0  0  0  0  0
   -1.4612    1.4422    0.0000 C   0  0  0  0  0  0  0  0  0
   -1.2776    0.6379    0.0000 C   0  0  0  0  0  0  0  0  0
   -0.4893    0.3947    0.0000 C   0  0  0  0  0  0  0  0  0
    2.2068    0.3947    0.0000 C   0  0  0  0  0  0  0  0  0
    2.9952    0.6379    0.0000 C   0  0  0  0  0  0  0  0  0
  1  2  1  0  0  0  0
  2  3  4  0  0  0  0
  2 23  4  0  0  0  0
  3  4  4  0  0  0  0
  4  5  4  0  0  0  0
  4 10  1  0  0  0  0
  5  6  1  0  0  0  0
  5 22  4  0  0  0  0
  6  7  1  0  0  0  0
  7  8  4  0  0  0  0
  7 21  4  0  0  0  0
  8  9  1  0  0  0  0
  8 18  4  0  0  0  0
  9 10  2  0  0  0  0
 10 11  1  0  0  0  0
 11 12  1  0  0  0  0
 11 16  1  0  0  0  0
 12 13  1  0  0  0  0
 13 14  1  0  0  0  0
 14 15  1  0  0  0  0
 14 17  1  0  0  0  0
 15 16  1  0  0  0  0
 18 19  4  0  0  0  0
 19 20  4  0  0  0  0
 20 21  4  0  0  0  0
 22 23  4  0  0  0  0
M  END
>  <Name_Molregno>
LOXAPINE

>  <5-HT1A>
5.59

>  <5-HT1B>
6.41

>  <5-HT1D>
5.46

>  <5-HT1E>
5.85

>  <5-HT2A>
8.43

>  <5-HT2C>
7.9

>  <5-HT3>
6.72

>  <5-HT5>
6.11

>  <5-HT6>
7.46

>  <5-HT7>
7.06

>  <Alpha-1A>
7.51

>  <Alpha-1B>
7.28

>  <Alpha-2A>
6.82

>  <Alpha-2B>
6.97

>  <Alpha-2C>
7.1

>  <Beta-1>
5

>  <Beta-2>
5

>  <DOPAMINE D1>
7.27

>  <DOPAMINE D2>
7.74

>  <DOPAMINE D3>
7.64

>  <DOPAMINE D4>
8.04

>  <DOPAMINE D5>
7.12

>  <Dopamine transporter>
5

>  <HISTAMINE H1>
8.33

>  <HISTAMINE H2>
6.68

>  <HISTAMINE H4>
5.32

>  <Muscarinic acetylcholine receptor M1>
6.98

>  <Muscarinic acetylcholine receptor M2>
6.38

>  <Muscarinic acetylcholine receptor M3>
6.74

>  <Muscarinic acetylcholine receptor M4>
6.09

>  <Muscarinic acetylcholine receptor M5>
6.83

>  <Norepinephrine transporter>
5.24

>  <Serotonin transporter>
5

$$$$
MAPROTILINE
  Marvin  02231216192D 0   1.00000     0.00000     0

 21 24  0  0  0  0  0  0  0  0999 V2000
    1.1690   -3.5982    0.0000 N   0  0  0  0  0  0  0  0  0
    1.8855   -3.1892    0.0000 C   0  0  0  0  0  0  0  0  0
    1.8895   -2.3643    0.0000 C   0  0  0  0  0  0  0  0  0
    2.6060   -1.9553    0.0000 C   0  0  0  0  0  0  0  0  0
    2.6101   -1.1303    0.0000 C   0  0  0  0  0  0  0  0  0
    2.7498   -0.0917    0.0000 C   0  0  0  0  0  0  0  0  0
    2.5051    0.5142    0.0000 C   0  0  0  0  0  0  0  0  0
    2.4674   -0.3819    0.0000 C   0  0  0  0  0  0  0  0  0
    3.2060   -0.7142    0.0000 C   0  0  0  0  0  0  0  0  0
    3.3678   -1.5232    0.0000 C   0  0  0  0  0  0  0  0  0
    4.1493   -1.7876    0.0000 C   0  0  0  0  0  0  0  0  0
    4.7690   -1.2429    0.0000 C   0  0  0  0  0  0  0  0  0
    4.6072   -0.4340    0.0000 C   0  0  0  0  0  0  0  0  0
    3.8257   -0.1696    0.0000 C   0  0  0  0  0  0  0  0  0
    1.6636   -0.7338    0.0000 C   0  0  0  0  0  0  0  0  0
    1.7795   -1.5506    0.0000 C   0  0  0  0  0  0  0  0  0
    1.1301   -2.0594    0.0000 C   0  0  0  0  0  0  0  0  0
    0.3648   -1.7514    0.0000 C   0  0  0  0  0  0  0  0  0
    0.2488   -0.9346    0.0000 C   0  0  0  0  0  0  0  0  0
    0.8983   -0.4258    0.0000 C   0  0  0  0  0  0  0  0  0
    1.1649   -4.4232    0.0000 C   0  0  0  0  0  0  0  0  0
  1  2  1  0  0  0  0
  1 21  1  0  0  0  0
  2  3  1  0  0  0  0
  3  4  1  0  0  0  0
  4  5  1  0  0  0  0
  5  6  1  0  0  0  0
  5 10  1  0  0  0  0
  5 16  1  0  0  0  0
  6  7  1  0  0  0  0
  7  8  1  0  0  0  0
  8  9  1  0  0  0  0
  8 15  1  0  0  0  0
  9 10  4  0  0  0  0
  9 14  4  0  0  0  0
 10 11  4  0  0  0  0
 11 12  4  0  0  0  0
 12 13  4  0  0  0  0
 13 14  4  0  0  0  0
 15 16  4  0  0  0  0
 15 20  4  0  0  0  0
 16 17  4  0  0  0  0
 17 18  4  0  0  0  0
 18 19  4  0  0  0  0
 19 20  4  0  0  0  0
M  END
>  <Name_Molregno>
MAPROTILINE

>  <DOPAMINE D1>
6.4

>  <DOPAMINE D2>
6.18

>  <DOPAMINE D3>
6.3

>  <DOPAMINE D5>
6.37

>  <Dopamine transporter>
6

>  <HISTAMINE H1>
8.89

>  <HISTAMINE H3>
6

>  <Norepinephrine transporter>
7.95

>  <Serotonin transporter>
5.24

$$$$
MAZINDOL
  Marvin  02231216192D 0   1.00000     0.00000     0

 20 23  0  0  1  0  0  0  0  0999 V2000
    5.0271   -2.2891    0.0000 Cl  0  0  0  0  0  0  0  0  0
    4.4631   -1.6871    0.0000 C   0  0  0  0  0  0  0  0  0
    3.6596   -1.8745    0.0000 C   0  0  0  0  0  0  0  0  0
    3.0956   -1.2724    0.0000 C   0  0  0  0  0  0  0  0  0
    3.3350   -0.4829    0.0000 C   0  0  0  0  0  0  0  0  0
    4.1385   -0.2955    0.0000 C   0  0  0  0  0  0  0  0  0
    4.7025   -0.8976    0.0000 C   0  0  0  0  0  0  0  0  0
    2.7710    0.1192    0.0000 C   0  0  0  0  0  0  0  0  0
    2.2312   -0.5046    0.0000 O   0  0  0  0  0  0  0  0  0
    3.4288    0.6172    0.0000 N   0  0  0  0  0  0  0  0  0
    3.1584    1.3967    0.0000 C   0  0  0  0  0  0  0  0  0
    3.8162    1.8946    0.0000 N   0  0  0  0  0  0  0  0  0
    4.4930    1.4230    0.0000 C   0  0  0  0  0  0  0  0  0
    4.2536    0.6335    0.0000 C   0  0  0  0  0  0  0  0  0
    2.3336    1.3804    0.0000 C   0  0  0  0  0  0  0  0  0
    2.0942    0.5909    0.0000 C   0  0  0  0  0  0  0  0  0
    1.2907    0.4035    0.0000 C   0  0  0  0  0  0  0  0  0
    0.7267    1.0056    0.0000 C   0  0  0  0  0  0  0  0  0
    0.9661    1.7951    0.0000 C   0  0  0  0  0  0  0  0  0
    1.7696    1.9825    0.0000 C   0  0  0  0  0  0  0  0  0
  1  2  1  0  0  0  0
  2  3  4  0  0  0  0
  2  7  4  0  0  0  0
  3  4  4  0  0  0  0
  4  5  4  0  0  0  0
  5  6  4  0  0  0  0
  5  8  1  0  0  0  0
  6  7  4  0  0  0  0
  8  9  1  0  0  0  0
  8 10  1  0  0  0  0
  8 16  1  0  0  0  0
 10 11  1  0  0  0  0
 10 14  1  0  0  0  0
 11 12  2  0  0  0  0
 11 15  1  0  0  0  0
 12 13  1  0  0  0  0
 13 14  1  0  0  0  0
 15 16  4  0  0  0  0
 15 20  4  0  0  0  0
 16 17  4  0  0  0  0
 17 18  4  0  0  0  0
 18 19  4  0  0  0  0
 19 20  4  0  0  0  0
M  END
>  <Name_Molregno>
MAZINDOL

>  <Dopamine transporter>
7.6

>  <HISTAMINE H1>
6.22

>  <Norepinephrine transporter>
8.6

>  <Serotonin transporter>
7.3

$$$$
Meloxicam
  Marvin  02231216192D 0   1.00000     0.00000     0

 23 25  0  0  0  0  0  0  0  0999 V2000
    1.0530    2.3261    0.0000 S   0  0  0  0  0  0  0  0  0
    0.2461    2.4976    0.0000 C   0  0  0  0  0  0  0  0  0
   -0.1664    1.7831    0.0000 C   0  0  0  0  0  0  0  0  0
    0.3856    1.1700    0.0000 N   0  0  0  0  0  0  0  0  0
    1.1393    1.5056    0.0000 C   0  0  0  0  0  0  0  0  0
    1.8537    1.0931    0.0000 N   0  0  0  0  0  0  0  0  0
    1.8537    0.2681    0.0000 C   0  0  0  0  0  0  0  0  0
    1.1393   -0.1444    0.0000 O   0  0  0  0  0  0  0  0  0
    2.5682   -0.1444    0.0000 C   0  0  0  0  0  0  0  0  0
    2.5682   -0.9694    0.0000 N   0  0  0  0  0  0  0  0  0
    3.2827   -1.3819    0.0000 S   0  0  0  0  0  0  0  0  0
    2.7524   -2.0139    0.0000 O   0  0  0  0  0  0  0  0  0
    3.8130   -2.0139    0.0000 O   0  0  0  0  0  0  0  0  0
    3.9972   -0.9694    0.0000 C   0  0  0  0  0  0  0  0  0
    3.9972   -0.1444    0.0000 C   0  0  0  0  0  0  0  0  0
    4.7116    0.2681    0.0000 C   0  0  0  0  0  0  0  0  0
    5.4261   -0.1444    0.0000 C   0  0  0  0  0  0  0  0  0
    5.4261   -0.9694    0.0000 C   0  0  0  0  0  0  0  0  0
    4.7116   -1.3819    0.0000 C   0  0  0  0  0  0  0  0  0
    3.2827    0.2681    0.0000 C   0  0  0  0  0  0  0  0  0
    3.2827    1.0931    0.0000 O   0  0  0  0  0  0  0  0  0
    1.8537   -1.3819    0.0000 C   0  0  0  0  0  0  0  0  0
   -0.0895    3.2513    0.0000 C   0  0  0  0  0  0  0  0  0
  1  2  4  0  0  0  0
  1  5  4  0  0  0  0
  2  3  4  0  0  0  0
  2 23  1  0  0  0  0
  3  4  4  0  0  0  0
  4  5  4  0  0  0  0
  5  6  1  0  0  0  0
  6  7  1  0  0  0  0
  7  8  1  0  0  0  0
  7  9  2  0  0  0  0
  9 10  1  0  0  0  0
  9 20  1  0  0  0  0
 10 11  1  0  0  0  0
 10 22  1  0  0  0  0
 11 12  2  0  0  0  0
 11 13  2  0  0  0  0
 11 14  1  0  0  0  0
 14 15  4  0  0  0  0
 14 19  4  0  0  0  0
 15 16  4  0  0  0  0
 15 20  1  0  0  0  0
 16 17  4  0  0  0  0
 17 18  4  0  0  0  0
 18 19  4  0  0  0  0
 20 21  2  0  0  0  0
M  END
>  <Name_Molregno>
Meloxicam

>  <5-HT1A>
5

>  <5-HT1B>
5

>  <5-HT1D>
5

>  <5-HT1E>
5

>  <5-HT2A>
5

>  <5-HT3>
5

>  <5-HT5>
5

>  <5-HT6>
5

>  <5-HT7>
5

>  <Alpha-1A>
5

>  <Alpha-1B>
5

>  <Alpha-2A>
5

>  <Alpha-2B>
5

>  <Alpha-2C>
5

>  <DOPAMINE D1>
5

>  <DOPAMINE D2>
5

>  <DOPAMINE D4>
5

>  <DOPAMINE D5>
5

>  <Dopamine transporter>
5

>  <HISTAMINE H1>
5

>  <HISTAMINE H2>
5

>  <HISTAMINE H4>
5

>  <Muscarinic acetylcholine receptor M2>
5

>  <Muscarinic acetylcholine receptor M5>
5

>  <Norepinephrine transporter>
5

>  <Serotonin transporter>
5

$$$$
MELPERONE
  Marvin  02231216192D 0   1.00000     0.00000     0

 19 20  0  0  0  0  0  0  0  0999 V2000
    0.1244    2.1151    0.0000 F   0  0  0  0  0  0  0  0  0
    0.8389    1.7026    0.0000 C   0  0  0  0  0  0  0  0  0
    1.5534    2.1151    0.0000 C   0  0  0  0  0  0  0  0  0
    2.2678    1.7026    0.0000 C   0  0  0  0  0  0  0  0  0
    2.2678    0.8776    0.0000 C   0  0  0  0  0  0  0  0  0
    1.5534    0.4651    0.0000 C   0  0  0  0  0  0  0  0  0
    0.8389    0.8776    0.0000 C   0  0  0  0  0  0  0  0  0
    2.9823    0.4651    0.0000 C   0  0  0  0  0  0  0  0  0
    2.9823   -0.3599    0.0000 O   0  0  0  0  0  0  0  0  0
    3.6968    0.8776    0.0000 C   0  0  0  0  0  0  0  0  0
    4.4113    0.4651    0.0000 C   0  0  0  0  0  0  0  0  0
    5.1257    0.8776    0.0000 C   0  0  0  0  0  0  0  0  0
    5.8402    0.4651    0.0000 N   0  0  0  0  0  0  0  0  0
    6.5547    0.8776    0.0000 C   0  0  0  0  0  0  0  0  0
    7.2691    0.4651    0.0000 C   0  0  0  0  0  0  0  0  0
    7.2691   -0.3599    0.0000 C   0  0  0  0  0  0  0  0  0
    6.5547   -0.7724    0.0000 C   0  0  0  0  0  0  0  0  0
    5.8402   -0.3599    0.0000 C   0  0  0  0  0  0  0  0  0
    7.9836   -0.7724    0.0000 C   0  0  0  0  0  0  0  0  0
  1  2  1  0  0  0  0
  2  3  4  0  0  0  0
  2  7  4  0  0  0  0
  3  4  4  0  0  0  0
  4  5  4  0  0  0  0
  5  6  4  0  0  0  0
  5  8  1  0  0  0  0
  6  7  4  0  0  0  0
  8  9  2  0  0  0  0
  8 10  1  0  0  0  0
 10 11  1  0  0  0  0
 11 12  1  0  0  0  0
 12 13  1  0  0  0  0
 13 14  1  0  0  0  0
 13 18  1  0  0  0  0
 14 15  1  0  0  0  0
 15 16  1  0  0  0  0
 16 17  1  0  0  0  0
 16 19  1  0  0  0  0
 17 18  1  0  0  0  0
M  END
>  <Name_Molregno>
MELPERONE

>  <5-HT1A>
5.66

>  <5-HT1D>
5.47

>  <5-HT2A>
6.74

>  <5-HT2C>
5.68

>  <DOPAMINE D2>
7.04

>  <DOPAMINE D3>
7.45

>  <DOPAMINE D4>
6.33

>  <HISTAMINE H1>
6.24

>  <Muscarinic acetylcholine receptor M1>
5

>  <Muscarinic acetylcholine receptor M2>
5.62

>  <Muscarinic acetylcholine receptor M3>
5

>  <Muscarinic acetylcholine receptor M4>
5.36

>  <Muscarinic acetylcholine receptor M5>
5

$$$$
MEPYRAMINE
  Marvin  02231216192D 0   1.00000     0.00000     0

 21 22  0  0  0  0  0  0  0  0999 V2000
   -6.0198    1.4523    0.0000 O   0  0  0  0  0  0  0  0  0
   -6.7343    1.0398    0.0000 C   0  0  0  0  0  0  0  0  0
   -5.3053    1.0398    0.0000 C   0  0  0  0  0  0  0  0  0
   -4.5908    1.4523    0.0000 C   0  0  0  0  0  0  0  0  0
   -3.8764    1.0398    0.0000 C   0  0  0  0  0  0  0  0  0
   -3.8764    0.2148    0.0000 C   0  0  0  0  0  0  0  0  0
   -4.5908   -0.1977    0.0000 C   0  0  0  0  0  0  0  0  0
   -5.3053    0.2148    0.0000 C   0  0  0  0  0  0  0  0  0
   -3.1619   -0.1977    0.0000 C   0  0  0  0  0  0  0  0  0
   -2.4474    0.2148    0.0000 N   0  0  0  0  0  0  0  0  0
   -1.7330   -0.1977    0.0000 C   0  0  0  0  0  0  0  0  0
   -1.0185    0.2148    0.0000 C   0  0  0  0  0  0  0  0  0
   -0.3040   -0.1977    0.0000 N   0  0  0  0  0  0  0  0  0
    0.4104    0.2148    0.0000 C   0  0  0  0  0  0  0  0  0
   -0.3040   -1.0227    0.0000 C   0  0  0  0  0  0  0  0  0
   -2.4474    1.0398    0.0000 C   0  0  0  0  0  0  0  0  0
   -3.1619    1.4523    0.0000 N   0  0  0  0  0  0  0  0  0
   -3.1619    2.2773    0.0000 C   0  0  0  0  0  0  0  0  0
   -2.4474    2.6898    0.0000 C   0  0  0  0  0  0  0  0  0
   -1.7330    2.2773    0.0000 C   0  0  0  0  0  0  0  0  0
   -1.7330    1.4523    0.0000 C   0  0  0  0  0  0  0  0  0
  1  2  1  0  0  0  0
  1  3  1  0  0  0  0
  3  4  4  0  0  0  0
  3  8  4  0  0  0  0
  4  5  4  0  0  0  0
  5  6  4  0  0  0  0
  6  7  4  0  0  0  0
  6  9  1  0  0  0  0
  7  8  4  0  0  0  0
  9 10  1  0  0  0  0
 10 11  1  0  0  0  0
 10 16  1  0  0  0  0
 11 12  1  0  0  0  0
 12 13  1  0  0  0  0
 13 14  1  0  0  0  0
 13 15  1  0  0  0  0
 16 17  4  0  0  0  0
 16 21  4  0  0  0  0
 17 18  4  0  0  0  0
 18 19  4  0  0  0  0
 19 20  4  0  0  0  0
 20 21  4  0  0  0  0
M  END
>  <Name_Molregno>
MEPYRAMINE

>  <5-HT1A>
5

>  <5-HT2A>
5.7

>  <5-HT3>
5

>  <HISTAMINE H1>
8.65

>  <HISTAMINE H3>
5

$$$$
Mequitazine
  Marvin  02231216192D 0   1.00000     0.00000     0

 23 27  0  0  1  0  0  0  0  0999 V2000
   -0.0890    2.6216    0.0000 S   0  0  0  0  0  0  0  0  0
   -0.0890    1.7966    0.0000 C   0  0  0  0  0  0  0  0  0
    0.6254    1.3841    0.0000 C   0  0  0  0  0  0  0  0  0
    1.3399    1.7966    0.0000 N   0  0  0  0  0  0  0  0  0
    1.3399    2.6216    0.0000 C   0  0  0  0  0  0  0  0  0
    0.6254    3.0341    0.0000 C   0  0  0  0  0  0  0  0  0
    0.6254    3.8591    0.0000 C   0  0  0  0  0  0  0  0  0
    1.3399    4.2716    0.0000 C   0  0  0  0  0  0  0  0  0
    2.0544    3.8591    0.0000 C   0  0  0  0  0  0  0  0  0
    2.0544    3.0341    0.0000 C   0  0  0  0  0  0  0  0  0
    2.0544    1.3841    0.0000 C   0  0  0  0  0  0  0  0  0
    2.0544    0.5591    0.0000 C   0  0  0  0  0  0  0  0  0
    2.7531    0.0284    0.0000 C   0  0  0  0  0  0  0  0  0
    2.8226   -0.7785    0.0000 C   0  0  0  0  0  0  0  0  0
    2.2304   -1.2834    0.0000 C   0  0  0  0  0  0  0  0  0
    2.1690   -0.4607    0.0000 N   0  0  0  0  0  0  0  0  0
    1.4468    0.0976    0.0000 C   0  0  0  0  0  0  0  0  0
    3.1441   -0.0770    0.0000 C   0  0  0  0  0  0  0  0  0
    3.5542    0.4318    0.0000 C   0  0  0  0  0  0  0  0  0
    0.6254    0.5591    0.0000 C   0  0  0  0  0  0  0  0  0
   -0.0890    0.1466    0.0000 C   0  0  0  0  0  0  0  0  0
   -0.8035    0.5591    0.0000 C   0  0  0  0  0  0  0  0  0
   -0.8035    1.3841    0.0000 C   0  0  0  0  0  0  0  0  0
  1  2  1  0  0  0  0
  1  6  1  0  0  0  0
  2  3  4  0  0  0  0
  2 23  4  0  0  0  0
  3  4  1  0  0  0  0
  3 20  4  0  0  0  0
  4  5  1  0  0  0  0
  4 11  1  0  0  0  0
  5  6  4  0  0  0  0
  5 10  4  0  0  0  0
  6  7  4  0  0  0  0
  7  8  4  0  0  0  0
  8  9  4  0  0  0  0
  9 10  4  0  0  0  0
 11 12  1  0  0  0  0
 12 13  1  0  0  0  0
 12 17  1  0  0  0  0
 13 14  1  0  0  0  0
 13 19  1  0  0  0  0
 14 15  1  0  0  0  0
 15 16  1  0  0  0  0
 16 17  1  0  0  0  0
 16 18  1  0  0  0  0
 18 19  1  0  0  0  0
 20 21  4  0  0  0  0
 21 22  4  0  0  0  0
 22 23  4  0  0  0  0
M  END
>  <Name_Molregno>
Mequitazine

>  <HISTAMINE H1>
8.24

>  <Muscarinic acetylcholine receptor M1>
8.25

>  <Muscarinic acetylcholine receptor M2>
7.85

>  <Muscarinic acetylcholine receptor M3>
8.28

>  <Muscarinic acetylcholine receptor M4>
7.95

>  <Muscarinic acetylcholine receptor M5>
7.96

$$$$
Methcathinone
  Marvin  02231216192D 0   1.00000     0.00000     0

 12 12  0  0  1  0  0  0  0  0999 V2000
    1.9192   -0.0549    0.0000 O   0  0  0  0  0  0  0  0  0
    1.2047   -0.4674    0.0000 C   0  0  0  0  0  0  0  0  0
    0.4903   -0.0549    0.0000 C   0  0  0  0  0  0  0  0  0
    0.4903    0.7701    0.0000 N   0  0  0  0  0  0  0  0  0
   -0.2242    1.1826    0.0000 C   0  0  0  0  0  0  0  0  0
   -0.2242   -0.4674    0.0000 C   0  0  0  0  0  0  0  0  0
    1.2047   -1.2924    0.0000 C   0  0  0  0  0  0  0  0  0
    1.9192   -1.7049    0.0000 C   0  0  0  0  0  0  0  0  0
    1.9192   -2.5299    0.0000 C   0  0  0  0  0  0  0  0  0
    1.2047   -2.9424    0.0000 C   0  0  0  0  0  0  0  0  0
    0.4903   -2.5299    0.0000 C   0  0  0  0  0  0  0  0  0
    0.4903   -1.7049    0.0000 C   0  0  0  0  0  0  0  0  0
  1  2  2  0  0  0  0
  2  3  1  0  0  0  0
  2  7  1  0  0  0  0
  3  4  1  0  0  0  0
  3  6  1  0  0  0  0
  4  5  1  0  0  0  0
  7  8  4  0  0  0  0
  7 12  4  0  0  0  0
  8  9  4  0  0  0  0
  9 10  4  0  0  0  0
 10 11  4  0  0  0  0
 11 12  4  0  0  0  0
M  END
>  <Name_Molregno>
Methcathinone

>  <5-HT1A>
5

>  <5-HT1B>
5

>  <5-HT1D>
5

>  <5-HT1E>
5

>  <5-HT3>
5

>  <5-HT5>
5

>  <5-HT6>
5

>  <5-HT7>
6

>  <Alpha-1A>
5

>  <Alpha-1B>
5

>  <Alpha-2A>
5.04

>  <Alpha-2B>
5.81

>  <Alpha-2C>
6.22

>  <Beta-1>
5

>  <Beta-2>
5

>  <DOPAMINE D1>
5

>  <DOPAMINE D2>
5

>  <DOPAMINE D4>
5

>  <DOPAMINE D5>
5

>  <Dopamine transporter>
6.41

>  <HISTAMINE H1>
5

>  <HISTAMINE H2>
5

>  <HISTAMINE H4>
5

>  <Muscarinic acetylcholine receptor M1>
5

>  <Muscarinic acetylcholine receptor M2>
5

>  <Muscarinic acetylcholine receptor M3>
5

>  <Muscarinic acetylcholine receptor M4>
5

>  <Muscarinic acetylcholine receptor M5>
5

>  <Norepinephrine transporter>
6.87

>  <Serotonin transporter>
5.38

$$$$
METHIMEPIP
  Marvin  02231216192D 0   1.00000     0.00000     0

 13 14  0  0  0  0  0  0  0  0999 V2000
   -3.1437   -1.2213    0.0000 N   0  0  0  0  0  0  0  0  0
   -3.3986   -0.4367    0.0000 C   0  0  0  0  0  0  0  0  0
   -2.7312    0.0482    0.0000 C   0  0  0  0  0  0  0  0  0
   -2.0638   -0.4367    0.0000 N   0  0  0  0  0  0  0  0  0
   -2.3187   -1.2213    0.0000 C   0  0  0  0  0  0  0  0  0
   -2.7312    0.8732    0.0000 C   0  0  0  0  0  0  0  0  0
   -2.0167    1.2857    0.0000 C   0  0  0  0  0  0  0  0  0
   -2.0167    2.1107    0.0000 C   0  0  0  0  0  0  0  0  0
   -1.3022    2.5232    0.0000 C   0  0  0  0  0  0  0  0  0
   -0.5878    2.1107    0.0000 N   0  0  0  0  0  0  0  0  0
   -0.5878    1.2857    0.0000 C   0  0  0  0  0  0  0  0  0
   -1.3022    0.8732    0.0000 C   0  0  0  0  0  0  0  0  0
    0.1267    2.5232    0.0000 C   0  0  0  0  0  0  0  0  0
  1  2  4  0  0  0  0
  1  5  4  0  0  0  0
  2  3  4  0  0  0  0
  3  4  4  0  0  0  0
  3  6  1  0  0  0  0
  4  5  4  0  0  0  0
  6  7  1  0  0  0  0
  7  8  1  0  0  0  0
  7 12  1  0  0  0  0
  8  9  1  0  0  0  0
  9 10  1  0  0  0  0
 10 11  1  0  0  0  0
 10 13  1  0  0  0  0
 11 12  1  0  0  0  0
M  STY  1   1 DAT
M  SAL   1  1   1
M  SDT   1 MRV_IMPLICIT_H                                        
M  SDD   1     0.0000    0.0000    DR    ALL  0       0  
M  SED   1 IMPL_H1
M  END
>  <Name_Molregno>
METHIMEPIP

>  <HISTAMINE H1>
5

>  <HISTAMINE H2>
5

>  <HISTAMINE H3>
9

>  <HISTAMINE H4>
5.7

$$$$
METHYSERGIDE
  Marvin  02231216192D 0   1.00000     0.00000     0

 26 29  0  0  1  0  0  0  0  0999 V2000
   -5.6466   -4.8655    0.0000 O   0  0  0  0  0  0  0  0  0
   -5.6457   -4.0405    0.0000 C   0  0  0  0  0  0  0  0  0
   -4.9307   -3.6289    0.0000 C   0  0  0  0  0  0  0  0  0
   -4.9297   -2.8039    0.0000 N   0  0  0  0  0  0  0  0  0
   -4.2147   -2.3922    0.0000 C   0  0  0  0  0  0  0  0  0
   -3.5008   -2.8056    0.0000 O   0  0  0  0  0  0  0  0  0
   -4.2138   -1.5672    0.0000 C   0  0  0  0  0  0  0  0  0
   -3.4988   -1.1556    0.0000 C   0  0  0  0  0  0  0  0  0
   -3.4978   -0.3306    0.0000 C   0  0  0  0  0  0  0  0  0
   -4.2118    0.0828    0.0000 C   0  0  0  0  0  0  0  0  0
   -4.9267   -0.3289    0.0000 N   0  0  0  0  0  0  0  0  0
   -4.9277   -1.1539    0.0000 C   0  0  0  0  0  0  0  0  0
   -5.6407    0.0845    0.0000 C   0  0  0  0  0  0  0  0  0
   -4.2103    0.9069    0.0000 C   0  0  0  0  0  0  0  0  0
   -3.4978    1.3194    0.0000 C   0  0  0  0  0  0  0  0  0
   -2.7853    0.9069    0.0000 C   0  0  0  0  0  0  0  0  0
   -2.7853    0.0819    0.0000 C   0  0  0  0  0  0  0  0  0
   -2.0674   -0.3306    0.0000 C   0  0  0  0  0  0  0  0  0
   -1.3549    0.0819    0.0000 C   0  0  0  0  0  0  0  0  0
   -1.3549    0.9069    0.0000 C   0  0  0  0  0  0  0  0  0
   -2.0674    1.3194    0.0000 C   0  0  0  0  0  0  0  0  0
   -2.3728    2.1766    0.0000 N   0  0  0  0  0  0  0  0  0
   -3.1978    2.1766    0.0000 C   0  0  0  0  0  0  0  0  0
   -1.8973    2.8507    0.0000 C   0  0  0  0  0  0  0  0  0
   -4.2167   -4.0422    0.0000 C   0  0  0  0  0  0  0  0  0
   -4.2177   -4.8672    0.0000 C   0  0  0  0  0  0  0  0  0
  1  2  1  0  0  0  0
  2  3  1  0  0  0  0
  3  4  1  0  0  0  0
  3 25  1  0  0  0  0
  4  5  1  0  0  0  0
  5  6  2  0  0  0  0
  5  7  1  0  0  0  0
  7  8  1  0  0  0  0
  7 12  1  0  0  0  0
  8  9  2  0  0  0  0
  9 10  1  0  0  0  0
  9 17  1  0  0  0  0
 10 11  1  0  0  0  0
 10 14  1  0  0  0  0
 11 12  1  0  0  0  0
 11 13  1  0  0  0  0
 14 15  1  0  0  0  0
 15 16  4  0  0  0  0
 15 23  4  0  0  0  0
 16 17  4  0  0  0  0
 16 21  4  0  0  0  0
 17 18  4  0  0  0  0
 18 19  4  0  0  0  0
 19 20  4  0  0  0  0
 20 21  4  0  0  0  0
 21 22  4  0  0  0  0
 22 23  4  0  0  0  0
 22 24  1  0  0  0  0
 25 26  1  0  0  0  0
M  END
>  <Name_Molregno>
METHYSERGIDE

>  <5-HT1A>
7.81

>  <5-HT1B>
7.91

>  <5-HT1D>
7.56

>  <5-HT1E>
6.71

>  <5-HT2A>
8.05

>  <5-HT2C>
8.69

>  <5-HT3>
5

>  <5-HT5>
5

>  <5-HT6>
6.82

>  <5-HT7>
7.32

>  <Alpha-1A>
5

>  <Alpha-1B>
5

>  <Alpha-2A>
6.77

>  <Alpha-2B>
6.97

>  <Alpha-2C>
7.05

>  <Beta-1>
5

>  <Beta-2>
5

>  <DOPAMINE D1>
5

>  <DOPAMINE D2>
5

>  <DOPAMINE D4>
5

>  <DOPAMINE D5>
5

>  <Dopamine transporter>
5

>  <HISTAMINE H1>
5.26

>  <HISTAMINE H2>
5

>  <Muscarinic acetylcholine receptor M1>
5.26

>  <Muscarinic acetylcholine receptor M2>
5.21

>  <Muscarinic acetylcholine receptor M3>
5.33

>  <Muscarinic acetylcholine receptor M4>
5

>  <Muscarinic acetylcholine receptor M5>
5

>  <Norepinephrine transporter>
5

>  <Serotonin transporter>
5

$$$$
MIANSERIN
  Marvin  02231216192D 0   1.00000     0.00000     0

 20 23  0  0  1  0  0  0  0  0999 V2000
   -0.0097    0.0139    0.0000 N   0  0  0  0  0  0  0  0  0
    0.8153    0.0139    0.0000 C   0  0  0  0  0  0  0  0  0
    1.3296   -0.6312    0.0000 C   0  0  0  0  0  0  0  0  0
    1.1460   -1.4355    0.0000 C   0  0  0  0  0  0  0  0  0
    0.4028   -1.7934    0.0000 C   0  0  0  0  0  0  0  0  0
   -0.3405   -1.4355    0.0000 C   0  0  0  0  0  0  0  0  0
   -0.5241   -0.6312    0.0000 C   0  0  0  0  0  0  0  0  0
   -1.3125   -0.3880    0.0000 C   0  0  0  0  0  0  0  0  0
   -1.9172   -0.9491    0.0000 C   0  0  0  0  0  0  0  0  0
   -1.7337   -1.7534    0.0000 C   0  0  0  0  0  0  0  0  0
   -0.9453   -1.9966    0.0000 C   0  0  0  0  0  0  0  0  0
    1.7508   -1.9966    0.0000 C   0  0  0  0  0  0  0  0  0
    2.5392   -1.7534    0.0000 C   0  0  0  0  0  0  0  0  0
    2.7227   -0.9491    0.0000 C   0  0  0  0  0  0  0  0  0
    2.1180   -0.3880    0.0000 C   0  0  0  0  0  0  0  0  0
    1.2278    0.7283    0.0000 C   0  0  0  0  0  0  0  0  0
    0.8153    1.4428    0.0000 N   0  0  0  0  0  0  0  0  0
   -0.0097    1.4428    0.0000 C   0  0  0  0  0  0  0  0  0
   -0.4222    0.7283    0.0000 C   0  0  0  0  0  0  0  0  0
    1.2278    2.1573    0.0000 C   0  0  0  0  0  0  0  0  0
  1  2  1  0  0  0  0
  1  7  1  0  0  0  0
  1 19  1  0  0  0  0
  2  3  1  0  0  0  0
  2 16  1  0  0  0  0
  3  4  4  0  0  0  0
  3 15  4  0  0  0  0
  4  5  1  0  0  0  0
  4 12  4  0  0  0  0
  5  6  1  0  0  0  0
  6  7  4  0  0  0  0
  6 11  4  0  0  0  0
  7  8  4  0  0  0  0
  8  9  4  0  0  0  0
  9 10  4  0  0  0  0
 10 11  4  0  0  0  0
 12 13  4  0  0  0  0
 13 14  4  0  0  0  0
 14 15  4  0  0  0  0
 16 17  1  0  0  0  0
 17 18  1  0  0  0  0
 17 20  1  0  0  0  0
 18 19  1  0  0  0  0
M  END
>  <Name_Molregno>
MIANSERIN

>  <5-HT1A>
6.15

>  <5-HT1D>
6.53

>  <5-HT2A>
8.13

>  <5-HT2C>
8.5

>  <5-HT6>
7.2

>  <5-HT7>
7.28

>  <Alpha-2A>
8.32

>  <Alpha-2B>
7.57

>  <Alpha-2C>
8.42

>  <DOPAMINE D1>
6.11

>  <DOPAMINE D2>
5.69

>  <DOPAMINE D3>
5.55

>  <Dopamine transporter>
5.03

>  <HISTAMINE H1>
9.13

>  <HISTAMINE H4>
6.12

>  <Norepinephrine transporter>
7.15

>  <Serotonin transporter>
5.4

$$$$
MIRTAZAPINE
  Marvin  02231216192D 0   1.00000     0.00000     0

 20 23  0  0  1  0  0  0  0  0999 V2000
   -2.9515    1.3173    0.0000 N   0  0  0  0  0  0  0  0  0
   -2.1632    1.0741    0.0000 C   0  0  0  0  0  0  0  0  0
   -1.6488    1.7191    0.0000 N   0  0  0  0  0  0  0  0  0
   -0.8238    1.7191    0.0000 C   0  0  0  0  0  0  0  0  0
   -0.3094    1.0741    0.0000 C   0  0  0  0  0  0  0  0  0
   -0.4930    0.2698    0.0000 C   0  0  0  0  0  0  0  0  0
   -1.2363   -0.0881    0.0000 C   0  0  0  0  0  0  0  0  0
   -1.9796    0.2698    0.0000 C   0  0  0  0  0  0  0  0  0
   -2.5844   -0.2913    0.0000 C   0  0  0  0  0  0  0  0  0
   -3.3727   -0.0482    0.0000 C   0  0  0  0  0  0  0  0  0
   -3.5563    0.7562    0.0000 C   0  0  0  0  0  0  0  0  0
    0.1118   -0.2913    0.0000 C   0  0  0  0  0  0  0  0  0
    0.9001   -0.0482    0.0000 C   0  0  0  0  0  0  0  0  0
    1.0837    0.7562    0.0000 C   0  0  0  0  0  0  0  0  0
    0.4789    1.3173    0.0000 C   0  0  0  0  0  0  0  0  0
   -0.4113    2.4336    0.0000 C   0  0  0  0  0  0  0  0  0
   -0.8238    3.1481    0.0000 N   0  0  0  0  0  0  0  0  0
   -1.6488    3.1481    0.0000 C   0  0  0  0  0  0  0  0  0
   -2.0613    2.4336    0.0000 C   0  0  0  0  0  0  0  0  0
   -0.4113    3.8626    0.0000 C   0  0  0  0  0  0  0  0  0
  1  2  4  0  0  0  0
  1 11  4  0  0  0  0
  2  3  1  0  0  0  0
  2  8  4  0  0  0  0
  3  4  1  0  0  0  0
  3 19  1  0  0  0  0
  4  5  1  0  0  0  0
  4 16  1  0  0  0  0
  5  6  4  0  0  0  0
  5 15  4  0  0  0  0
  6  7  1  0  0  0  0
  6 12  4  0  0  0  0
  7  8  1  0  0  0  0
  8  9  4  0  0  0  0
  9 10  4  0  0  0  0
 10 11  4  0  0  0  0
 12 13  4  0  0  0  0
 13 14  4  0  0  0  0
 14 15  4  0  0  0  0
 16 17  1  0  0  0  0
 17 18  1  0  0  0  0
 17 20  1  0  0  0  0
 18 19  1  0  0  0  0
M  END
>  <Name_Molregno>
MIRTAZAPINE

>  <5-HT1A>
7.74

>  <5-HT2A>
7.16

>  <5-HT2C>
7.41

>  <5-HT7>
6.58

>  <Alpha-2A>
7.7

>  <Alpha-2C>
7.74

>  <DOPAMINE D1>
5.38

>  <DOPAMINE D2>
5.26

>  <DOPAMINE D3>
6.06

>  <DOPAMINE D4>
7.6

>  <Dopamine transporter>
5

>  <HISTAMINE H1>
8.8

>  <Norepinephrine transporter>
5.29

>  <Serotonin transporter>
5

$$$$
MIZOLASTINE
  Marvin  02231216192D 0   1.00000     0.00000     0

 32 36  0  0  0  0  0  0  0  0999 V2000
    7.6746   -4.6442    0.0000 F   0  0  0  0  0  0  0  0  0
    7.1226   -4.0311    0.0000 C   0  0  0  0  0  0  0  0  0
    6.3156   -4.2026    0.0000 C   0  0  0  0  0  0  0  0  0
    5.7636   -3.5895    0.0000 C   0  0  0  0  0  0  0  0  0
    6.0185   -2.8049    0.0000 C   0  0  0  0  0  0  0  0  0
    6.8255   -2.6334    0.0000 C   0  0  0  0  0  0  0  0  0
    7.3775   -3.2465    0.0000 C   0  0  0  0  0  0  0  0  0
    5.4665   -2.1918    0.0000 C   0  0  0  0  0  0  0  0  0
    5.7214   -1.4072    0.0000 N   0  0  0  0  0  0  0  0  0
    6.5060   -1.1522    0.0000 C   0  0  0  0  0  0  0  0  0
    6.5060   -0.3272    0.0000 C   0  0  0  0  0  0  0  0  0
    5.7214   -0.0723    0.0000 N   0  0  0  0  0  0  0  0  0
    5.2365   -0.7397    0.0000 C   0  0  0  0  0  0  0  0  0
    4.4115   -0.7397    0.0000 N   0  0  0  0  0  0  0  0  0
    3.9990   -1.4542    0.0000 C   0  0  0  0  0  0  0  0  0
    3.1740   -1.4542    0.0000 C   0  0  0  0  0  0  0  0  0
    2.7615   -0.7397    0.0000 C   0  0  0  0  0  0  0  0  0
    1.9365   -0.7397    0.0000 N   0  0  0  0  0  0  0  0  0
    1.5240   -1.4542    0.0000 C   0  0  0  0  0  0  0  0  0
    1.5240   -0.0253    0.0000 C   0  0  0  0  0  0  0  0  0
    0.6990   -0.0253    0.0000 N   0  0  0  0  0  0  0  0  0
    0.2865    0.6892    0.0000 C   0  0  0  0  0  0  0  0  0
   -0.5385    0.6892    0.0000 O   0  0  0  0  0  0  0  0  0
    0.6990    1.4037    0.0000 C   0  0  0  0  0  0  0  0  0
    1.5240    1.4037    0.0000 C   0  0  0  0  0  0  0  0  0
    1.9365    0.6892    0.0000 N   0  0  0  0  0  0  0  0  0
    3.1740   -0.0253    0.0000 C   0  0  0  0  0  0  0  0  0
    3.9990   -0.0253    0.0000 C   0  0  0  0  0  0  0  0  0
    7.2205    0.0853    0.0000 C   0  0  0  0  0  0  0  0  0
    7.9350   -0.3272    0.0000 C   0  0  0  0  0  0  0  0  0
    7.9350   -1.1522    0.0000 C   0  0  0  0  0  0  0  0  0
    7.2205   -1.5647    0.0000 C   0  0  0  0  0  0  0  0  0
  1  2  1  0  0  0  0
  2  3  4  0  0  0  0
  2  7  4  0  0  0  0
  3  4  4  0  0  0  0
  4  5  4  0  0  0  0
  5  6  4  0  0  0  0
  5  8  1  0  0  0  0
  6  7  4  0  0  0  0
  8  9  1  0  0  0  0
  9 10  4  0  0  0  0
  9 13  4  0  0  0  0
 10 11  4  0  0  0  0
 10 32  4  0  0  0  0
 11 12  4  0  0  0  0
 11 29  4  0  0  0  0
 12 13  4  0  0  0  0
 13 14  1  0  0  0  0
 14 15  1  0  0  0  0
 14 28  1  0  0  0  0
 15 16  1  0  0  0  0
 16 17  1  0  0  0  0
 17 18  1  0  0  0  0
 17 27  1  0  0  0  0
 18 19  1  0  0  0  0
 18 20  1  0  0  0  0
 20 21  1  0  0  0  0
 20 26  2  0  0  0  0
 21 22  1  0  0  0  0
 22 23  2  0  0  0  0
 22 24  1  0  0  0  0
 24 25  2  0  0  0  0
 25 26  1  0  0  0  0
 27 28  1  0  0  0  0
 29 30  4  0  0  0  0
 30 31  4  0  0  0  0
 31 32  4  0  0  0  0
M  END
>  <Name_Molregno>
MIZOLASTINE

>  <HISTAMINE H1>
8.57

>  <Muscarinic acetylcholine receptor M1>
5

$$$$
MOLINDONE
  Marvin  02231216192D 0   1.00000     0.00000     0

 20 22  0  0  1  0  0  0  0  0999 V2000
    0.1066   -1.7192    0.0000 O   0  0  0  0  0  0  0  0  0
   -0.6079   -2.1317    0.0000 C   0  0  0  0  0  0  0  0  0
   -1.3224   -1.7192    0.0000 C   0  0  0  0  0  0  0  0  0
   -1.3224   -0.8942    0.0000 N   0  0  0  0  0  0  0  0  0
   -0.6079   -0.4817    0.0000 C   0  0  0  0  0  0  0  0  0
    0.1066   -0.8942    0.0000 C   0  0  0  0  0  0  0  0  0
   -2.0368   -0.4817    0.0000 C   0  0  0  0  0  0  0  0  0
   -2.7513   -0.8942    0.0000 C   0  0  0  0  0  0  0  0  0
   -2.7513   -1.7192    0.0000 C   0  0  0  0  0  0  0  0  0
   -3.4658   -2.1317    0.0000 C   0  0  0  0  0  0  0  0  0
   -4.1803   -1.7192    0.0000 C   0  0  0  0  0  0  0  0  0
   -4.9649   -1.9741    0.0000 N   0  0  0  0  0  0  0  0  0
   -5.4498   -1.3067    0.0000 C   0  0  0  0  0  0  0  0  0
   -6.2748   -1.3067    0.0000 C   0  0  0  0  0  0  0  0  0
   -4.9649   -0.6392    0.0000 C   0  0  0  0  0  0  0  0  0
   -4.1803   -0.8942    0.0000 C   0  0  0  0  0  0  0  0  0
   -3.4658   -0.4817    0.0000 C   0  0  0  0  0  0  0  0  0
   -3.4658    0.3433    0.0000 O   0  0  0  0  0  0  0  0  0
   -5.2198    0.1454    0.0000 C   0  0  0  0  0  0  0  0  0
   -4.6678    0.7585    0.0000 C   0  0  0  0  0  0  0  0  0
  1  2  1  0  0  0  0
  1  6  1  0  0  0  0
  2  3  1  0  0  0  0
  3  4  1  0  0  0  0
  4  5  1  0  0  0  0
  4  7  1  0  0  0  0
  5  6  1  0  0  0  0
  7  8  1  0  0  0  0
  8  9  1  0  0  0  0
  8 17  1  0  0  0  0
  9 10  1  0  0  0  0
 10 11  1  0  0  0  0
 11 12  4  0  0  0  0
 11 16  4  0  0  0  0
 12 13  4  0  0  0  0
 13 14  1  0  0  0  0
 13 15  4  0  0  0  0
 15 16  4  0  0  0  0
 15 19  1  0  0  0  0
 16 17  1  0  0  0  0
 17 18  2  0  0  0  0
 19 20  1  0  0  0  0
M  STY  1   1 DAT
M  SAL   1  1  12
M  SDT   1 MRV_IMPLICIT_H                                        
M  SDD   1     0.0000    0.0000    DR    ALL  0       0  
M  SED   1 IMPL_H1
M  END
>  <Name_Molregno>
MOLINDONE

>  <5-HT1A>
5.42

>  <5-HT2A>
5.41

>  <5-HT2C>
5

>  <5-HT6>
6

>  <5-HT7>
6.05

>  <Alpha-1A>
5.58

>  <Alpha-2A>
5.96

>  <Alpha-2B>
6.25

>  <Alpha-2C>
6.76

>  <DOPAMINE D2>
7.74

>  <DOPAMINE D3>
7.39

>  <DOPAMINE D4>
5.99

>  <HISTAMINE H1>
5.17

>  <Muscarinic acetylcholine receptor M3>
5

$$$$
N-(4-Acetamidophenyl)indomethacinamide
  Marvin  02231216192D 0   1.00000     0.00000     0

 37 40  0  0  0  0  0  0  0  0999 V2000
    0.5106    2.7433    0.0000 Cl  0  0  0  0  0  0  0  0  0
    1.3311    2.6571    0.0000 C   0  0  0  0  0  0  0  0  0
    1.8160    3.3245    0.0000 C   0  0  0  0  0  0  0  0  0
    2.6365    3.2383    0.0000 C   0  0  0  0  0  0  0  0  0
    2.9720    2.4846    0.0000 C   0  0  0  0  0  0  0  0  0
    2.4871    1.8172    0.0000 C   0  0  0  0  0  0  0  0  0
    1.6666    1.9034    0.0000 C   0  0  0  0  0  0  0  0  0
    3.7925    2.3984    0.0000 C   0  0  0  0  0  0  0  0  0
    4.2774    3.0658    0.0000 O   0  0  0  0  0  0  0  0  0
    4.1281    1.6447    0.0000 N   0  0  0  0  0  0  0  0  0
    3.7156    0.9302    0.0000 C   0  0  0  0  0  0  0  0  0
    4.2676    0.3171    0.0000 C   0  0  0  0  0  0  0  0  0
    4.0127   -0.4675    0.0000 C   0  0  0  0  0  0  0  0  0
    3.2057   -0.6390    0.0000 C   0  0  0  0  0  0  0  0  0
    2.9508   -1.4236    0.0000 O   0  0  0  0  0  0  0  0  0
    2.1438   -1.5952    0.0000 C   0  0  0  0  0  0  0  0  0
    2.6537   -0.0259    0.0000 C   0  0  0  0  0  0  0  0  0
    2.9086    0.7587    0.0000 C   0  0  0  0  0  0  0  0  0
    5.0213    0.6527    0.0000 C   0  0  0  0  0  0  0  0  0
    5.7358    0.2402    0.0000 C   0  0  0  0  0  0  0  0  0
    5.7358   -0.5848    0.0000 C   0  0  0  0  0  0  0  0  0
    5.0213   -0.9973    0.0000 O   0  0  0  0  0  0  0  0  0
    6.4502   -0.9973    0.0000 N   0  0  0  0  0  0  0  0  0
    7.1647   -0.5848    0.0000 C   0  0  0  0  0  0  0  0  0
    7.1647    0.2402    0.0000 C   0  0  0  0  0  0  0  0  0
    7.8792    0.6527    0.0000 C   0  0  0  0  0  0  0  0  0
    7.8792    1.4777    0.0000 C   0  0  0  0  0  0  0  0  0
    8.5936    1.8902    0.0000 C   0  0  0  0  0  0  0  0  0
    9.3081    1.4777    0.0000 C   0  0  0  0  0  0  0  0  0
   10.0226    1.8902    0.0000 N   0  0  0  0  0  0  0  0  0
   10.7371    1.4777    0.0000 C   0  0  0  0  0  0  0  0  0
   11.4515    1.8902    0.0000 O   0  0  0  0  0  0  0  0  0
   10.7371    0.6527    0.0000 C   0  0  0  0  0  0  0  0  0
    9.3081    0.6527    0.0000 C   0  0  0  0  0  0  0  0  0
    8.5936    0.2402    0.0000 C   0  0  0  0  0  0  0  0  0
    4.9351    1.4732    0.0000 C   0  0  0  0  0  0  0  0  0
    5.5481    2.0252    0.0000 C   0  0  0  0  0  0  0  0  0
  1  2  1  0  0  0  0
  2  3  4  0  0  0  0
  2  7  4  0  0  0  0
  3  4  4  0  0  0  0
  4  5  4  0  0  0  0
  5  6  4  0  0  0  0
  5  8  1  0  0  0  0
  6  7  4  0  0  0  0
  8  9  2  0  0  0  0
  8 10  1  0  0  0  0
 10 11  4  0  0  0  0
 10 36  4  0  0  0  0
 11 12  4  0  0  0  0
 11 18  4  0  0  0  0
 12 13  4  0  0  0  0
 12 19  4  0  0  0  0
 13 14  4  0  0  0  0
 14 15  1  0  0  0  0
 14 17  4  0  0  0  0
 15 16  1  0  0  0  0
 17 18  4  0  0  0  0
 19 20  1  0  0  0  0
 19 36  4  0  0  0  0
 20 21  1  0  0  0  0
 21 22  2  0  0  0  0
 21 23  1  0  0  0  0
 23 24  1  0  0  0  0
 24 25  1  0  0  0  0
 25 26  1  0  0  0  0
 26 27  4  0  0  0  0
 26 35  4  0  0  0  0
 27 28  4  0  0  0  0
 28 29  4  0  0  0  0
 29 30  1  0  0  0  0
 29 34  4  0  0  0  0
 30 31  1  0  0  0  0
 31 32  2  0  0  0  0
 31 33  1  0  0  0  0
 34 35  4  0  0  0  0
 36 37  1  0  0  0  0
M  END
>  <Name_Molregno>
N-(4-Acetamidophenyl)indomethacinamide

>  <5-HT1A>
5

>  <5-HT1B>
5

>  <5-HT1E>
5

>  <5-HT2A>
5

>  <5-HT3>
5

>  <5-HT6>
5

>  <5-HT7>
5

>  <Alpha-1A>
5

>  <Alpha-1B>
5

>  <Alpha-2A>
5

>  <Alpha-2B>
5

>  <Alpha-2C>
5

>  <DOPAMINE D1>
5

>  <DOPAMINE D2>
5

>  <DOPAMINE D5>
5

>  <Dopamine transporter>
5

>  <HISTAMINE H1>
5

>  <HISTAMINE H2>
5

>  <HISTAMINE H4>
5

>  <Muscarinic acetylcholine receptor M2>
5

>  <Muscarinic acetylcholine receptor M5>
5

>  <Serotonin transporter>
5

$$$$
Naproxen
  Marvin  02231216192D 0   1.00000     0.00000     0

 17 18  0  0  1  0  0  0  0  0999 V2000
   -5.3383   -1.4581    0.0000 O   0  0  0  0  0  0  0  0  0
   -6.0528   -1.0456    0.0000 C   0  0  0  0  0  0  0  0  0
   -4.6238   -1.0456    0.0000 C   0  0  0  0  0  0  0  0  0
   -3.9093   -1.4581    0.0000 C   0  0  0  0  0  0  0  0  0
   -3.1949   -1.0456    0.0000 C   0  0  0  0  0  0  0  0  0
   -3.1949   -0.2206    0.0000 C   0  0  0  0  0  0  0  0  0
   -2.4804    0.1919    0.0000 C   0  0  0  0  0  0  0  0  0
   -1.7659   -0.2206    0.0000 C   0  0  0  0  0  0  0  0  0
   -1.7659   -1.0456    0.0000 C   0  0  0  0  0  0  0  0  0
   -2.4804   -1.4581    0.0000 C   0  0  0  0  0  0  0  0  0
   -1.0515    0.1919    0.0000 C   0  0  0  0  0  0  0  0  0
   -0.3370   -0.2206    0.0000 C   0  0  0  0  0  0  0  0  0
    0.3775    0.1919    0.0000 O   0  0  0  0  0  0  0  0  0
   -0.3370   -1.0456    0.0000 O   0  0  0  0  0  0  0  0  0
   -1.0515    1.0169    0.0000 C   0  0  0  0  0  0  0  0  0
   -3.9093    0.1919    0.0000 C   0  0  0  0  0  0  0  0  0
   -4.6238   -0.2206    0.0000 C   0  0  0  0  0  0  0  0  0
  1  2  1  0  0  0  0
  1  3  1  0  0  0  0
  3  4  4  0  0  0  0
  3 17  4  0  0  0  0
  4  5  4  0  0  0  0
  5  6  4  0  0  0  0
  5 10  4  0  0  0  0
  6  7  4  0  0  0  0
  6 16  4  0  0  0  0
  7  8  4  0  0  0  0
  8  9  4  0  0  0  0
  8 11  1  0  0  0  0
  9 10  4  0  0  0  0
 11 12  1  0  0  0  0
 11 15  1  0  0  0  0
 12 13  1  0  0  0  0
 12 14  2  0  0  0  0
 16 17  4  0  0  0  0
M  END
>  <Name_Molregno>
Naproxen

>  <5-HT1A>
5

>  <5-HT1B>
5

>  <5-HT1D>
5

>  <5-HT1E>
5

>  <5-HT2A>
5

>  <5-HT3>
5

>  <5-HT5>
5

>  <5-HT6>
5

>  <5-HT7>
5

>  <Alpha-1A>
5

>  <Alpha-1B>
5

>  <Alpha-2A>
5

>  <Alpha-2B>
5

>  <Alpha-2C>
5

>  <DOPAMINE D1>
5

>  <DOPAMINE D2>
5

>  <DOPAMINE D4>
5

>  <DOPAMINE D5>
5

>  <Dopamine transporter>
5

>  <HISTAMINE H1>
5

>  <HISTAMINE H2>
5

>  <HISTAMINE H4>
5

>  <Muscarinic acetylcholine receptor M2>
5

>  <Muscarinic acetylcholine receptor M5>
5

>  <Norepinephrine transporter>
5

>  <Serotonin transporter>
5

$$$$
N-DESMETHYLCLOZAPINE
  Marvin  02231216192D 0   1.00000     0.00000     0

 22 25  0  0  0  0  0  0  0  0999 V2000
   -0.3818   -1.7384    0.0000 Cl  0  0  0  0  0  0  0  0  0
    0.4065   -1.9816    0.0000 C   0  0  0  0  0  0  0  0  0
    1.0113   -1.4204    0.0000 C   0  0  0  0  0  0  0  0  0
    1.7996   -1.6636    0.0000 C   0  0  0  0  0  0  0  0  0
    2.3140   -1.0186    0.0000 N   0  0  0  0  0  0  0  0  0
    3.1390   -1.0186    0.0000 C   0  0  0  0  0  0  0  0  0
    3.4969   -0.2753    0.0000 N   0  0  0  0  0  0  0  0  0
    3.0322    0.4063    0.0000 C   0  0  0  0  0  0  0  0  0
    3.3902    1.1496    0.0000 C   0  0  0  0  0  0  0  0  0
    4.2129    1.2113    0.0000 N   0  0  0  0  0  0  0  0  0
    4.6776    0.5296    0.0000 C   0  0  0  0  0  0  0  0  0
    4.3196   -0.2137    0.0000 C   0  0  0  0  0  0  0  0  0
    3.6534   -1.6636    0.0000 C   0  0  0  0  0  0  0  0  0
    3.4698   -2.4679    0.0000 C   0  0  0  0  0  0  0  0  0
    2.7265   -2.8259    0.0000 N   0  0  0  0  0  0  0  0  0
    1.9832   -2.4679    0.0000 C   0  0  0  0  0  0  0  0  0
    1.3784   -3.0291    0.0000 C   0  0  0  0  0  0  0  0  0
    0.5901   -2.7859    0.0000 C   0  0  0  0  0  0  0  0  0
    4.0746   -3.0291    0.0000 C   0  0  0  0  0  0  0  0  0
    4.8629   -2.7859    0.0000 C   0  0  0  0  0  0  0  0  0
    5.0465   -1.9816    0.0000 C   0  0  0  0  0  0  0  0  0
    4.4417   -1.4204    0.0000 C   0  0  0  0  0  0  0  0  0
  1  2  1  0  0  0  0
  2  3  4  0  0  0  0
  2 18  4  0  0  0  0
  3  4  4  0  0  0  0
  4  5  1  0  0  0  0
  4 16  4  0  0  0  0
  5  6  1  0  0  0  0
  6  7  1  0  0  0  0
  6 13  2  0  0  0  0
  7  8  1  0  0  0  0
  7 12  1  0  0  0  0
  8  9  1  0  0  0  0
  9 10  1  0  0  0  0
 10 11  1  0  0  0  0
 11 12  1  0  0  0  0
 13 14  1  0  0  0  0
 13 22  1  0  0  0  0
 14 15  2  0  0  0  0
 14 19  1  0  0  0  0
 15 16  1  0  0  0  0
 16 17  4  0  0  0  0
 17 18  4  0  0  0  0
 19 20  2  0  0  0  0
 20 21  1  0  0  0  0
 21 22  2  0  0  0  0
M  END
>  <Name_Molregno>
N-DESMETHYLCLOZAPINE

>  <5-HT1A>
7.86

>  <5-HT1B>
6.39

>  <5-HT1D>
6.32

>  <5-HT1E>
6.41

>  <5-HT2A>
7.96

>  <5-HT3>
6.57

>  <5-HT5>
6.46

>  <5-HT6>
7.94

>  <5-HT7>
7.22

>  <Alpha-1A>
6.98

>  <Alpha-1B>
7.07

>  <Alpha-2A>
6.86

>  <Alpha-2B>
7.02

>  <Alpha-2C>
6.93

>  <Beta-1>
5.2

>  <Beta-2>
5.33

>  <DOPAMINE D1>
7.84

>  <DOPAMINE D2>
7

>  <DOPAMINE D3>
6.82

>  <DOPAMINE D4>
7.28

>  <DOPAMINE D5>
6.55

>  <Dopamine transporter>
5

>  <HISTAMINE H1>
8.47

>  <HISTAMINE H2>
6.46

>  <HISTAMINE H4>
5.99

>  <Muscarinic acetylcholine receptor M1>
7.17

>  <Muscarinic acetylcholine receptor M2>
6.38

>  <Muscarinic acetylcholine receptor M3>
7.02

>  <Muscarinic acetylcholine receptor M4>
6.77

>  <Muscarinic acetylcholine receptor M5>
7.45

>  <Norepinephrine transporter>
6.31

>  <Serotonin transporter>
6.5

$$$$
Nefazodone
  Marvin  02231216192D 0   1.00000     0.00000     0

 33 36  0  0  0  0  0  0  0  0999 V2000
   -0.9304    2.1702    0.0000 Cl  0  0  0  0  0  0  0  0  0
   -1.6449    2.5827    0.0000 C   0  0  0  0  0  0  0  0  0
   -2.3594    2.1702    0.0000 C   0  0  0  0  0  0  0  0  0
   -3.0738    2.5827    0.0000 C   0  0  0  0  0  0  0  0  0
   -3.7883    2.1702    0.0000 N   0  0  0  0  0  0  0  0  0
   -3.7883    1.3452    0.0000 C   0  0  0  0  0  0  0  0  0
   -4.5028    0.9327    0.0000 C   0  0  0  0  0  0  0  0  0
   -5.2172    1.3452    0.0000 N   0  0  0  0  0  0  0  0  0
   -5.2172    2.1702    0.0000 C   0  0  0  0  0  0  0  0  0
   -4.5028    2.5827    0.0000 C   0  0  0  0  0  0  0  0  0
   -5.9317    0.9327    0.0000 C   0  0  0  0  0  0  0  0  0
   -5.9317    0.1077    0.0000 C   0  0  0  0  0  0  0  0  0
   -6.6462   -0.3048    0.0000 C   0  0  0  0  0  0  0  0  0
   -6.6462   -1.1298    0.0000 N   0  0  0  0  0  0  0  0  0
   -5.9787   -1.6147    0.0000 N   0  0  0  0  0  0  0  0  0
   -6.2337   -2.3994    0.0000 C   0  0  0  0  0  0  0  0  0
   -7.0587   -2.3994    0.0000 N   0  0  0  0  0  0  0  0  0
   -7.5436   -3.0668    0.0000 C   0  0  0  0  0  0  0  0  0
   -8.3641   -2.9806    0.0000 C   0  0  0  0  0  0  0  0  0
   -8.8490   -3.6480    0.0000 O   0  0  0  0  0  0  0  0  0
   -9.6695   -3.5618    0.0000 C   0  0  0  0  0  0  0  0  0
  -10.1544   -4.2292    0.0000 C   0  0  0  0  0  0  0  0  0
  -10.9749   -4.1430    0.0000 C   0  0  0  0  0  0  0  0  0
  -11.3104   -3.3893    0.0000 C   0  0  0  0  0  0  0  0  0
  -10.8255   -2.7219    0.0000 C   0  0  0  0  0  0  0  0  0
  -10.0050   -2.8081    0.0000 C   0  0  0  0  0  0  0  0  0
   -7.3136   -1.6147    0.0000 C   0  0  0  0  0  0  0  0  0
   -8.0982   -1.3598    0.0000 O   0  0  0  0  0  0  0  0  0
   -5.7488   -3.0668    0.0000 C   0  0  0  0  0  0  0  0  0
   -6.0843   -3.8205    0.0000 C   0  0  0  0  0  0  0  0  0
   -3.0738    3.4077    0.0000 C   0  0  0  0  0  0  0  0  0
   -2.3594    3.8202    0.0000 C   0  0  0  0  0  0  0  0  0
   -1.6449    3.4077    0.0000 C   0  0  0  0  0  0  0  0  0
  1  2  1  0  0  0  0
  2  3  4  0  0  0  0
  2 33  4  0  0  0  0
  3  4  4  0  0  0  0
  4  5  1  0  0  0  0
  4 31  4  0  0  0  0
  5  6  1  0  0  0  0
  5 10  1  0  0  0  0
  6  7  1  0  0  0  0
  7  8  1  0  0  0  0
  8  9  1  0  0  0  0
  8 11  1  0  0  0  0
  9 10  1  0  0  0  0
 11 12  1  0  0  0  0
 12 13  1  0  0  0  0
 13 14  1  0  0  0  0
 14 15  1  0  0  0  0
 14 27  1  0  0  0  0
 15 16  2  0  0  0  0
 16 17  1  0  0  0  0
 16 29  1  0  0  0  0
 17 18  1  0  0  0  0
 17 27  1  0  0  0  0
 18 19  1  0  0  0  0
 19 20  1  0  0  0  0
 20 21  1  0  0  0  0
 21 22  4  0  0  0  0
 21 26  4  0  0  0  0
 22 23  4  0  0  0  0
 23 24  4  0  0  0  0
 24 25  4  0  0  0  0
 25 26  4  0  0  0  0
 27 28  2  0  0  0  0
 29 30  1  0  0  0  0
 31 32  4  0  0  0  0
 32 33  4  0  0  0  0
M  END
>  <Name_Molregno>
Nefazodone

>  <5-HT1A>
7.1

>  <DOPAMINE D2>
6.04

>  <Dopamine transporter>
6.44

>  <HISTAMINE H1>
5

>  <Norepinephrine transporter>
6.27

>  <Serotonin transporter>
6.43

$$$$
nimesulide
  Marvin  02231216192D 0   1.00000     0.00000     0

 21 22  0  0  0  0  0  0  0  0999 V2000
    3.1126    1.9121    0.0000 S   0  0  0  0  0  0  0  0  0
    3.8271    2.3246    0.0000 O   0  0  0  0  0  0  0  0  0
    2.7001    2.6266    0.0000 O   0  0  0  0  0  0  0  0  0
    2.3982    1.4996    0.0000 N   0  0  0  0  0  0  0  0  0
    2.3982    0.6746    0.0000 C   0  0  0  0  0  0  0  0  0
    3.1126    0.2621    0.0000 C   0  0  0  0  0  0  0  0  0
    3.1126   -0.5629    0.0000 C   0  0  0  0  0  0  0  0  0
    2.3982   -0.9754    0.0000 C   0  0  0  0  0  0  0  0  0
    2.3982   -1.8004    0.0000 N   0  3  0  0  0  0  0  0  0
    1.6837   -2.2129    0.0000 O   0  5  0  0  0  0  0  0  0
    3.1126   -2.2129    0.0000 O   0  5  0  0  0  0  0  0  0
    1.6837   -0.5629    0.0000 C   0  0  0  0  0  0  0  0  0
    1.6837    0.2621    0.0000 C   0  0  0  0  0  0  0  0  0
    0.9692    0.6746    0.0000 O   0  0  0  0  0  0  0  0  0
    0.9692    1.4996    0.0000 C   0  0  0  0  0  0  0  0  0
    0.2548    1.9121    0.0000 C   0  0  0  0  0  0  0  0  0
    0.2548    2.7371    0.0000 C   0  0  0  0  0  0  0  0  0
    0.9692    3.1496    0.0000 C   0  0  0  0  0  0  0  0  0
    1.6837    2.7371    0.0000 C   0  0  0  0  0  0  0  0  0
    1.6837    1.9121    0.0000 C   0  0  0  0  0  0  0  0  0
    3.5251    1.1976    0.0000 C   0  0  0  0  0  0  0  0  0
  1  2  2  0  0  0  0
  1  3  2  0  0  0  0
  1  4  1  0  0  0  0
  1 21  1  0  0  0  0
  4  5  1  0  0  0  0
  5  6  4  0  0  0  0
  5 13  4  0  0  0  0
  6  7  4  0  0  0  0
  7  8  4  0  0  0  0
  8  9  1  0  0  0  0
  8 12  4  0  0  0  0
  9 10  1  0  0  0  0
  9 11  1  0  0  0  0
 12 13  4  0  0  0  0
 13 14  1  0  0  0  0
 14 15  1  0  0  0  0
 15 16  4  0  0  0  0
 15 20  4  0  0  0  0
 16 17  4  0  0  0  0
 17 18  4  0  0  0  0
 18 19  4  0  0  0  0
 19 20  4  0  0  0  0
M  CHG  3   9   1  10  -1  11  -1
M  END
>  <Name_Molregno>
nimesulide

>  <5-HT1A>
5

>  <5-HT1B>
5

>  <5-HT1D>
5

>  <5-HT1E>
5

>  <5-HT2A>
5

>  <5-HT3>
5

>  <5-HT5>
5

>  <5-HT6>
5

>  <5-HT7>
5

>  <Alpha-1A>
5

>  <Alpha-1B>
5

>  <Alpha-2A>
5

>  <Alpha-2B>
5

>  <Alpha-2C>
5

>  <DOPAMINE D1>
5

>  <DOPAMINE D2>
5

>  <DOPAMINE D4>
5

>  <DOPAMINE D5>
5

>  <Dopamine transporter>
5

>  <HISTAMINE H1>
5

>  <HISTAMINE H2>
5

>  <HISTAMINE H4>
5

>  <Muscarinic acetylcholine receptor M2>
5

>  <Muscarinic acetylcholine receptor M5>
5

>  <Norepinephrine transporter>
5

>  <Serotonin transporter>
5

$$$$
Nitrazepam
  Marvin  02231216192D 0   1.00000     0.00000     0

 21 23  0  0  0  0  0  0  0  0999 V2000
    4.8097   -1.2396    0.0000 O   0  0  0  0  0  0  0  0  0
    4.2954   -0.5946    0.0000 C   0  0  0  0  0  0  0  0  0
    3.4911   -0.7782    0.0000 N   0  0  0  0  0  0  0  0  0
    2.8460   -0.2638    0.0000 C   0  0  0  0  0  0  0  0  0
    2.8460    0.5612    0.0000 C   0  0  0  0  0  0  0  0  0
    2.1316    0.9737    0.0000 C   0  0  0  0  0  0  0  0  0
    1.4171    0.5612    0.0000 C   0  0  0  0  0  0  0  0  0
    0.7026    0.9737    0.0000 N   0  3  0  0  0  0  0  0  0
   -0.0118    0.5612    0.0000 O   0  5  0  0  0  0  0  0  0
    0.7026    1.7987    0.0000 O   0  5  0  0  0  0  0  0  0
    1.4171   -0.2638    0.0000 C   0  0  0  0  0  0  0  0  0
    2.1316   -0.6763    0.0000 C   0  0  0  0  0  0  0  0  0
    3.4911    1.0756    0.0000 C   0  0  0  0  0  0  0  0  0
    4.2954    0.8920    0.0000 N   0  0  0  0  0  0  0  0  0
    4.6533    0.1487    0.0000 C   0  0  0  0  0  0  0  0  0
    3.3075    1.8799    0.0000 C   0  0  0  0  0  0  0  0  0
    2.5191    2.1231    0.0000 C   0  0  0  0  0  0  0  0  0
    2.3355    2.9274    0.0000 C   0  0  0  0  0  0  0  0  0
    2.9403    3.4885    0.0000 C   0  0  0  0  0  0  0  0  0
    3.7287    3.2453    0.0000 C   0  0  0  0  0  0  0  0  0
    3.9122    2.4410    0.0000 C   0  0  0  0  0  0  0  0  0
  1  2  2  0  0  0  0
  2  3  1  0  0  0  0
  2 15  1  0  0  0  0
  3  4  1  0  0  0  0
  4  5  4  0  0  0  0
  4 12  4  0  0  0  0
  5  6  4  0  0  0  0
  5 13  1  0  0  0  0
  6  7  4  0  0  0  0
  7  8  1  0  0  0  0
  7 11  4  0  0  0  0
  8  9  1  0  0  0  0
  8 10  1  0  0  0  0
 11 12  4  0  0  0  0
 13 14  2  0  0  0  0
 13 16  1  0  0  0  0
 14 15  1  0  0  0  0
 16 17  4  0  0  0  0
 16 21  4  0  0  0  0
 17 18  4  0  0  0  0
 18 19  4  0  0  0  0
 19 20  4  0  0  0  0
 20 21  4  0  0  0  0
M  CHG  3   8   1   9  -1  10  -1
M  END
>  <Name_Molregno>
Nitrazepam

>  <HISTAMINE H1>
5

$$$$
NOMIFENSINE
  Marvin  02231216192D 0   1.00000     0.00000     0

 18 20  0  0  1  0  0  0  0  0999 V2000
    1.4401   -2.6248    0.0000 N   0  0  0  0  0  0  0  0  0
    1.4401   -1.7998    0.0000 C   0  0  0  0  0  0  0  0  0
    2.1546   -1.3873    0.0000 C   0  0  0  0  0  0  0  0  0
    2.1546   -0.5623    0.0000 C   0  0  0  0  0  0  0  0  0
    1.4401   -0.1498    0.0000 C   0  0  0  0  0  0  0  0  0
    0.7256   -0.5623    0.0000 C   0  0  0  0  0  0  0  0  0
    0.7256   -1.3873    0.0000 C   0  0  0  0  0  0  0  0  0
    2.8690   -0.1498    0.0000 C   0  0  0  0  0  0  0  0  0
    3.5835   -0.5623    0.0000 C   0  0  0  0  0  0  0  0  0
    3.5835   -1.3873    0.0000 N   0  0  0  0  0  0  0  0  0
    2.8690   -1.7998    0.0000 C   0  0  0  0  0  0  0  0  0
    4.2980   -1.7998    0.0000 C   0  0  0  0  0  0  0  0  0
    2.8690    0.6752    0.0000 C   0  0  0  0  0  0  0  0  0
    2.1546    1.0877    0.0000 C   0  0  0  0  0  0  0  0  0
    2.1546    1.9127    0.0000 C   0  0  0  0  0  0  0  0  0
    2.8690    2.3252    0.0000 C   0  0  0  0  0  0  0  0  0
    3.5835    1.9127    0.0000 C   0  0  0  0  0  0  0  0  0
    3.5835    1.0877    0.0000 C   0  0  0  0  0  0  0  0  0
  1  2  1  0  0  0  0
  2  3  4  0  0  0  0
  2  7  4  0  0  0  0
  3  4  4  0  0  0  0
  3 11  1  0  0  0  0
  4  5  4  0  0  0  0
  4  8  1  0  0  0  0
  5  6  4  0  0  0  0
  6  7  4  0  0  0  0
  8  9  1  0  0  0  0
  8 13  1  0  0  0  0
  9 10  1  0  0  0  0
 10 11  1  0  0  0  0
 10 12  1  0  0  0  0
 13 14  4  0  0  0  0
 13 18  4  0  0  0  0
 14 15  4  0  0  0  0
 15 16  4  0  0  0  0
 16 17  4  0  0  0  0
 17 18  4  0  0  0  0
M  END
>  <Name_Molregno>
NOMIFENSINE

>  <5-HT1A>
5.93

>  <DOPAMINE D1>
5

>  <DOPAMINE D2>
5

>  <Dopamine transporter>
7.31

>  <HISTAMINE H1>
5.57

>  <Norepinephrine transporter>
7.67

>  <Serotonin transporter>
5.65

$$$$
Norephedrine
  Marvin  02231216192D 0   1.00000     0.00000     0

 11 11  0  0  1  0  0  0  0  0999 V2000
    1.9974    0.2298    0.0000 O   0  0  0  0  0  0  0  0  0
    1.2829   -0.1827    0.0000 C   0  0  0  0  0  0  0  0  0
    0.5684    0.2298    0.0000 C   0  0  0  0  0  0  0  0  0
    0.5684    1.0548    0.0000 N   0  0  0  0  0  0  0  0  0
   -0.1461   -0.1827    0.0000 C   0  0  0  0  0  0  0  0  0
    1.2829   -1.0077    0.0000 C   0  0  0  0  0  0  0  0  0
    1.9974   -1.4202    0.0000 C   0  0  0  0  0  0  0  0  0
    1.9974   -2.2452    0.0000 C   0  0  0  0  0  0  0  0  0
    1.2829   -2.6577    0.0000 C   0  0  0  0  0  0  0  0  0
    0.5684   -2.2452    0.0000 C   0  0  0  0  0  0  0  0  0
    0.5684   -1.4202    0.0000 C   0  0  0  0  0  0  0  0  0
  1  2  1  0  0  0  0
  2  3  1  0  0  0  0
  2  6  1  0  0  0  0
  3  4  1  0  0  0  0
  3  5  1  0  0  0  0
  6  7  4  0  0  0  0
  6 11  4  0  0  0  0
  7  8  4  0  0  0  0
  8  9  4  0  0  0  0
  9 10  4  0  0  0  0
 10 11  4  0  0  0  0
M  END
>  <Name_Molregno>
Norephedrine

>  <5-HT1A>
5

>  <5-HT1B>
5

>  <5-HT1D>
5

>  <5-HT1E>
5

>  <5-HT3>
5

>  <5-HT5>
5

>  <5-HT6>
5

>  <5-HT7>
5.04

>  <Alpha-1A>
5

>  <Alpha-1B>
5

>  <Alpha-2A>
5.64

>  <Alpha-2B>
5.73

>  <Alpha-2C>
6.04

>  <Beta-1>
5

>  <Beta-2>
5

>  <DOPAMINE D1>
5

>  <DOPAMINE D2>
5

>  <DOPAMINE D4>
5

>  <DOPAMINE D5>
5

>  <Dopamine transporter>
5.76

>  <HISTAMINE H1>
5

>  <HISTAMINE H2>
5

>  <HISTAMINE H4>
5

>  <Muscarinic acetylcholine receptor M1>
5.04

>  <Muscarinic acetylcholine receptor M2>
5

>  <Muscarinic acetylcholine receptor M3>
5

>  <Muscarinic acetylcholine receptor M4>
5

>  <Muscarinic acetylcholine receptor M5>
5

>  <Norepinephrine transporter>
6.34

>  <Serotonin transporter>
5

$$$$
Norfenfluramine
  Marvin  02231216192D 0   1.00000     0.00000     0

 14 14  0  0  1  0  0  0  0  0999 V2000
    0.4631   -1.9707    0.0000 F   0  0  0  0  0  0  0  0  0
    1.1776   -1.5582    0.0000 C   0  0  0  0  0  0  0  0  0
    1.5901   -2.2727    0.0000 F   0  0  0  0  0  0  0  0  0
    0.7651   -0.8437    0.0000 F   0  0  0  0  0  0  0  0  0
    1.8921   -1.1457    0.0000 C   0  0  0  0  0  0  0  0  0
    1.8921   -0.3207    0.0000 C   0  0  0  0  0  0  0  0  0
    2.6065    0.0918    0.0000 C   0  0  0  0  0  0  0  0  0
    3.3210   -0.3207    0.0000 C   0  0  0  0  0  0  0  0  0
    3.3210   -1.1457    0.0000 C   0  0  0  0  0  0  0  0  0
    2.6065   -1.5582    0.0000 C   0  0  0  0  0  0  0  0  0
    2.6065    0.9168    0.0000 C   0  0  0  0  0  0  0  0  0
    3.3210    1.3293    0.0000 C   0  0  0  0  0  0  0  0  0
    3.3210    2.1543    0.0000 N   0  0  0  0  0  0  0  0  0
    4.0355    0.9168    0.0000 C   0  0  0  0  0  0  0  0  0
  1  2  1  0  0  0  0
  2  3  1  0  0  0  0
  2  4  1  0  0  0  0
  2  5  1  0  0  0  0
  5  6  4  0  0  0  0
  5 10  4  0  0  0  0
  6  7  4  0  0  0  0
  7  8  4  0  0  0  0
  7 11  1  0  0  0  0
  8  9  4  0  0  0  0
  9 10  4  0  0  0  0
 11 12  1  0  0  0  0
 12 13  1  0  0  0  0
 12 14  1  0  0  0  0
M  END
>  <Name_Molregno>
Norfenfluramine

>  <5-HT1A>
5.77

>  <5-HT1B>
5.57

>  <5-HT1D>
5.88

>  <5-HT1E>
5

>  <5-HT3>
5

>  <5-HT5>
5

>  <5-HT6>
5

>  <5-HT7>
6.44

>  <Alpha-1A>
5.11

>  <Alpha-1B>
5

>  <Alpha-2A>
5.42

>  <Alpha-2B>
5.75

>  <Alpha-2C>
6.08

>  <Beta-1>
5

>  <Beta-2>
5

>  <DOPAMINE D1>
5

>  <DOPAMINE D2>
5

>  <DOPAMINE D4>
5

>  <DOPAMINE D5>
5

>  <Dopamine transporter>
5

>  <HISTAMINE H1>
5

>  <HISTAMINE H2>
5

>  <Muscarinic acetylcholine receptor M1>
5.42

>  <Muscarinic acetylcholine receptor M2>
5.24

>  <Muscarinic acetylcholine receptor M3>
6.04

>  <Muscarinic acetylcholine receptor M4>
5.31

>  <Muscarinic acetylcholine receptor M5>
5.78

>  <Norepinephrine transporter>
5

>  <Serotonin transporter>
5

$$$$
NORTRYPTYLINE
  Marvin  02231216192D 0   1.00000     0.00000     0

 20 22  0  0  0  0  0  0  0  0999 V2000
    0.9332    1.7261    0.0000 N   0  0  0  0  0  0  0  0  0
    1.6477    1.3136    0.0000 C   0  0  0  0  0  0  0  0  0
    2.3622    1.7261    0.0000 C   0  0  0  0  0  0  0  0  0
    3.0767    1.3136    0.0000 C   0  0  0  0  0  0  0  0  0
    3.0767    0.4886    0.0000 C   0  0  0  0  0  0  0  0  0
    3.8200    0.1307    0.0000 C   0  0  0  0  0  0  0  0  0
    4.0035   -0.6736    0.0000 C   0  0  0  0  0  0  0  0  0
    3.4892   -1.3186    0.0000 C   0  0  0  0  0  0  0  0  0
    2.6642   -1.3186    0.0000 C   0  0  0  0  0  0  0  0  0
    2.1498   -0.6736    0.0000 C   0  0  0  0  0  0  0  0  0
    2.3334    0.1307    0.0000 C   0  0  0  0  0  0  0  0  0
    1.7286    0.6918    0.0000 C   0  0  0  0  0  0  0  0  0
    0.9402    0.4487    0.0000 C   0  0  0  0  0  0  0  0  0
    0.7567   -0.3557    0.0000 C   0  0  0  0  0  0  0  0  0
    1.3614   -0.9168    0.0000 C   0  0  0  0  0  0  0  0  0
    4.7919   -0.9168    0.0000 C   0  0  0  0  0  0  0  0  0
    5.3966   -0.3557    0.0000 C   0  0  0  0  0  0  0  0  0
    5.2131    0.4487    0.0000 C   0  0  0  0  0  0  0  0  0
    4.4247    0.6918    0.0000 C   0  0  0  0  0  0  0  0  0
    0.2188    1.3136    0.0000 C   0  0  0  0  0  0  0  0  0
  1  2  1  0  0  0  0
  1 20  1  0  0  0  0
  2  3  1  0  0  0  0
  3  4  1  0  0  0  0
  4  5  2  0  0  0  0
  5  6  1  0  0  0  0
  5 11  1  0  0  0  0
  6  7  4  0  0  0  0
  6 19  4  0  0  0  0
  7  8  1  0  0  0  0
  7 16  4  0  0  0  0
  8  9  1  0  0  0  0
  9 10  1  0  0  0  0
 10 11  4  0  0  0  0
 10 15  4  0  0  0  0
 11 12  4  0  0  0  0
 12 13  4  0  0  0  0
 13 14  4  0  0  0  0
 14 15  4  0  0  0  0
 16 17  4  0  0  0  0
 17 18  4  0  0  0  0
 18 19  4  0  0  0  0
M  END
>  <Name_Molregno>
NORTRYPTYLINE

>  <5-HT1A>
6.53

>  <DOPAMINE D2>
5.59

>  <Dopamine transporter>
5.72

>  <HISTAMINE H1>
8.03

>  <Muscarinic acetylcholine receptor M1>
7.4

>  <Muscarinic acetylcholine receptor M2>
6.96

>  <Muscarinic acetylcholine receptor M3>
7.3

>  <Muscarinic acetylcholine receptor M4>
7.08

>  <Muscarinic acetylcholine receptor M5>
7.01

>  <Norepinephrine transporter>
8.34

>  <Serotonin transporter>
7.27

$$$$
OLANZAPINE
  Marvin  02231216192D 0   1.00000     0.00000     0

 22 25  0  0  0  0  0  0  0  0999 V2000
   -1.5954    3.4952    0.0000 S   0  0  0  0  0  0  0  0  0
   -0.8919    3.0642    0.0000 C   0  0  0  0  0  0  0  0  0
   -0.1447    3.4138    0.0000 N   0  0  0  0  0  0  0  0  0
    0.5946    3.0476    0.0000 C   0  0  0  0  0  0  0  0  0
    0.7691    2.2413    0.0000 C   0  0  0  0  0  0  0  0  0
    0.2476    1.6020    0.0000 N   0  0  0  0  0  0  0  0  0
   -0.5774    1.6113    0.0000 C   0  0  0  0  0  0  0  0  0
   -0.9436    0.8720    0.0000 N   0  0  0  0  0  0  0  0  0
   -0.4865    0.1852    0.0000 C   0  0  0  0  0  0  0  0  0
   -0.8527   -0.5540    0.0000 C   0  0  0  0  0  0  0  0  0
   -1.6761   -0.6065    0.0000 N   0  0  0  0  0  0  0  0  0
   -2.1332    0.0803    0.0000 C   0  0  0  0  0  0  0  0  0
   -1.7669    0.8196    0.0000 C   0  0  0  0  0  0  0  0  0
   -2.0423   -1.3458    0.0000 C   0  0  0  0  0  0  0  0  0
   -1.0845    2.2620    0.0000 C   0  0  0  0  0  0  0  0  0
   -1.9069    2.1972    0.0000 C   0  0  0  0  0  0  0  0  0
   -2.2227    2.9594    0.0000 C   0  0  0  0  0  0  0  0  0
   -3.0249    3.1520    0.0000 C   0  0  0  0  0  0  0  0  0
    1.5547    1.9893    0.0000 C   0  0  0  0  0  0  0  0  0
    2.1657    2.5436    0.0000 C   0  0  0  0  0  0  0  0  0
    1.9912    3.3499    0.0000 C   0  0  0  0  0  0  0  0  0
    1.2056    3.6019    0.0000 C   0  0  0  0  0  0  0  0  0
  1  2  1  0  0  0  0
  1 17  1  0  0  0  0
  2  3  2  0  0  0  0
  2 15  1  0  0  0  0
  3  4  1  0  0  0  0
  4  5  4  0  0  0  0
  4 22  4  0  0  0  0
  5  6  1  0  0  0  0
  5 19  4  0  0  0  0
  6  7  1  0  0  0  0
  7  8  1  0  0  0  0
  7 15  2  0  0  0  0
  8  9  1  0  0  0  0
  8 13  1  0  0  0  0
  9 10  1  0  0  0  0
 10 11  1  0  0  0  0
 11 12  1  0  0  0  0
 11 14  1  0  0  0  0
 12 13  1  0  0  0  0
 15 16  1  0  0  0  0
 16 17  2  0  0  0  0
 17 18  1  0  0  0  0
 19 20  4  0  0  0  0
 20 21  4  0  0  0  0
 21 22  4  0  0  0  0
M  END
>  <Name_Molregno>
OLANZAPINE

>  <5-HT1A>
5.77

>  <5-HT1B>
6.23

>  <5-HT1D>
6.3

>  <5-HT1E>
5.66

>  <5-HT2A>
8.46

>  <5-HT2C>
7.86

>  <5-HT3>
6.69

>  <5-HT5>
5.92

>  <5-HT6>
7.97

>  <5-HT7>
6.73

>  <Alpha-1A>
6.95

>  <Alpha-1B>
6.58

>  <Alpha-2A>
6.51

>  <Alpha-2B>
6.97

>  <Alpha-2C>
7.21

>  <Beta-1>
5.15

>  <Beta-2>
5.15

>  <DOPAMINE D1>
7.3

>  <DOPAMINE D2>
7.67

>  <DOPAMINE D3>
7.53

>  <DOPAMINE D4>
7.73

>  <DOPAMINE D5>
7.09

>  <Dopamine transporter>
5

>  <HISTAMINE H1>
8.96

>  <HISTAMINE H2>
7.36

>  <HISTAMINE H4>
5

>  <Muscarinic acetylcholine receptor M1>
7.99

>  <Muscarinic acetylcholine receptor M2>
6.93

>  <Muscarinic acetylcholine receptor M3>
7.33

>  <Muscarinic acetylcholine receptor M4>
7.35

>  <Muscarinic acetylcholine receptor M5>
7.78

>  <Norepinephrine transporter>
5

>  <Serotonin transporter>
5.48

$$$$
OLANZAPINE-2
  Marvin  02231216192D 0   1.00000     0.00000     0

 22 25  0  0  0  0  0  0  0  0999 V2000
   -1.5954    3.4952    0.0000 S   0  0  0  0  0  0  0  0  0
   -0.8919    3.0642    0.0000 C   0  0  0  0  0  0  0  0  0
   -0.1447    3.4138    0.0000 N   0  0  0  0  0  0  0  0  0
    0.5946    3.0476    0.0000 C   0  0  0  0  0  0  0  0  0
    0.7691    2.2413    0.0000 C   0  0  0  0  0  0  0  0  0
    0.2476    1.6020    0.0000 N   0  0  0  0  0  0  0  0  0
   -0.5774    1.6113    0.0000 C   0  0  0  0  0  0  0  0  0
   -0.9436    0.8720    0.0000 N   0  0  0  0  0  0  0  0  0
   -0.4865    0.1852    0.0000 C   0  0  0  0  0  0  0  0  0
   -0.8527   -0.5540    0.0000 C   0  0  0  0  0  0  0  0  0
   -1.6761   -0.6065    0.0000 N   0  0  0  0  0  0  0  0  0
   -2.1332    0.0803    0.0000 C   0  0  0  0  0  0  0  0  0
   -1.7669    0.8196    0.0000 C   0  0  0  0  0  0  0  0  0
   -2.0423   -1.3458    0.0000 C   0  0  0  0  0  0  0  0  0
   -1.0845    2.2620    0.0000 C   0  0  0  0  0  0  0  0  0
   -1.9069    2.1972    0.0000 C   0  0  0  0  0  0  0  0  0
   -2.2227    2.9594    0.0000 C   0  0  0  0  0  0  0  0  0
   -3.0249    3.1520    0.0000 C   0  0  0  0  0  0  0  0  0
    1.5547    1.9893    0.0000 C   0  0  0  0  0  0  0  0  0
    2.1657    2.5436    0.0000 C   0  0  0  0  0  0  0  0  0
    1.9912    3.3499    0.0000 C   0  0  0  0  0  0  0  0  0
    1.2056    3.6019    0.0000 C   0  0  0  0  0  0  0  0  0
  1  2  4  0  0  0  0
  1 17  4  0  0  0  0
  2  3  1  0  0  0  0
  2 15  4  0  0  0  0
  3  4  1  0  0  0  0
  4  5  4  0  0  0  0
  4 22  4  0  0  0  0
  5  6  1  0  0  0  0
  5 19  4  0  0  0  0
  6  7  2  0  0  0  0
  7  8  1  0  0  0  0
  7 15  1  0  0  0  0
  8  9  1  0  0  0  0
  8 13  1  0  0  0  0
  9 10  1  0  0  0  0
 10 11  1  0  0  0  0
 11 12  1  0  0  0  0
 11 14  1  0  0  0  0
 12 13  1  0  0  0  0
 15 16  4  0  0  0  0
 16 17  4  0  0  0  0
 17 18  1  0  0  0  0
 19 20  4  0  0  0  0
 20 21  4  0  0  0  0
 21 22  4  0  0  0  0
M  END
>  <Name_Molregno>
OLANZAPINE-2

>  <5-HT1A>
5.68

>  <5-HT2A>
8.66

>  <5-HT2C>
8.05

>  <5-HT3>
6.7

>  <5-HT6>
7.8

>  <5-HT7>
6.77

>  <Alpha-2A>
6.72

>  <Alpha-2C>
7.09

>  <DOPAMINE D1>
7.28

>  <DOPAMINE D2>
7.63

>  <DOPAMINE D3>
7.47

>  <DOPAMINE D4>
7.3

>  <HISTAMINE H1>
8.74

>  <Muscarinic acetylcholine receptor M1>
8.16

>  <Muscarinic acetylcholine receptor M4>
7.9

>  <Serotonin transporter>
4.82

$$$$
ORG-5222
  Marvin  02231216192D 0   1.00000     0.00000     0

 20 23  0  0  1  0  0  0  0  0999 V2000
   -0.0754   -0.1702    0.0000 Cl  0  0  0  0  0  0  0  0  0
    0.7129   -0.4133    0.0000 C   0  0  0  0  0  0  0  0  0
    1.3177    0.1478    0.0000 C   0  0  0  0  0  0  0  0  0
    2.1060   -0.0954    0.0000 C   0  0  0  0  0  0  0  0  0
    2.6204    0.5496    0.0000 C   0  0  0  0  0  0  0  0  0
    3.4454    0.5496    0.0000 C   0  0  0  0  0  0  0  0  0
    3.9598   -0.0954    0.0000 C   0  0  0  0  0  0  0  0  0
    3.7762   -0.8997    0.0000 C   0  0  0  0  0  0  0  0  0
    3.0329   -1.2576    0.0000 O   0  0  0  0  0  0  0  0  0
    2.2896   -0.8997    0.0000 C   0  0  0  0  0  0  0  0  0
    1.6849   -1.4608    0.0000 C   0  0  0  0  0  0  0  0  0
    0.8965   -1.2176    0.0000 C   0  0  0  0  0  0  0  0  0
    4.3810   -1.4608    0.0000 C   0  0  0  0  0  0  0  0  0
    5.1693   -1.2176    0.0000 C   0  0  0  0  0  0  0  0  0
    5.3529   -0.4133    0.0000 C   0  0  0  0  0  0  0  0  0
    4.7482    0.1478    0.0000 C   0  0  0  0  0  0  0  0  0
    3.7004    1.3343    0.0000 C   0  0  0  0  0  0  0  0  0
    3.0329    1.8192    0.0000 N   0  0  0  0  0  0  0  0  0
    2.3655    1.3343    0.0000 C   0  0  0  0  0  0  0  0  0
    3.0329    2.6442    0.0000 C   0  0  0  0  0  0  0  0  0
  1  2  1  0  0  0  0
  2  3  4  0  0  0  0
  2 12  4  0  0  0  0
  3  4  4  0  0  0  0
  4  5  1  0  0  0  0
  4 10  4  0  0  0  0
  5  6  1  0  0  0  0
  5 19  1  0  0  0  0
  6  7  1  0  0  0  0
  6 17  1  0  0  0  0
  7  8  4  0  0  0  0
  7 16  4  0  0  0  0
  8  9  1  0  0  0  0
  8 13  4  0  0  0  0
  9 10  1  0  0  0  0
 10 11  4  0  0  0  0
 11 12  4  0  0  0  0
 13 14  4  0  0  0  0
 14 15  4  0  0  0  0
 15 16  4  0  0  0  0
 17 18  1  0  0  0  0
 18 19  1  0  0  0  0
 18 20  1  0  0  0  0
M  END
>  <Name_Molregno>
ORG-5222

>  <5-HT1A>
7.7

>  <5-HT1B>
8.34

>  <5-HT1D>
8.07

>  <5-HT1E>
7.69

>  <5-HT2A>
9.41

>  <5-HT2C>
9.63

>  <5-HT3>
6.35

>  <5-HT5>
8.4

>  <5-HT6>
8.85

>  <5-HT7>
9.05

>  <Alpha-1A>
8.36

>  <Alpha-1B>
8.41

>  <Alpha-2A>
8.08

>  <Alpha-2B>
8.64

>  <Alpha-2C>
7.82

>  <Beta-1>
5.3

>  <Beta-2>
5.3

>  <DOPAMINE D1>
8.54

>  <DOPAMINE D2>
8.72

>  <DOPAMINE D3>
8.74

>  <DOPAMINE D4>
8.58

>  <DOPAMINE D5>
7.64

>  <Dopamine transporter>
5.5

>  <HISTAMINE H1>
8.91

>  <HISTAMINE H2>
8.64

>  <HISTAMINE H4>
5

>  <Muscarinic acetylcholine receptor M1>
7.61

>  <Muscarinic acetylcholine receptor M2>
7.1

>  <Muscarinic acetylcholine receptor M3>
7.41

>  <Muscarinic acetylcholine receptor M4>
5

>  <Muscarinic acetylcholine receptor M5>
8.02

>  <Norepinephrine transporter>
5

>  <Serotonin transporter>
5.5

$$$$
PARECOXIB
  Marvin  02231216192D 0   1.00000     0.00000     0

 26 28  0  0  0  0  0  0  0  0999 V2000
    3.2898   -1.2399    0.0000 S   0  0  0  0  0  0  0  0  0
    3.7023   -0.5254    0.0000 O   0  0  0  0  0  0  0  0  0
    2.8773   -1.9544    0.0000 O   0  0  0  0  0  0  0  0  0
    4.0042   -1.6524    0.0000 N   0  0  0  0  0  0  0  0  0
    4.7187   -1.2399    0.0000 C   0  0  0  0  0  0  0  0  0
    4.7187   -0.4149    0.0000 O   0  0  0  0  0  0  0  0  0
    5.4332   -1.6524    0.0000 C   0  0  0  0  0  0  0  0  0
    6.1476   -1.2399    0.0000 C   0  0  0  0  0  0  0  0  0
    2.5753   -0.8274    0.0000 C   0  0  0  0  0  0  0  0  0
    1.8608   -1.2399    0.0000 C   0  0  0  0  0  0  0  0  0
    1.1463   -0.8274    0.0000 C   0  0  0  0  0  0  0  0  0
    1.1463   -0.0024    0.0000 C   0  0  0  0  0  0  0  0  0
    1.8608    0.4101    0.0000 C   0  0  0  0  0  0  0  0  0
    2.5753   -0.0024    0.0000 C   0  0  0  0  0  0  0  0  0
    0.4319    0.4101    0.0000 C   0  0  0  0  0  0  0  0  0
   -0.3218    0.0745    0.0000 C   0  0  0  0  0  0  0  0  0
   -0.8738    0.6876    0.0000 N   0  0  0  0  0  0  0  0  0
   -0.4613    1.4021    0.0000 O   0  0  0  0  0  0  0  0  0
    0.3456    1.2306    0.0000 C   0  0  0  0  0  0  0  0  0
    0.9587    1.7826    0.0000 C   0  0  0  0  0  0  0  0  0
   -0.4933   -0.7324    0.0000 C   0  0  0  0  0  0  0  0  0
    0.1198   -1.2845    0.0000 C   0  0  0  0  0  0  0  0  0
   -0.0518   -2.0914    0.0000 C   0  0  0  0  0  0  0  0  0
   -0.8364   -2.3464    0.0000 C   0  0  0  0  0  0  0  0  0
   -1.4495   -1.7943    0.0000 C   0  0  0  0  0  0  0  0  0
   -1.2779   -0.9874    0.0000 C   0  0  0  0  0  0  0  0  0
  1  2  2  0  0  0  0
  1  3  2  0  0  0  0
  1  4  1  0  0  0  0
  1  9  1  0  0  0  0
  4  5  1  0  0  0  0
  5  6  2  0  0  0  0
  5  7  1  0  0  0  0
  7  8  1  0  0  0  0
  9 10  4  0  0  0  0
  9 14  4  0  0  0  0
 10 11  4  0  0  0  0
 11 12  4  0  0  0  0
 12 13  4  0  0  0  0
 12 15  1  0  0  0  0
 13 14  4  0  0  0  0
 15 16  4  0  0  0  0
 15 19  4  0  0  0  0
 16 17  4  0  0  0  0
 16 21  1  0  0  0  0
 17 18  4  0  0  0  0
 18 19  4  0  0  0  0
 19 20  1  0  0  0  0
 21 22  4  0  0  0  0
 21 26  4  0  0  0  0
 22 23  4  0  0  0  0
 23 24  4  0  0  0  0
 24 25  4  0  0  0  0
 25 26  4  0  0  0  0
M  END
>  <Name_Molregno>
PARECOXIB

>  <5-HT1A>
5

>  <5-HT1B>
5

>  <5-HT1D>
5

>  <5-HT1E>
5

>  <5-HT2A>
5

>  <5-HT3>
5

>  <5-HT6>
5

>  <5-HT7>
5

>  <Alpha-1A>
5

>  <Alpha-1B>
5

>  <Alpha-2A>
5

>  <Alpha-2B>
5

>  <Alpha-2C>
5

>  <DOPAMINE D1>
5

>  <DOPAMINE D2>
5

>  <DOPAMINE D4>
5

>  <DOPAMINE D5>
5

>  <Dopamine transporter>
5

>  <HISTAMINE H1>
5

>  <HISTAMINE H2>
5

>  <HISTAMINE H4>
5

>  <Muscarinic acetylcholine receptor M2>
5

>  <Muscarinic acetylcholine receptor M5>
5

>  <Norepinephrine transporter>
5

>  <Serotonin transporter>
5

$$$$
PAROXETINE
  Marvin  02231216192D 0   1.00000     0.00000     0

 24 27  0  0  1  0  0  0  0  0999 V2000
   -1.1156    1.2820    0.0000 F   0  0  0  0  0  0  0  0  0
   -1.1156    0.4570    0.0000 C   0  0  0  0  0  0  0  0  0
   -0.4011    0.0445    0.0000 C   0  0  0  0  0  0  0  0  0
   -0.4011   -0.7805    0.0000 C   0  0  0  0  0  0  0  0  0
   -1.1156   -1.1930    0.0000 C   0  0  0  0  0  0  0  0  0
   -1.8301   -0.7805    0.0000 C   0  0  0  0  0  0  0  0  0
   -1.8301    0.0445    0.0000 C   0  0  0  0  0  0  0  0  0
   -1.1156   -2.0180    0.0000 C   0  0  0  0  0  0  0  0  0
   -0.4011   -2.4305    0.0000 C   0  0  0  0  0  0  0  0  0
   -0.4011   -3.2555    0.0000 C   0  0  0  0  0  0  0  0  0
   -1.1156   -3.6680    0.0000 N   0  0  0  0  0  0  0  0  0
   -1.8301   -3.2555    0.0000 C   0  0  0  0  0  0  0  0  0
   -1.8301   -2.4305    0.0000 C   0  0  0  0  0  0  0  0  0
   -2.5445   -2.0180    0.0000 C   0  0  0  0  0  0  0  0  0
   -3.2590   -2.4305    0.0000 O   0  0  0  0  0  0  0  0  0
   -3.9735   -2.0180    0.0000 C   0  0  0  0  0  0  0  0  0
   -4.6880   -2.4305    0.0000 C   0  0  0  0  0  0  0  0  0
   -5.4024   -2.0180    0.0000 C   0  0  0  0  0  0  0  0  0
   -6.1870   -2.2729    0.0000 O   0  0  0  0  0  0  0  0  0
   -6.6720   -1.6055    0.0000 C   0  0  0  0  0  0  0  0  0
   -6.1870   -0.9380    0.0000 O   0  0  0  0  0  0  0  0  0
   -5.4024   -1.1930    0.0000 C   0  0  0  0  0  0  0  0  0
   -4.6880   -0.7805    0.0000 C   0  0  0  0  0  0  0  0  0
   -3.9735   -1.1930    0.0000 C   0  0  0  0  0  0  0  0  0
  1  2  1  0  0  0  0
  2  3  4  0  0  0  0
  2  7  4  0  0  0  0
  3  4  4  0  0  0  0
  4  5  4  0  0  0  0
  5  6  4  0  0  0  0
  5  8  1  0  0  0  0
  6  7  4  0  0  0  0
  8  9  1  0  0  0  0
  8 13  1  0  0  0  0
  9 10  1  0  0  0  0
 10 11  1  0  0  0  0
 11 12  1  0  0  0  0
 12 13  1  0  0  0  0
 13 14  1  0  0  0  0
 14 15  1  0  0  0  0
 15 16  1  0  0  0  0
 16 17  4  0  0  0  0
 16 24  4  0  0  0  0
 17 18  4  0  0  0  0
 18 19  1  0  0  0  0
 18 22  4  0  0  0  0
 19 20  1  0  0  0  0
 20 21  1  0  0  0  0
 21 22  1  0  0  0  0
 22 23  4  0  0  0  0
 23 24  4  0  0  0  0
M  END
>  <Name_Molregno>
PAROXETINE

>  <5-HT1A>
5

>  <5-HT2A>
5

>  <5-HT2C>
5

>  <DOPAMINE D2>
5

>  <Dopamine transporter>
6.33

>  <HISTAMINE H1>
5

>  <Muscarinic acetylcholine receptor M1>
6.83

>  <Muscarinic acetylcholine receptor M2>
6.47

>  <Muscarinic acetylcholine receptor M3>
7.1

>  <Muscarinic acetylcholine receptor M4>
6.49

>  <Muscarinic acetylcholine receptor M5>
6.19

>  <Norepinephrine transporter>
7.03

>  <Serotonin transporter>
9.7

$$$$
PBR28
  Marvin  02231216192D 0   1.00000     0.00000     0

 26 28  0  0  0  0  0  0  0  0999 V2000
    0.4191    0.0796    0.0000 O   0  0  0  0  0  0  0  0  0
    0.4191   -0.7454    0.0000 C   0  0  0  0  0  0  0  0  0
    1.1336   -1.1579    0.0000 C   0  0  0  0  0  0  0  0  0
    1.1336   -1.9829    0.0000 C   0  0  0  0  0  0  0  0  0
    0.4191   -2.3954    0.0000 C   0  0  0  0  0  0  0  0  0
   -0.2953   -1.9829    0.0000 C   0  0  0  0  0  0  0  0  0
   -0.2953   -1.1579    0.0000 C   0  0  0  0  0  0  0  0  0
   -1.0098   -0.7454    0.0000 N   0  0  0  0  0  0  0  0  0
   -1.7243   -1.1579    0.0000 C   0  0  0  0  0  0  0  0  0
   -2.4387   -0.7454    0.0000 C   0  0  0  0  0  0  0  0  0
   -2.4387    0.0796    0.0000 C   0  0  0  0  0  0  0  0  0
   -3.1532    0.4921    0.0000 C   0  0  0  0  0  0  0  0  0
   -3.8677    0.0796    0.0000 C   0  0  0  0  0  0  0  0  0
   -3.8677   -0.7454    0.0000 C   0  0  0  0  0  0  0  0  0
   -3.1532   -1.1579    0.0000 C   0  0  0  0  0  0  0  0  0
   -3.1532   -1.9829    0.0000 O   0  0  0  0  0  0  0  0  0
   -3.8677   -2.3954    0.0000 C   0  0  0  0  0  0  0  0  0
   -1.0098    0.0796    0.0000 C   0  0  0  0  0  0  0  0  0
   -1.7243    0.4921    0.0000 O   0  0  0  0  0  0  0  0  0
   -0.2953    0.4921    0.0000 C   0  0  0  0  0  0  0  0  0
    1.1336    0.4921    0.0000 C   0  0  0  0  0  0  0  0  0
    1.1336    1.3171    0.0000 C   0  0  0  0  0  0  0  0  0
    1.8481    1.7296    0.0000 C   0  0  0  0  0  0  0  0  0
    2.5626    1.3171    0.0000 C   0  0  0  0  0  0  0  0  0
    2.5626    0.4921    0.0000 C   0  0  0  0  0  0  0  0  0
    1.8481    0.0796    0.0000 C   0  0  0  0  0  0  0  0  0
  1  2  1  0  0  0  0
  1 21  1  0  0  0  0
  2  3  4  0  0  0  0
  2  7  4  0  0  0  0
  3  4  4  0  0  0  0
  4  5  4  0  0  0  0
  5  6  4  0  0  0  0
  6  7  4  0  0  0  0
  7  8  1  0  0  0  0
  8  9  1  0  0  0  0
  8 18  1  0  0  0  0
  9 10  1  0  0  0  0
 10 11  4  0  0  0  0
 10 15  4  0  0  0  0
 11 12  4  0  0  0  0
 12 13  4  0  0  0  0
 13 14  4  0  0  0  0
 14 15  4  0  0  0  0
 15 16  1  0  0  0  0
 16 17  1  0  0  0  0
 18 19  2  0  0  0  0
 18 20  1  0  0  0  0
 21 22  4  0  0  0  0
 21 26  4  0  0  0  0
 22 23  4  0  0  0  0
 23 24  4  0  0  0  0
 24 25  4  0  0  0  0
 25 26  4  0  0  0  0
M  END
>  <Name_Molregno>
PBR28

>  <5-HT1A>
5

>  <5-HT1B>
5

>  <5-HT1D>
5

>  <5-HT1E>
5

>  <5-HT2A>
5

>  <5-HT3>
5

>  <5-HT5>
5

>  <5-HT6>
5

>  <5-HT7>
5

>  <Alpha-1A>
5

>  <Alpha-1B>
5

>  <Alpha-2A>
5

>  <Alpha-2B>
5

>  <Alpha-2C>
5

>  <Beta-1>
5

>  <Beta-2>
5

>  <DOPAMINE D1>
5

>  <DOPAMINE D2>
5

>  <DOPAMINE D4>
5

>  <Dopamine transporter>
5

>  <HISTAMINE H1>
5

>  <HISTAMINE H2>
5

>  <HISTAMINE H4>
5

>  <Muscarinic acetylcholine receptor M2>
5

>  <Muscarinic acetylcholine receptor M5>
5

>  <Norepinephrine transporter>
5

>  <Serotonin transporter>
5

$$$$
Pentobarbital
  Marvin  02231216192D 0   1.00000     0.00000     0

 16 16  0  0  1  0  0  0  0  0999 V2000
    2.0128   -1.3595    0.0000 O   0  0  0  0  0  0  0  0  0
    1.2983   -1.7720    0.0000 C   0  0  0  0  0  0  0  0  0
    1.2983   -2.5970    0.0000 N   0  0  0  0  0  0  0  0  0
    0.5839   -3.0095    0.0000 C   0  0  0  0  0  0  0  0  0
    0.5839   -3.8345    0.0000 O   0  0  0  0  0  0  0  0  0
   -0.1306   -2.5970    0.0000 N   0  0  0  0  0  0  0  0  0
   -0.1306   -1.7720    0.0000 C   0  0  0  0  0  0  0  0  0
   -0.8451   -1.3595    0.0000 O   0  0  0  0  0  0  0  0  0
    0.5839   -1.3595    0.0000 C   0  0  0  0  0  0  0  0  0
    0.9712   -0.6311    0.0000 C   0  0  0  0  0  0  0  0  0
    0.5340    0.0685    0.0000 C   0  0  0  0  0  0  0  0  0
    0.9213    0.7970    0.0000 C   0  0  0  0  0  0  0  0  0
    0.4841    1.4966    0.0000 C   0  0  0  0  0  0  0  0  0
    1.7957   -0.6023    0.0000 C   0  0  0  0  0  0  0  0  0
    0.1966   -0.6311    0.0000 C   0  0  0  0  0  0  0  0  0
   -0.6279   -0.6023    0.0000 C   0  0  0  0  0  0  0  0  0
  1  2  2  0  0  0  0
  2  3  1  0  0  0  0
  2  9  1  0  0  0  0
  3  4  1  0  0  0  0
  4  5  2  0  0  0  0
  4  6  1  0  0  0  0
  6  7  1  0  0  0  0
  7  8  2  0  0  0  0
  7  9  1  0  0  0  0
  9 10  1  0  0  0  0
  9 15  1  0  0  0  0
 10 11  1  0  0  0  0
 10 14  1  0  0  0  0
 11 12  1  0  0  0  0
 12 13  1  0  0  0  0
 15 16  1  0  0  0  0
M  END
>  <Name_Molregno>
Pentobarbital

>  <HISTAMINE H1>
5

$$$$
PERPHENAZINE
  Marvin  02231216192D 0   1.00000     0.00000     0

 27 30  0  0  0  0  0  0  0  0999 V2000
   -5.2850   -0.3290    0.0000 Cl  0  0  0  0  0  0  0  0  0
   -4.5705    0.0835    0.0000 C   0  0  0  0  0  0  0  0  0
   -3.8561   -0.3290    0.0000 C   0  0  0  0  0  0  0  0  0
   -3.1416    0.0835    0.0000 C   0  0  0  0  0  0  0  0  0
   -2.4271   -0.3290    0.0000 N   0  0  0  0  0  0  0  0  0
   -1.7126    0.0835    0.0000 C   0  0  0  0  0  0  0  0  0
   -1.7126    0.9085    0.0000 C   0  0  0  0  0  0  0  0  0
   -2.4271    1.3210    0.0000 S   0  0  0  0  0  0  0  0  0
   -3.1416    0.9085    0.0000 C   0  0  0  0  0  0  0  0  0
   -3.8561    1.3210    0.0000 C   0  0  0  0  0  0  0  0  0
   -4.5705    0.9085    0.0000 C   0  0  0  0  0  0  0  0  0
   -0.9982    1.3210    0.0000 C   0  0  0  0  0  0  0  0  0
   -0.2837    0.9085    0.0000 C   0  0  0  0  0  0  0  0  0
   -0.2837    0.0835    0.0000 C   0  0  0  0  0  0  0  0  0
   -0.9982   -0.3290    0.0000 C   0  0  0  0  0  0  0  0  0
   -2.4271   -1.1540    0.0000 C   0  0  0  0  0  0  0  0  0
   -3.1416   -1.5665    0.0000 C   0  0  0  0  0  0  0  0  0
   -3.1416   -2.3915    0.0000 C   0  0  0  0  0  0  0  0  0
   -3.8561   -2.8040    0.0000 N   0  0  0  0  0  0  0  0  0
   -3.8561   -3.6290    0.0000 C   0  0  0  0  0  0  0  0  0
   -4.5705   -4.0415    0.0000 C   0  0  0  0  0  0  0  0  0
   -5.2850   -3.6290    0.0000 N   0  0  0  0  0  0  0  0  0
   -5.2850   -2.8040    0.0000 C   0  0  0  0  0  0  0  0  0
   -4.5705   -2.3915    0.0000 C   0  0  0  0  0  0  0  0  0
   -5.9995   -4.0415    0.0000 C   0  0  0  0  0  0  0  0  0
   -6.7139   -3.6290    0.0000 C   0  0  0  0  0  0  0  0  0
   -7.4284   -4.0415    0.0000 O   0  0  0  0  0  0  0  0  0
  1  2  1  0  0  0  0
  2  3  4  0  0  0  0
  2 11  4  0  0  0  0
  3  4  4  0  0  0  0
  4  5  1  0  0  0  0
  4  9  4  0  0  0  0
  5  6  1  0  0  0  0
  5 16  1  0  0  0  0
  6  7  4  0  0  0  0
  6 15  4  0  0  0  0
  7  8  1  0  0  0  0
  7 12  4  0  0  0  0
  8  9  1  0  0  0  0
  9 10  4  0  0  0  0
 10 11  4  0  0  0  0
 12 13  4  0  0  0  0
 13 14  4  0  0  0  0
 14 15  4  0  0  0  0
 16 17  1  0  0  0  0
 17 18  1  0  0  0  0
 18 19  1  0  0  0  0
 19 20  1  0  0  0  0
 19 24  1  0  0  0  0
 20 21  1  0  0  0  0
 21 22  1  0  0  0  0
 22 23  1  0  0  0  0
 22 25  1  0  0  0  0
 23 24  1  0  0  0  0
 25 26  1  0  0  0  0
 26 27  1  0  0  0  0
M  END
>  <Name_Molregno>
PERPHENAZINE

>  <5-HT1A>
6.38

>  <5-HT2A>
8.25

>  <5-HT2C>
6.88

>  <5-HT6>
7.77

>  <5-HT7>
7.64

>  <Alpha-1A>
8

>  <Alpha-2A>
6.09

>  <Alpha-2B>
6.98

>  <Alpha-2C>
7.07

>  <DOPAMINE D2>
9.26

>  <DOPAMINE D3>
9.52

>  <DOPAMINE D4>
7.59

>  <HISTAMINE H1>
8.09

>  <Muscarinic acetylcholine receptor M3>
5.73

$$$$
PHENTOLAMINE
  Marvin  02231216192D 0   1.00000     0.00000     0

 21 23  0  0  0  0  0  0  0  0999 V2000
    4.7921    2.7933    0.0000 O   0  0  0  0  0  0  0  0  0
    4.0777    2.3808    0.0000 C   0  0  0  0  0  0  0  0  0
    4.0777    1.5558    0.0000 C   0  0  0  0  0  0  0  0  0
    3.3632    1.1433    0.0000 C   0  0  0  0  0  0  0  0  0
    3.3632    0.3183    0.0000 N   0  0  0  0  0  0  0  0  0
    4.0777   -0.0942    0.0000 C   0  0  0  0  0  0  0  0  0
    4.0777   -0.9192    0.0000 C   0  0  0  0  0  0  0  0  0
    4.7451   -1.4042    0.0000 N   0  0  0  0  0  0  0  0  0
    4.4902   -2.1888    0.0000 C   0  0  0  0  0  0  0  0  0
    3.6652   -2.1888    0.0000 C   0  0  0  0  0  0  0  0  0
    3.4102   -1.4042    0.0000 N   0  0  0  0  0  0  0  0  0
    2.6487   -0.0942    0.0000 C   0  0  0  0  0  0  0  0  0
    2.6487   -0.9192    0.0000 C   0  0  0  0  0  0  0  0  0
    1.9343   -1.3317    0.0000 C   0  0  0  0  0  0  0  0  0
    1.2198   -0.9192    0.0000 C   0  0  0  0  0  0  0  0  0
    1.2198   -0.0942    0.0000 C   0  0  0  0  0  0  0  0  0
    1.9343    0.3183    0.0000 C   0  0  0  0  0  0  0  0  0
    0.5053   -1.3317    0.0000 C   0  0  0  0  0  0  0  0  0
    2.6487    1.5558    0.0000 C   0  0  0  0  0  0  0  0  0
    2.6487    2.3808    0.0000 C   0  0  0  0  0  0  0  0  0
    3.3632    2.7933    0.0000 C   0  0  0  0  0  0  0  0  0
  1  2  1  0  0  0  0
  2  3  4  0  0  0  0
  2 21  4  0  0  0  0
  3  4  4  0  0  0  0
  4  5  1  0  0  0  0
  4 19  4  0  0  0  0
  5  6  1  0  0  0  0
  5 12  1  0  0  0  0
  6  7  1  0  0  0  0
  7  8  1  0  0  0  0
  7 11  2  0  0  0  0
  8  9  1  0  0  0  0
  9 10  1  0  0  0  0
 10 11  1  0  0  0  0
 12 13  4  0  0  0  0
 12 17  4  0  0  0  0
 13 14  4  0  0  0  0
 14 15  4  0  0  0  0
 15 16  4  0  0  0  0
 15 18  1  0  0  0  0
 16 17  4  0  0  0  0
 19 20  4  0  0  0  0
 20 21  4  0  0  0  0
M  END
>  <Name_Molregno>
PHENTOLAMINE

>  <5-HT1A>
5.67

>  <5-HT2A>
5.61

>  <Alpha-1A>
8.39

>  <Alpha-1B>
7.32

>  <Alpha-2A>
8.07

>  <Alpha-2B>
7.82

>  <Alpha-2C>
7.59

>  <DOPAMINE D1>
5

>  <DOPAMINE D2>
5

>  <HISTAMINE H1>
5.4

$$$$
PIMOZIDE
  Marvin  02231216192D 0   1.00000     0.00000     0

 34 38  0  0  0  0  0  0  0  0999 V2000
    3.4878   -7.4849    0.0000 F   0  0  0  0  0  0  0  0  0
    3.7428   -6.7002    0.0000 C   0  0  0  0  0  0  0  0  0
    3.1908   -6.0871    0.0000 C   0  0  0  0  0  0  0  0  0
    3.4457   -5.3025    0.0000 C   0  0  0  0  0  0  0  0  0
    4.2527   -5.1310    0.0000 C   0  0  0  0  0  0  0  0  0
    4.8047   -5.7441    0.0000 C   0  0  0  0  0  0  0  0  0
    4.5498   -6.5287    0.0000 C   0  0  0  0  0  0  0  0  0
    4.5076   -4.3464    0.0000 C   0  0  0  0  0  0  0  0  0
    3.9556   -3.7333    0.0000 C   0  0  0  0  0  0  0  0  0
    4.2105   -2.9487    0.0000 C   0  0  0  0  0  0  0  0  0
    3.6585   -2.3356    0.0000 C   0  0  0  0  0  0  0  0  0
    3.9134   -1.5509    0.0000 N   0  0  0  0  0  0  0  0  0
    3.3614   -0.9378    0.0000 C   0  0  0  0  0  0  0  0  0
    3.6163   -0.1532    0.0000 C   0  0  0  0  0  0  0  0  0
    4.4233    0.0183    0.0000 C   0  0  0  0  0  0  0  0  0
    4.6782    0.8029    0.0000 N   0  0  0  0  0  0  0  0  0
    5.4629    1.0579    0.0000 C   0  0  0  0  0  0  0  0  0
    5.4629    1.8829    0.0000 C   0  0  0  0  0  0  0  0  0
    4.6782    2.1378    0.0000 N   0  0  0  0  0  0  0  0  0
    4.1933    1.4704    0.0000 C   0  0  0  0  0  0  0  0  0
    3.3683    1.4704    0.0000 O   0  0  0  0  0  0  0  0  0
    6.1773    2.2954    0.0000 C   0  0  0  0  0  0  0  0  0
    6.8918    1.8829    0.0000 C   0  0  0  0  0  0  0  0  0
    6.8918    1.0579    0.0000 C   0  0  0  0  0  0  0  0  0
    6.1773    0.6454    0.0000 C   0  0  0  0  0  0  0  0  0
    4.9753   -0.5948    0.0000 C   0  0  0  0  0  0  0  0  0
    4.7204   -1.3794    0.0000 C   0  0  0  0  0  0  0  0  0
    5.3146   -4.1748    0.0000 C   0  0  0  0  0  0  0  0  0
    5.5695   -3.3902    0.0000 C   0  0  0  0  0  0  0  0  0
    6.3765   -3.2187    0.0000 C   0  0  0  0  0  0  0  0  0
    6.9285   -3.8318    0.0000 C   0  0  0  0  0  0  0  0  0
    7.7355   -3.6603    0.0000 F   0  0  0  0  0  0  0  0  0
    6.6736   -4.6164    0.0000 C   0  0  0  0  0  0  0  0  0
    5.8666   -4.7879    0.0000 C   0  0  0  0  0  0  0  0  0
  1  2  1  0  0  0  0
  2  3  4  0  0  0  0
  2  7  4  0  0  0  0
  3  4  4  0  0  0  0
  4  5  4  0  0  0  0
  5  6  4  0  0  0  0
  5  8  1  0  0  0  0
  6  7  4  0  0  0  0
  8  9  1  0  0  0  0
  8 28  1  0  0  0  0
  9 10  1  0  0  0  0
 10 11  1  0  0  0  0
 11 12  1  0  0  0  0
 12 13  1  0  0  0  0
 12 27  1  0  0  0  0
 13 14  1  0  0  0  0
 14 15  1  0  0  0  0
 15 16  1  0  0  0  0
 15 26  1  0  0  0  0
 16 17  1  0  0  0  0
 16 20  1  0  0  0  0
 17 18  4  0  0  0  0
 17 25  4  0  0  0  0
 18 19  1  0  0  0  0
 18 22  4  0  0  0  0
 19 20  1  0  0  0  0
 20 21  2  0  0  0  0
 22 23  4  0  0  0  0
 23 24  4  0  0  0  0
 24 25  4  0  0  0  0
 26 27  1  0  0  0  0
 28 29  4  0  0  0  0
 28 34  4  0  0  0  0
 29 30  4  0  0  0  0
 30 31  4  0  0  0  0
 31 32  1  0  0  0  0
 31 33  4  0  0  0  0
 33 34  4  0  0  0  0
M  END
>  <Name_Molregno>
PIMOZIDE

>  <5-HT1A>
6.48

>  <5-HT1D>
5.51

>  <5-HT2A>
7.56

>  <5-HT2C>
5.92

>  <5-HT6>
7.15

>  <5-HT7>
9.3

>  <Alpha-1A>
6.7

>  <Alpha-2A>
5.8

>  <Alpha-2B>
6.09

>  <Alpha-2C>
6.42

>  <DOPAMINE D1>
5

>  <DOPAMINE D2>
8.86

>  <DOPAMINE D3>
9.05

>  <DOPAMINE D4>
8.74

>  <HISTAMINE H1>
6.88

>  <Muscarinic acetylcholine receptor M3>
5.71

$$$$
PIPAMPERONE
  Marvin  02231216192D 0   1.00000     0.00000     0

 27 29  0  0  0  0  0  0  0  0999 V2000
    0.0224    0.7508    0.0000 F   0  0  0  0  0  0  0  0  0
    0.7369    0.3383    0.0000 C   0  0  0  0  0  0  0  0  0
    1.4513    0.7508    0.0000 C   0  0  0  0  0  0  0  0  0
    2.1658    0.3383    0.0000 C   0  0  0  0  0  0  0  0  0
    2.1658   -0.4867    0.0000 C   0  0  0  0  0  0  0  0  0
    1.4513   -0.8992    0.0000 C   0  0  0  0  0  0  0  0  0
    0.7369   -0.4867    0.0000 C   0  0  0  0  0  0  0  0  0
    2.8803   -0.8992    0.0000 C   0  0  0  0  0  0  0  0  0
    2.8803   -1.7242    0.0000 O   0  0  0  0  0  0  0  0  0
    3.5947   -0.4867    0.0000 C   0  0  0  0  0  0  0  0  0
    4.3092   -0.8992    0.0000 C   0  0  0  0  0  0  0  0  0
    5.0237   -0.4867    0.0000 C   0  0  0  0  0  0  0  0  0
    5.7382   -0.8992    0.0000 N   0  0  0  0  0  0  0  0  0
    6.4526   -0.4867    0.0000 C   0  0  0  0  0  0  0  0  0
    7.1671   -0.8992    0.0000 C   0  0  0  0  0  0  0  0  0
    7.1671   -1.7242    0.0000 C   0  0  0  0  0  0  0  0  0
    7.9796   -1.5809    0.0000 N   0  0  0  0  0  0  0  0  0
    8.2617   -0.8057    0.0000 C   0  0  0  0  0  0  0  0  0
    9.0742   -0.6624    0.0000 C   0  0  0  0  0  0  0  0  0
    9.6045   -1.2944    0.0000 C   0  0  0  0  0  0  0  0  0
    9.3223   -2.0696    0.0000 C   0  0  0  0  0  0  0  0  0
    8.5099   -2.2129    0.0000 C   0  0  0  0  0  0  0  0  0
    6.4526   -2.1367    0.0000 C   0  0  0  0  0  0  0  0  0
    5.7382   -1.7242    0.0000 C   0  0  0  0  0  0  0  0  0
    7.4493   -2.4994    0.0000 C   0  0  0  0  0  0  0  0  0
    6.9190   -3.1314    0.0000 O   0  0  0  0  0  0  0  0  0
    8.2617   -2.6427    0.0000 N   0  0  0  0  0  0  0  0  0
  1  2  1  0  0  0  0
  2  3  4  0  0  0  0
  2  7  4  0  0  0  0
  3  4  4  0  0  0  0
  4  5  4  0  0  0  0
  5  6  4  0  0  0  0
  5  8  1  0  0  0  0
  6  7  4  0  0  0  0
  8  9  2  0  0  0  0
  8 10  1  0  0  0  0
 10 11  1  0  0  0  0
 11 12  1  0  0  0  0
 12 13  1  0  0  0  0
 13 14  1  0  0  0  0
 13 24  1  0  0  0  0
 14 15  1  0  0  0  0
 15 16  1  0  0  0  0
 16 17  1  0  0  0  0
 16 23  1  0  0  0  0
 16 25  1  0  0  0  0
 17 18  1  0  0  0  0
 17 22  1  0  0  0  0
 18 19  1  0  0  0  0
 19 20  1  0  0  0  0
 20 21  1  0  0  0  0
 21 22  1  0  0  0  0
 23 24  1  0  0  0  0
 25 26  2  0  0  0  0
 25 27  1  0  0  0  0
M  END
>  <Name_Molregno>
PIPAMPERONE

>  <5-HT1A>
5.56

>  <5-HT1B>
6.8

>  <5-HT1D>
6.19

>  <5-HT1E>
5.3

>  <5-HT2A>
8.21

>  <5-HT2C>
6.64

>  <Alpha-2A>
6.07

>  <Alpha-2B>
7.46

>  <Alpha-2C>
6.54

>  <Beta-1>
5.3

>  <Beta-2>
5.3

>  <DOPAMINE D2>
6.94

>  <DOPAMINE D3>
6.6

>  <DOPAMINE D4>
8.29

>  <HISTAMINE H1>
5.62

>  <Serotonin transporter>
6

$$$$
Piroxicam
  Marvin  02231216192D 0   1.00000     0.00000     0

 23 25  0  0  0  0  0  0  0  0999 V2000
    2.3267    1.3854    0.0000 S   0  0  0  0  0  0  0  0  0
    1.7964    2.0174    0.0000 O   0  0  0  0  0  0  0  0  0
    2.8570    2.0174    0.0000 O   0  0  0  0  0  0  0  0  0
    1.6123    0.9729    0.0000 N   0  0  0  0  0  0  0  0  0
    0.8978    1.3854    0.0000 C   0  0  0  0  0  0  0  0  0
    1.6123    0.1479    0.0000 C   0  0  0  0  0  0  0  0  0
    0.8978   -0.2646    0.0000 C   0  0  0  0  0  0  0  0  0
    0.1833    0.1479    0.0000 O   0  0  0  0  0  0  0  0  0
    0.8978   -1.0896    0.0000 N   0  0  0  0  0  0  0  0  0
    0.1833   -1.5021    0.0000 C   0  0  0  0  0  0  0  0  0
    0.1833   -2.3271    0.0000 N   0  0  0  0  0  0  0  0  0
   -0.5311   -2.7396    0.0000 C   0  0  0  0  0  0  0  0  0
   -1.2456   -2.3271    0.0000 C   0  0  0  0  0  0  0  0  0
   -1.2456   -1.5021    0.0000 C   0  0  0  0  0  0  0  0  0
   -0.5311   -1.0896    0.0000 C   0  0  0  0  0  0  0  0  0
    2.3267   -0.2646    0.0000 C   0  0  0  0  0  0  0  0  0
    2.3267   -1.0896    0.0000 O   0  0  0  0  0  0  0  0  0
    3.0412    0.1479    0.0000 C   0  0  0  0  0  0  0  0  0
    3.0412    0.9729    0.0000 C   0  0  0  0  0  0  0  0  0
    3.7557    1.3854    0.0000 C   0  0  0  0  0  0  0  0  0
    4.4702    0.9729    0.0000 C   0  0  0  0  0  0  0  0  0
    4.4702    0.1479    0.0000 C   0  0  0  0  0  0  0  0  0
    3.7557   -0.2646    0.0000 C   0  0  0  0  0  0  0  0  0
  1  2  2  0  0  0  0
  1  3  2  0  0  0  0
  1  4  1  0  0  0  0
  1 19  1  0  0  0  0
  4  5  1  0  0  0  0
  4  6  1  0  0  0  0
  6  7  2  0  0  0  0
  6 16  1  0  0  0  0
  7  8  1  0  0  0  0
  7  9  1  0  0  0  0
  9 10  1  0  0  0  0
 10 11  4  0  0  0  0
 10 15  4  0  0  0  0
 11 12  4  0  0  0  0
 12 13  4  0  0  0  0
 13 14  4  0  0  0  0
 14 15  4  0  0  0  0
 16 17  2  0  0  0  0
 16 18  1  0  0  0  0
 18 19  4  0  0  0  0
 18 23  4  0  0  0  0
 19 20  4  0  0  0  0
 20 21  4  0  0  0  0
 21 22  4  0  0  0  0
 22 23  4  0  0  0  0
M  END
>  <Name_Molregno>
Piroxicam

>  <5-HT1A>
5

>  <5-HT1B>
5

>  <5-HT1D>
5

>  <5-HT1E>
5

>  <5-HT2A>
5

>  <5-HT3>
5

>  <5-HT5>
5

>  <5-HT6>
5

>  <Alpha-1A>
5

>  <Alpha-1B>
5

>  <Alpha-2A>
5

>  <Alpha-2B>
5

>  <Alpha-2C>
5

>  <DOPAMINE D1>
5

>  <DOPAMINE D2>
5

>  <DOPAMINE D4>
5

>  <DOPAMINE D5>
5

>  <Dopamine transporter>
5

>  <HISTAMINE H1>
5

>  <HISTAMINE H2>
5

>  <Muscarinic acetylcholine receptor M2>
5

>  <Muscarinic acetylcholine receptor M5>
5

>  <Norepinephrine transporter>
5

>  <Serotonin transporter>
5

$$$$
PROCHLORPERAZINE
  Marvin  02231216192D 0   1.00000     0.00000     0

 25 28  0  0  0  0  0  0  0  0999 V2000
   -5.2156   -0.6691    0.0000 Cl  0  0  0  0  0  0  0  0  0
   -4.5011   -0.2566    0.0000 C   0  0  0  0  0  0  0  0  0
   -3.7866   -0.6691    0.0000 C   0  0  0  0  0  0  0  0  0
   -3.0722   -0.2566    0.0000 C   0  0  0  0  0  0  0  0  0
   -2.3577   -0.6691    0.0000 N   0  0  0  0  0  0  0  0  0
   -1.6432   -0.2566    0.0000 C   0  0  0  0  0  0  0  0  0
   -1.6432    0.5684    0.0000 C   0  0  0  0  0  0  0  0  0
   -2.3577    0.9809    0.0000 S   0  0  0  0  0  0  0  0  0
   -3.0722    0.5684    0.0000 C   0  0  0  0  0  0  0  0  0
   -3.7866    0.9809    0.0000 C   0  0  0  0  0  0  0  0  0
   -4.5011    0.5684    0.0000 C   0  0  0  0  0  0  0  0  0
   -0.9287    0.9809    0.0000 C   0  0  0  0  0  0  0  0  0
   -0.2143    0.5684    0.0000 C   0  0  0  0  0  0  0  0  0
   -0.2143   -0.2566    0.0000 C   0  0  0  0  0  0  0  0  0
   -0.9287   -0.6691    0.0000 C   0  0  0  0  0  0  0  0  0
   -2.3577   -1.4941    0.0000 C   0  0  0  0  0  0  0  0  0
   -3.0722   -1.9066    0.0000 C   0  0  0  0  0  0  0  0  0
   -3.0722   -2.7316    0.0000 C   0  0  0  0  0  0  0  0  0
   -3.7866   -3.1441    0.0000 N   0  0  0  0  0  0  0  0  0
   -3.7866   -3.9691    0.0000 C   0  0  0  0  0  0  0  0  0
   -4.5011   -4.3816    0.0000 C   0  0  0  0  0  0  0  0  0
   -5.2156   -3.9691    0.0000 N   0  0  0  0  0  0  0  0  0
   -5.2156   -3.1441    0.0000 C   0  0  0  0  0  0  0  0  0
   -4.5011   -2.7316    0.0000 C   0  0  0  0  0  0  0  0  0
   -5.9300   -4.3816    0.0000 C   0  0  0  0  0  0  0  0  0
  1  2  1  0  0  0  0
  2  3  4  0  0  0  0
  2 11  4  0  0  0  0
  3  4  4  0  0  0  0
  4  5  1  0  0  0  0
  4  9  4  0  0  0  0
  5  6  1  0  0  0  0
  5 16  1  0  0  0  0
  6  7  4  0  0  0  0
  6 15  4  0  0  0  0
  7  8  1  0  0  0  0
  7 12  4  0  0  0  0
  8  9  1  0  0  0  0
  9 10  4  0  0  0  0
 10 11  4  0  0  0  0
 12 13  4  0  0  0  0
 13 14  4  0  0  0  0
 14 15  4  0  0  0  0
 16 17  1  0  0  0  0
 17 18  1  0  0  0  0
 18 19  1  0  0  0  0
 19 20  1  0  0  0  0
 19 24  1  0  0  0  0
 20 21  1  0  0  0  0
 21 22  1  0  0  0  0
 22 23  1  0  0  0  0
 22 25  1  0  0  0  0
 23 24  1  0  0  0  0
M  END
>  <Name_Molregno>
PROCHLORPERAZINE

>  <5-HT1A>
5.23

>  <5-HT2A>
7.82

>  <5-HT2C>
6.91

>  <DOPAMINE D2>
8.76

>  <DOPAMINE D3>
8.61

>  <DOPAMINE D4>
7.3

>  <HISTAMINE H1>
7.72

$$$$
PROMAZINE
  Marvin  02231216192D 0   1.00000     0.00000     0

 20 22  0  0  0  0  0  0  0  0999 V2000
   -0.5198    0.6932    0.0000 S   0  0  0  0  0  0  0  0  0
    0.1947    0.2807    0.0000 C   0  0  0  0  0  0  0  0  0
    0.9091    0.6932    0.0000 C   0  0  0  0  0  0  0  0  0
    0.9091    1.5182    0.0000 N   0  0  0  0  0  0  0  0  0
    0.1947    1.9307    0.0000 C   0  0  0  0  0  0  0  0  0
   -0.5198    1.5182    0.0000 C   0  0  0  0  0  0  0  0  0
   -1.2343    1.9307    0.0000 C   0  0  0  0  0  0  0  0  0
   -1.2343    2.7557    0.0000 C   0  0  0  0  0  0  0  0  0
   -0.5198    3.1682    0.0000 C   0  0  0  0  0  0  0  0  0
    0.1947    2.7557    0.0000 C   0  0  0  0  0  0  0  0  0
    1.6236    1.9307    0.0000 C   0  0  0  0  0  0  0  0  0
    2.3381    1.5182    0.0000 C   0  0  0  0  0  0  0  0  0
    3.0525    1.9307    0.0000 C   0  0  0  0  0  0  0  0  0
    3.7670    1.5182    0.0000 N   0  0  0  0  0  0  0  0  0
    4.4815    1.9307    0.0000 C   0  0  0  0  0  0  0  0  0
    3.7670    0.6932    0.0000 C   0  0  0  0  0  0  0  0  0
    1.6236    0.2807    0.0000 C   0  0  0  0  0  0  0  0  0
    1.6236   -0.5443    0.0000 C   0  0  0  0  0  0  0  0  0
    0.9091   -0.9568    0.0000 C   0  0  0  0  0  0  0  0  0
    0.1947   -0.5443    0.0000 C   0  0  0  0  0  0  0  0  0
  1  2  1  0  0  0  0
  1  6  1  0  0  0  0
  2  3  4  0  0  0  0
  2 20  4  0  0  0  0
  3  4  1  0  0  0  0
  3 17  4  0  0  0  0
  4  5  1  0  0  0  0
  4 11  1  0  0  0  0
  5  6  4  0  0  0  0
  5 10  4  0  0  0  0
  6  7  4  0  0  0  0
  7  8  4  0  0  0  0
  8  9  4  0  0  0  0
  9 10  4  0  0  0  0
 11 12  1  0  0  0  0
 12 13  1  0  0  0  0
 13 14  1  0  0  0  0
 14 15  1  0  0  0  0
 14 16  1  0  0  0  0
 17 18  4  0  0  0  0
 18 19  4  0  0  0  0
 19 20  4  0  0  0  0
M  END
>  <Name_Molregno>
PROMAZINE

>  <5-HT1A>
5

>  <5-HT2A>
7.8

>  <DOPAMINE D2>
6.7

>  <DOPAMINE D3>
6.8

>  <HISTAMINE H1>
8.7

$$$$
PROMETHAZINE
  Marvin  02231216192D 0   1.00000     0.00000     0

 20 22  0  0  1  0  0  0  0  0999 V2000
    1.1546   -0.3466    0.0000 S   0  0  0  0  0  0  0  0  0
    1.8691    0.0659    0.0000 C   0  0  0  0  0  0  0  0  0
    1.8691    0.8909    0.0000 C   0  0  0  0  0  0  0  0  0
    1.1546    1.3034    0.0000 N   0  0  0  0  0  0  0  0  0
    0.4401    0.8909    0.0000 C   0  0  0  0  0  0  0  0  0
    0.4401    0.0659    0.0000 C   0  0  0  0  0  0  0  0  0
   -0.2743   -0.3466    0.0000 C   0  0  0  0  0  0  0  0  0
   -0.9888    0.0659    0.0000 C   0  0  0  0  0  0  0  0  0
   -0.9888    0.8909    0.0000 C   0  0  0  0  0  0  0  0  0
   -0.2743    1.3034    0.0000 C   0  0  0  0  0  0  0  0  0
    1.1546    2.1284    0.0000 C   0  0  0  0  0  0  0  0  0
    0.4401    2.5409    0.0000 C   0  0  0  0  0  0  0  0  0
    0.4401    3.3659    0.0000 N   0  0  0  0  0  0  0  0  0
   -0.2743    3.7784    0.0000 C   0  0  0  0  0  0  0  0  0
    1.1546    3.7784    0.0000 C   0  0  0  0  0  0  0  0  0
   -0.2743    2.1284    0.0000 C   0  0  0  0  0  0  0  0  0
    2.5835    1.3034    0.0000 C   0  0  0  0  0  0  0  0  0
    3.2980    0.8909    0.0000 C   0  0  0  0  0  0  0  0  0
    3.2980    0.0659    0.0000 C   0  0  0  0  0  0  0  0  0
    2.5835   -0.3466    0.0000 C   0  0  0  0  0  0  0  0  0
  1  2  1  0  0  0  0
  1  6  1  0  0  0  0
  2  3  4  0  0  0  0
  2 20  4  0  0  0  0
  3  4  1  0  0  0  0
  3 17  4  0  0  0  0
  4  5  1  0  0  0  0
  4 11  1  0  0  0  0
  5  6  4  0  0  0  0
  5 10  4  0  0  0  0
  6  7  4  0  0  0  0
  7  8  4  0  0  0  0
  8  9  4  0  0  0  0
  9 10  4  0  0  0  0
 11 12  1  0  0  0  0
 12 13  1  0  0  0  0
 12 16  1  0  0  0  0
 13 14  1  0  0  0  0
 13 15  1  0  0  0  0
 17 18  4  0  0  0  0
 18 19  4  0  0  0  0
 19 20  4  0  0  0  0
M  END
>  <Name_Molregno>
PROMETHAZINE

>  <HISTAMINE H1>
9.62

>  <HISTAMINE H4>
6.82

$$$$
Propanolol
  Marvin  02231216192D 0   1.00000     0.00000     0

 19 20  0  0  1  0  0  0  0  0999 V2000
   -0.0029    0.3857    0.0000 O   0  0  0  0  0  0  0  0  0
    0.7115   -0.0268    0.0000 C   0  0  0  0  0  0  0  0  0
    1.4260    0.3857    0.0000 C   0  0  0  0  0  0  0  0  0
    1.4260    1.2107    0.0000 O   0  0  0  0  0  0  0  0  0
    2.1405   -0.0268    0.0000 C   0  0  0  0  0  0  0  0  0
    2.8550    0.3857    0.0000 N   0  0  0  0  0  0  0  0  0
    3.5694   -0.0268    0.0000 C   0  0  0  0  0  0  0  0  0
    4.2839    0.3857    0.0000 C   0  0  0  0  0  0  0  0  0
    3.5694   -0.8518    0.0000 C   0  0  0  0  0  0  0  0  0
   -0.7174   -0.0268    0.0000 C   0  0  0  0  0  0  0  0  0
   -1.4319    0.3857    0.0000 C   0  0  0  0  0  0  0  0  0
   -2.1463   -0.0268    0.0000 C   0  0  0  0  0  0  0  0  0
   -2.1463   -0.8518    0.0000 C   0  0  0  0  0  0  0  0  0
   -1.4319   -1.2643    0.0000 C   0  0  0  0  0  0  0  0  0
   -0.7174   -0.8518    0.0000 C   0  0  0  0  0  0  0  0  0
   -2.8608    0.3857    0.0000 C   0  0  0  0  0  0  0  0  0
   -2.8608    1.2107    0.0000 C   0  0  0  0  0  0  0  0  0
   -2.1463    1.6232    0.0000 C   0  0  0  0  0  0  0  0  0
   -1.4319    1.2107    0.0000 C   0  0  0  0  0  0  0  0  0
  1  2  1  0  0  0  0
  1 10  1  0  0  0  0
  2  3  1  0  0  0  0
  3  4  1  0  0  0  0
  3  5  1  0  0  0  0
  5  6  1  0  0  0  0
  6  7  1  0  0  0  0
  7  8  1  0  0  0  0
  7  9  1  0  0  0  0
 10 11  4  0  0  0  0
 10 15  4  0  0  0  0
 11 12  4  0  0  0  0
 11 19  4  0  0  0  0
 12 13  4  0  0  0  0
 12 16  4  0  0  0  0
 13 14  4  0  0  0  0
 14 15  4  0  0  0  0
 16 17  4  0  0  0  0
 17 18  4  0  0  0  0
 18 19  4  0  0  0  0
M  END
>  <Name_Molregno>
Propanolol

>  <5-HT1A>
6.57

>  <5-HT1B>
5.87

>  <5-HT1D>
5.35

>  <5-HT2A>
5.3

>  <5-HT3>
5

>  <Beta-1>
9.34

>  <Beta-2>
9.68

>  <DOPAMINE D1>
5

>  <DOPAMINE D2>
5

>  <HISTAMINE H1>
5

$$$$
Prucalopride
  Marvin  02231216192D 0   1.00000     0.00000     0

 25 27  0  0  0  0  0  0  0  0999 V2000
   -0.3739   -1.3965    0.0000 Cl  0  0  0  0  0  0  0  0  0
    0.3406   -1.8090    0.0000 C   0  0  0  0  0  0  0  0  0
    1.0551   -1.3965    0.0000 C   0  0  0  0  0  0  0  0  0
    1.7696   -1.8090    0.0000 C   0  0  0  0  0  0  0  0  0
    1.7696   -2.6340    0.0000 C   0  0  0  0  0  0  0  0  0
    2.3827   -3.1861    0.0000 O   0  0  0  0  0  0  0  0  0
    2.0471   -3.9397    0.0000 C   0  0  0  0  0  0  0  0  0
    1.2266   -3.8535    0.0000 C   0  0  0  0  0  0  0  0  0
    1.0551   -3.0465    0.0000 C   0  0  0  0  0  0  0  0  0
    0.3406   -2.6340    0.0000 C   0  0  0  0  0  0  0  0  0
   -0.3739   -3.0465    0.0000 N   0  0  0  0  0  0  0  0  0
    2.4840   -1.3965    0.0000 C   0  0  0  0  0  0  0  0  0
    3.1985   -1.8090    0.0000 O   0  0  0  0  0  0  0  0  0
    2.4840   -0.5715    0.0000 N   0  0  0  0  0  0  0  0  0
    3.1985   -0.1590    0.0000 C   0  0  0  0  0  0  0  0  0
    3.1985    0.6660    0.0000 C   0  0  0  0  0  0  0  0  0
    3.9130    1.0785    0.0000 C   0  0  0  0  0  0  0  0  0
    4.6274    0.6660    0.0000 N   0  0  0  0  0  0  0  0  0
    4.6274   -0.1590    0.0000 C   0  0  0  0  0  0  0  0  0
    3.9130   -0.5715    0.0000 C   0  0  0  0  0  0  0  0  0
    5.3419    1.0785    0.0000 C   0  0  0  0  0  0  0  0  0
    6.0564    0.6660    0.0000 C   0  0  0  0  0  0  0  0  0
    6.7709    1.0785    0.0000 C   0  0  0  0  0  0  0  0  0
    7.4853    0.6660    0.0000 O   0  0  0  0  0  0  0  0  0
    8.1998    1.0785    0.0000 C   0  0  0  0  0  0  0  0  0
  1  2  1  0  0  0  0
  2  3  4  0  0  0  0
  2 10  4  0  0  0  0
  3  4  4  0  0  0  0
  4  5  4  0  0  0  0
  4 12  1  0  0  0  0
  5  6  1  0  0  0  0
  5  9  4  0  0  0  0
  6  7  1  0  0  0  0
  7  8  1  0  0  0  0
  8  9  1  0  0  0  0
  9 10  4  0  0  0  0
 10 11  1  0  0  0  0
 12 13  2  0  0  0  0
 12 14  1  0  0  0  0
 14 15  1  0  0  0  0
 15 16  1  0  0  0  0
 15 20  1  0  0  0  0
 16 17  1  0  0  0  0
 17 18  1  0  0  0  0
 18 19  1  0  0  0  0
 18 21  1  0  0  0  0
 19 20  1  0  0  0  0
 21 22  1  0  0  0  0
 22 23  1  0  0  0  0
 23 24  1  0  0  0  0
 24 25  1  0  0  0  0
M  END
>  <Name_Molregno>
Prucalopride

>  <5-HT1A>
5

>  <5-HT1B>
5

>  <5-HT1D>
5

>  <5-HT1E>
5

>  <5-HT2A>
5

>  <5-HT2C>
5

>  <5-HT5>
5

>  <5-HT6>
5

>  <5-HT7>
5

>  <Alpha-2A>
5

>  <Alpha-2B>
5

>  <Alpha-2C>
5

>  <Beta-1>
5

>  <Beta-2>
5

>  <DOPAMINE D2>
5

>  <DOPAMINE D3>
5

>  <DOPAMINE D4>
5.63

>  <HISTAMINE H1>
5

>  <Serotonin transporter>
5

$$$$
PSILOCIN
  Marvin  02231216192D 0   1.00000     0.00000     0

 15 16  0  0  0  0  0  0  0  0999 V2000
    1.2794   -2.2041    0.0000 O   0  0  0  0  0  0  0  0  0
    1.2794   -1.3791    0.0000 C   0  0  0  0  0  0  0  0  0
    0.5650   -0.9666    0.0000 C   0  0  0  0  0  0  0  0  0
    0.5650   -0.1416    0.0000 C   0  0  0  0  0  0  0  0  0
   -0.2197    0.1134    0.0000 N   0  0  0  0  0  0  0  0  0
   -0.7046   -0.5541    0.0000 C   0  0  0  0  0  0  0  0  0
   -0.2197   -1.2215    0.0000 C   0  0  0  0  0  0  0  0  0
   -0.4746   -2.0061    0.0000 C   0  0  0  0  0  0  0  0  0
   -1.2816   -2.1777    0.0000 C   0  0  0  0  0  0  0  0  0
   -1.5365   -2.9623    0.0000 N   0  0  0  0  0  0  0  0  0
   -2.3435   -3.1338    0.0000 C   0  0  0  0  0  0  0  0  0
   -0.9845   -3.5754    0.0000 C   0  0  0  0  0  0  0  0  0
    1.2794    0.2709    0.0000 C   0  0  0  0  0  0  0  0  0
    1.9939   -0.1416    0.0000 C   0  0  0  0  0  0  0  0  0
    1.9939   -0.9666    0.0000 C   0  0  0  0  0  0  0  0  0
  1  2  1  0  0  0  0
  2  3  4  0  0  0  0
  2 15  4  0  0  0  0
  3  4  4  0  0  0  0
  3  7  4  0  0  0  0
  4  5  4  0  0  0  0
  4 13  4  0  0  0  0
  5  6  4  0  0  0  0
  6  7  4  0  0  0  0
  7  8  1  0  0  0  0
  8  9  1  0  0  0  0
  9 10  1  0  0  0  0
 10 11  1  0  0  0  0
 10 12  1  0  0  0  0
 13 14  4  0  0  0  0
 14 15  4  0  0  0  0
M  STY  1   1 DAT
M  SAL   1  1   5
M  SDT   1 MRV_IMPLICIT_H                                        
M  SDD   1     0.0000    0.0000    DR    ALL  0       0  
M  SED   1 IMPL_H1
M  END
>  <Name_Molregno>
PSILOCIN

>  <5-HT1A>
6.78

>  <5-HT1B>
6.66

>  <5-HT1D>
7.44

>  <5-HT1E>
7.28

>  <5-HT2A>
6.97

>  <5-HT3>
5

>  <5-HT5>
7.08

>  <5-HT6>
7.24

>  <5-HT7>
8.46

>  <Alpha-1A>
5

>  <Alpha-1B>
5

>  <Alpha-2A>
5.86

>  <Alpha-2B>
5.72

>  <Alpha-2C>
5

>  <Beta-1>
5

>  <DOPAMINE D1>
5

>  <DOPAMINE D2>
5

>  <DOPAMINE D4>
5

>  <DOPAMINE D5>
5

>  <Dopamine transporter>
5

>  <HISTAMINE H1>
6.52

>  <HISTAMINE H2>
5

>  <HISTAMINE H4>
5

>  <Muscarinic acetylcholine receptor M2>
5

>  <Muscarinic acetylcholine receptor M5>
5

>  <Norepinephrine transporter>
5

>  <Serotonin transporter>
5.42

$$$$
PSILOCYBIN
  Marvin  02231216192D 0   1.00000     0.00000     0

 19 20  0  0  0  0  0  0  0  0999 V2000
    0.6946   -2.4480    0.0000 P   0  0  0  0  0  0  0  0  0
   -0.0199   -2.0355    0.0000 O   0  0  0  0  0  0  0  0  0
   -0.0199   -1.2105    0.0000 C   0  0  0  0  0  0  0  0  0
   -0.7343   -0.7980    0.0000 C   0  0  0  0  0  0  0  0  0
   -0.7343    0.0270    0.0000 C   0  0  0  0  0  0  0  0  0
   -1.5190    0.2819    0.0000 N   0  0  0  0  0  0  0  0  0
   -2.0039   -0.3855    0.0000 C   0  0  0  0  0  0  0  0  0
   -1.5190   -1.0530    0.0000 C   0  0  0  0  0  0  0  0  0
   -1.7739   -1.8376    0.0000 C   0  0  0  0  0  0  0  0  0
   -2.5809   -2.0091    0.0000 C   0  0  0  0  0  0  0  0  0
   -2.8358   -2.7937    0.0000 N   0  0  0  0  0  0  0  0  0
   -3.6428   -2.9653    0.0000 C   0  0  0  0  0  0  0  0  0
   -2.2838   -3.4068    0.0000 C   0  0  0  0  0  0  0  0  0
   -0.0199    0.4395    0.0000 C   0  0  0  0  0  0  0  0  0
    0.6946    0.0270    0.0000 C   0  0  0  0  0  0  0  0  0
    0.6946   -0.7980    0.0000 C   0  0  0  0  0  0  0  0  0
    1.4091   -2.8605    0.0000 O   0  0  0  0  0  0  0  0  0
    0.2821   -3.1625    0.0000 O   0  0  0  0  0  0  0  0  0
    1.1071   -1.7336    0.0000 O   0  0  0  0  0  0  0  0  0
  1  2  1  0  0  0  0
  1 17  2  0  0  0  0
  1 18  1  0  0  0  0
  1 19  1  0  0  0  0
  2  3  1  0  0  0  0
  3  4  4  0  0  0  0
  3 16  4  0  0  0  0
  4  5  4  0  0  0  0
  4  8  4  0  0  0  0
  5  6  4  0  0  0  0
  5 14  4  0  0  0  0
  6  7  4  0  0  0  0
  7  8  4  0  0  0  0
  8  9  1  0  0  0  0
  9 10  1  0  0  0  0
 10 11  1  0  0  0  0
 11 12  1  0  0  0  0
 11 13  1  0  0  0  0
 14 15  4  0  0  0  0
 15 16  4  0  0  0  0
M  STY  1   1 DAT
M  SAL   1  1   6
M  SDT   1 MRV_IMPLICIT_H                                        
M  SDD   1     0.0000    0.0000    DR    ALL  0       0  
M  SED   1 IMPL_H1
M  END
>  <Name_Molregno>
PSILOCYBIN

>  <5-HT1A>
5

>  <5-HT1B>
5

>  <5-HT1D>
5.67

>  <5-HT1E>
6.71

>  <5-HT2A>
5

>  <5-HT3>
5

>  <5-HT5>
5.21

>  <5-HT6>
6.38

>  <5-HT7>
6.22

>  <Alpha-1A>
5

>  <Alpha-1B>
5

>  <Alpha-2A>
5

>  <Alpha-2B>
5

>  <Alpha-2C>
5

>  <DOPAMINE D1>
5

>  <DOPAMINE D2>
5

>  <DOPAMINE D4>
5

>  <DOPAMINE D5>
5

>  <Dopamine transporter>
5

>  <HISTAMINE H1>
5

>  <HISTAMINE H2>
5

>  <HISTAMINE H4>
5

>  <Muscarinic acetylcholine receptor M2>
5

>  <Muscarinic acetylcholine receptor M5>
5

>  <Norepinephrine transporter>
5

>  <Serotonin transporter>
5

$$$$
QMDP
  Marvin  02231216192D 0   1.00000     0.00000     0

 21 22  0  0  1  0  0  0  0  0999 V2000
    0.6068    0.1466    0.0000 O   0  0  0  0  0  0  0  0  0
   -0.1076    0.5591    0.0000 C   0  0  0  0  0  0  0  0  0
   -0.8221    0.1466    0.0000 C   0  0  0  0  0  0  0  0  0
   -0.8221   -0.6784    0.0000 C   0  0  0  0  0  0  0  0  0
   -1.5366   -1.0909    0.0000 C   0  0  0  0  0  0  0  0  0
   -2.2510   -0.6784    0.0000 C   0  0  0  0  0  0  0  0  0
   -2.2510    0.1466    0.0000 C   0  0  0  0  0  0  0  0  0
   -1.5366    0.5591    0.0000 C   0  0  0  0  0  0  0  0  0
   -2.9655   -1.0909    0.0000 C   0  0  0  0  0  0  0  0  0
   -0.1076    1.3841    0.0000 C   0  0  0  0  0  0  0  0  0
   -0.8221    1.7966    0.0000 C   0  0  0  0  0  0  0  0  0
   -0.8221    2.6216    0.0000 C   0  0  0  0  0  0  0  0  0
   -0.1076    3.0341    0.0000 C   0  0  0  0  0  0  0  0  0
    0.6068    2.6216    0.0000 C   0  0  0  0  0  0  0  0  0
    0.6068    1.7966    0.0000 C   0  0  0  0  0  0  0  0  0
    1.3213    0.5591    0.0000 C   0  0  0  0  0  0  0  0  0
    2.0358    0.1466    0.0000 C   0  0  0  0  0  0  0  0  0
    2.7503    0.5591    0.0000 N   0  3  0  0  0  0  0  0  0
    3.4647    0.9716    0.0000 C   0  0  0  0  0  0  0  0  0
    3.1628   -0.1553    0.0000 C   0  0  0  0  0  0  0  0  0
    2.3378    1.2736    0.0000 C   0  0  0  0  0  0  0  0  0
  1  2  1  0  0  0  0
  1 16  1  0  0  0  0
  2  3  1  0  0  0  0
  2 10  1  0  0  0  0
  3  4  4  0  0  0  0
  3  8  4  0  0  0  0
  4  5  4  0  0  0  0
  5  6  4  0  0  0  0
  6  7  4  0  0  0  0
  6  9  1  0  0  0  0
  7  8  4  0  0  0  0
 10 11  4  0  0  0  0
 10 15  4  0  0  0  0
 11 12  4  0  0  0  0
 12 13  4  0  0  0  0
 13 14  4  0  0  0  0
 14 15  4  0  0  0  0
 16 17  1  0  0  0  0
 17 18  1  0  0  0  0
 18 19  1  0  0  0  0
 18 20  1  0  0  0  0
 18 21  1  0  0  0  0
M  CHG  1  18   1
M  END
>  <Name_Molregno>
QMDP

>  <HISTAMINE H1>
8.22

$$$$
QUETIAPINE
  Marvin  02231216192D 0   1.00000     0.00000     0

 27 30  0  0  0  0  0  0  0  0999 V2000
    0.4015    1.2563    0.0000 S   0  0  0  0  0  0  0  0  0
    1.2173    1.3793    0.0000 C   0  0  0  0  0  0  0  0  0
    1.8221    0.8181    0.0000 C   0  0  0  0  0  0  0  0  0
    2.6104    1.0613    0.0000 C   0  0  0  0  0  0  0  0  0
    2.7940    1.8656    0.0000 C   0  0  0  0  0  0  0  0  0
    2.1892    2.4268    0.0000 C   0  0  0  0  0  0  0  0  0
    1.4009    2.1836    0.0000 C   0  0  0  0  0  0  0  0  0
    1.7604   -0.0046    0.0000 C   0  0  0  0  0  0  0  0  0
    1.0788   -0.4693    0.0000 N   0  0  0  0  0  0  0  0  0
    0.2904   -0.2261    0.0000 C   0  0  0  0  0  0  0  0  0
   -0.0110    0.5418    0.0000 C   0  0  0  0  0  0  0  0  0
   -0.8268    0.6648    0.0000 C   0  0  0  0  0  0  0  0  0
   -1.3412    0.0198    0.0000 C   0  0  0  0  0  0  0  0  0
   -1.0398   -0.7482    0.0000 C   0  0  0  0  0  0  0  0  0
   -0.2240   -0.8711    0.0000 C   0  0  0  0  0  0  0  0  0
    2.4749   -0.4171    0.0000 N   0  0  0  0  0  0  0  0  0
    3.1893   -0.0046    0.0000 C   0  0  0  0  0  0  0  0  0
    3.9038   -0.4171    0.0000 C   0  0  0  0  0  0  0  0  0
    3.9038   -1.2421    0.0000 N   0  0  0  0  0  0  0  0  0
    3.1893   -1.6546    0.0000 C   0  0  0  0  0  0  0  0  0
    2.4749   -1.2421    0.0000 C   0  0  0  0  0  0  0  0  0
    4.6183   -1.6546    0.0000 C   0  0  0  0  0  0  0  0  0
    5.3328   -1.2421    0.0000 C   0  0  0  0  0  0  0  0  0
    6.0472   -1.6546    0.0000 O   0  0  0  0  0  0  0  0  0
    6.7617   -1.2421    0.0000 C   0  0  0  0  0  0  0  0  0
    7.4762   -1.6546    0.0000 C   0  0  0  0  0  0  0  0  0
    8.1906   -1.2421    0.0000 O   0  0  0  0  0  0  0  0  0
  1  2  1  0  0  0  0
  1 11  1  0  0  0  0
  2  3  4  0  0  0  0
  2  7  4  0  0  0  0
  3  4  4  0  0  0  0
  3  8  1  0  0  0  0
  4  5  4  0  0  0  0
  5  6  4  0  0  0  0
  6  7  4  0  0  0  0
  8  9  2  0  0  0  0
  8 16  1  0  0  0  0
  9 10  1  0  0  0  0
 10 11  4  0  0  0  0
 10 15  4  0  0  0  0
 11 12  4  0  0  0  0
 12 13  4  0  0  0  0
 13 14  4  0  0  0  0
 14 15  4  0  0  0  0
 16 17  1  0  0  0  0
 16 21  1  0  0  0  0
 17 18  1  0  0  0  0
 18 19  1  0  0  0  0
 19 20  1  0  0  0  0
 19 22  1  0  0  0  0
 20 21  1  0  0  0  0
 22 23  1  0  0  0  0
 23 24  1  0  0  0  0
 24 25  1  0  0  0  0
 25 26  1  0  0  0  0
 26 27  1  0  0  0  0
M  END
>  <Name_Molregno>
QUETIAPINE

>  <5-HT1A>
6.59

>  <5-HT1B>
5.83

>  <5-HT1D>
5.52

>  <5-HT1E>
5.76

>  <5-HT2A>
6.76

>  <5-HT2C>
5.82

>  <5-HT3>
5

>  <5-HT5>
5.51

>  <5-HT6>
6.35

>  <5-HT7>
6.74

>  <Alpha-1A>
7.66

>  <Alpha-1B>
7.41

>  <Alpha-2A>
5.51

>  <Alpha-2B>
6.44

>  <Alpha-2C>
7.18

>  <Beta-1>
5.15

>  <Beta-2>
5.15

>  <DOPAMINE D1>
5.95

>  <DOPAMINE D2>
6.51

>  <DOPAMINE D3>
6.59

>  <DOPAMINE D4>
5.77

>  <DOPAMINE D5>
5.79

>  <Dopamine transporter>
5

>  <HISTAMINE H1>
8.1

>  <HISTAMINE H2>
5

>  <HISTAMINE H4>
5

>  <Muscarinic acetylcholine receptor M1>
6.71

>  <Muscarinic acetylcholine receptor M2>
6.03

>  <Muscarinic acetylcholine receptor M3>
5.69

>  <Muscarinic acetylcholine receptor M4>
6.5

>  <Muscarinic acetylcholine receptor M5>
5.58

>  <Norepinephrine transporter>
5

>  <Serotonin transporter>
5.18

$$$$
RANITIDINE
  Marvin  02231216192D 0   1.00000     0.00000     0

 21 21  0  0  0  0  0  0  0  0999 V2000
   -0.1828    0.2853    0.0000 S   0  0  0  0  0  0  0  0  0
   -0.8973    0.6978    0.0000 C   0  0  0  0  0  0  0  0  0
   -1.6118    0.2853    0.0000 C   0  0  0  0  0  0  0  0  0
   -1.6980   -0.5352    0.0000 O   0  0  0  0  0  0  0  0  0
   -2.5050   -0.7067    0.0000 C   0  0  0  0  0  0  0  0  0
   -2.9175    0.0078    0.0000 C   0  0  0  0  0  0  0  0  0
   -2.3655    0.6209    0.0000 C   0  0  0  0  0  0  0  0  0
   -2.8405   -1.4604    0.0000 C   0  0  0  0  0  0  0  0  0
   -3.6610   -1.5466    0.0000 N   0  0  0  0  0  0  0  0  0
   -3.9966   -2.3003    0.0000 C   0  0  0  0  0  0  0  0  0
   -4.1459   -0.8792    0.0000 C   0  0  0  0  0  0  0  0  0
    0.5316    0.6978    0.0000 C   0  0  0  0  0  0  0  0  0
    1.2461    0.2853    0.0000 C   0  0  0  0  0  0  0  0  0
    1.9606    0.6978    0.0000 N   0  0  0  0  0  0  0  0  0
    2.6751    0.2853    0.0000 C   0  0  0  0  0  0  0  0  0
    2.6751   -0.5397    0.0000 N   0  0  0  0  0  0  0  0  0
    3.3895   -0.9522    0.0000 C   0  0  0  0  0  0  0  0  0
    3.3895    0.6978    0.0000 C   0  0  0  0  0  0  0  0  0
    3.3895    1.5228    0.0000 N   0  3  0  0  0  0  0  0  0
    4.1040    1.9353    0.0000 O   0  5  0  0  0  0  0  0  0
    2.6751    1.9353    0.0000 O   0  5  0  0  0  0  0  0  0
  1  2  1  0  0  0  0
  1 12  1  0  0  0  0
  2  3  1  0  0  0  0
  3  4  4  0  0  0  0
  3  7  4  0  0  0  0
  4  5  4  0  0  0  0
  5  6  4  0  0  0  0
  5  8  1  0  0  0  0
  6  7  4  0  0  0  0
  8  9  1  0  0  0  0
  9 10  1  0  0  0  0
  9 11  1  0  0  0  0
 12 13  1  0  0  0  0
 13 14  1  0  0  0  0
 14 15  1  0  0  0  0
 15 16  1  0  0  0  0
 15 18  2  0  0  0  0
 16 17  1  0  0  0  0
 18 19  1  0  0  0  0
 19 20  1  0  0  0  0
 19 21  1  0  0  0  0
M  CHG  3  19   1  20  -1  21  -1
M  END
>  <Name_Molregno>
RANITIDINE

>  <5-HT3>
5

>  <HISTAMINE H1>
5

>  <HISTAMINE H3>
5

>  <HISTAMINE H4>
5

$$$$
RIMCAZOLE
  Marvin  02231216192D 0   1.00000     0.00000     0

 24 27  0  0  1  0  0  0  0  0999 V2000
   -0.0949    0.2179    0.0000 N   0  0  0  0  0  0  0  0  0
    0.5725    0.7028    0.0000 C   0  0  0  0  0  0  0  0  0
    0.3176    1.4874    0.0000 C   0  0  0  0  0  0  0  0  0
   -0.5074    1.4874    0.0000 C   0  0  0  0  0  0  0  0  0
   -0.7624    0.7028    0.0000 C   0  0  0  0  0  0  0  0  0
   -1.5693    0.5313    0.0000 C   0  0  0  0  0  0  0  0  0
   -2.1214    1.1444    0.0000 C   0  0  0  0  0  0  0  0  0
   -1.8664    1.9290    0.0000 C   0  0  0  0  0  0  0  0  0
   -1.0595    2.1005    0.0000 C   0  0  0  0  0  0  0  0  0
    0.8696    2.1005    0.0000 C   0  0  0  0  0  0  0  0  0
    1.6766    1.9290    0.0000 C   0  0  0  0  0  0  0  0  0
    1.9315    1.1444    0.0000 C   0  0  0  0  0  0  0  0  0
    1.3795    0.5313    0.0000 C   0  0  0  0  0  0  0  0  0
   -0.0949   -0.6071    0.0000 C   0  0  0  0  0  0  0  0  0
   -0.8094   -1.0196    0.0000 C   0  0  0  0  0  0  0  0  0
   -0.8094   -1.8446    0.0000 C   0  0  0  0  0  0  0  0  0
   -1.5239   -2.2571    0.0000 N   0  0  0  0  0  0  0  0  0
   -1.5239   -3.0821    0.0000 C   0  0  0  0  0  0  0  0  0
   -2.2383   -3.4946    0.0000 C   0  0  0  0  0  0  0  0  0
   -2.9528   -3.0821    0.0000 N   0  0  0  0  0  0  0  0  0
   -2.9528   -2.2571    0.0000 C   0  0  0  0  0  0  0  0  0
   -2.2383   -1.8446    0.0000 C   0  0  0  0  0  0  0  0  0
   -3.6673   -1.8446    0.0000 C   0  0  0  0  0  0  0  0  0
   -2.2383   -4.3196    0.0000 C   0  0  0  0  0  0  0  0  0
  1  2  4  0  0  0  0
  1  5  4  0  0  0  0
  1 14  1  0  0  0  0
  2  3  4  0  0  0  0
  2 13  4  0  0  0  0
  3  4  4  0  0  0  0
  3 10  4  0  0  0  0
  4  5  4  0  0  0  0
  4  9  4  0  0  0  0
  5  6  4  0  0  0  0
  6  7  4  0  0  0  0
  7  8  4  0  0  0  0
  8  9  4  0  0  0  0
 10 11  4  0  0  0  0
 11 12  4  0  0  0  0
 12 13  4  0  0  0  0
 14 15  1  0  0  0  0
 15 16  1  0  0  0  0
 16 17  1  0  0  0  0
 17 18  1  0  0  0  0
 17 22  1  0  0  0  0
 18 19  1  0  0  0  0
 19 20  1  0  0  0  0
 19 24  1  0  0  0  0
 20 21  1  0  0  0  0
 21 22  1  0  0  0  0
 21 23  1  0  0  0  0
M  END
>  <Name_Molregno>
RIMCAZOLE

>  <DOPAMINE D2>
5.06

>  <DOPAMINE D3>
5

>  <HISTAMINE H1>
5.3

$$$$
RISPERIDONE
  Marvin  02231216192D 0   1.00000     0.00000     0

 30 34  0  0  0  0  0  0  0  0999 V2000
    1.8325   -2.9394    0.0000 F   0  0  0  0  0  0  0  0  0
    2.0875   -2.1548    0.0000 C   0  0  0  0  0  0  0  0  0
    1.5354   -1.5417    0.0000 C   0  0  0  0  0  0  0  0  0
    1.7904   -0.7571    0.0000 C   0  0  0  0  0  0  0  0  0
    1.3779   -0.0426    0.0000 O   0  0  0  0  0  0  0  0  0
    1.9299    0.5705    0.0000 N   0  0  0  0  0  0  0  0  0
    2.6836    0.2349    0.0000 C   0  0  0  0  0  0  0  0  0
    2.5974   -0.5856    0.0000 C   0  0  0  0  0  0  0  0  0
    3.1494   -1.1987    0.0000 C   0  0  0  0  0  0  0  0  0
    2.8945   -1.9833    0.0000 C   0  0  0  0  0  0  0  0  0
    3.3981    0.6474    0.0000 C   0  0  0  0  0  0  0  0  0
    3.3981    1.4724    0.0000 C   0  0  0  0  0  0  0  0  0
    4.1125    1.8849    0.0000 C   0  0  0  0  0  0  0  0  0
    4.8270    1.4724    0.0000 N   0  0  0  0  0  0  0  0  0
    4.8270    0.6474    0.0000 C   0  0  0  0  0  0  0  0  0
    4.1125    0.2349    0.0000 C   0  0  0  0  0  0  0  0  0
    5.5415    1.8849    0.0000 C   0  0  0  0  0  0  0  0  0
    6.2559    1.4724    0.0000 C   0  0  0  0  0  0  0  0  0
    6.9704    1.8849    0.0000 C   0  0  0  0  0  0  0  0  0
    7.6849    1.4724    0.0000 C   0  0  0  0  0  0  0  0  0
    7.6849    0.6474    0.0000 O   0  0  0  0  0  0  0  0  0
    8.3994    1.8849    0.0000 N   0  0  0  0  0  0  0  0  0
    8.3994    2.7099    0.0000 C   0  0  0  0  0  0  0  0  0
    7.6849    3.1224    0.0000 N   0  0  0  0  0  0  0  0  0
    6.9704    2.7099    0.0000 C   0  0  0  0  0  0  0  0  0
    6.2559    3.1224    0.0000 C   0  0  0  0  0  0  0  0  0
    9.1138    3.1224    0.0000 C   0  0  0  0  0  0  0  0  0
    9.8283    2.7099    0.0000 C   0  0  0  0  0  0  0  0  0
    9.8283    1.8849    0.0000 C   0  0  0  0  0  0  0  0  0
    9.1138    1.4724    0.0000 C   0  0  0  0  0  0  0  0  0
  1  2  1  0  0  0  0
  2  3  4  0  0  0  0
  2 10  4  0  0  0  0
  3  4  4  0  0  0  0
  4  5  4  0  0  0  0
  4  8  4  0  0  0  0
  5  6  4  0  0  0  0
  6  7  4  0  0  0  0
  7  8  4  0  0  0  0
  7 11  1  0  0  0  0
  8  9  4  0  0  0  0
  9 10  4  0  0  0  0
 11 12  1  0  0  0  0
 11 16  1  0  0  0  0
 12 13  1  0  0  0  0
 13 14  1  0  0  0  0
 14 15  1  0  0  0  0
 14 17  1  0  0  0  0
 15 16  1  0  0  0  0
 17 18  1  0  0  0  0
 18 19  1  0  0  0  0
 19 20  1  0  0  0  0
 19 25  2  0  0  0  0
 20 21  2  0  0  0  0
 20 22  1  0  0  0  0
 22 23  1  0  0  0  0
 22 30  1  0  0  0  0
 23 24  2  0  0  0  0
 23 27  1  0  0  0  0
 24 25  1  0  0  0  0
 25 26  1  0  0  0  0
 27 28  1  0  0  0  0
 28 29  1  0  0  0  0
 29 30  1  0  0  0  0
M  END
>  <Name_Molregno>
RISPERIDONE

>  <5-HT1A>
6.52

>  <5-HT1B>
7.66

>  <5-HT1D>
7.6

>  <5-HT1E>
5.44

>  <5-HT2A>
9.35

>  <5-HT2C>
7.74

>  <5-HT3>
5

>  <5-HT5>
6.69

>  <5-HT6>
5.7

>  <5-HT7>
8.4

>  <Alpha-1A>
8.38

>  <Alpha-1B>
8.05

>  <Alpha-2A>
7.46

>  <Alpha-2B>
7.34

>  <Alpha-2C>
8.56

>  <Beta-1>
5.15

>  <Beta-2>
5.15

>  <DOPAMINE D1>
6.61

>  <DOPAMINE D2>
8.58

>  <DOPAMINE D3>
8.17

>  <DOPAMINE D4>
8.17

>  <DOPAMINE D5>
7.03

>  <Dopamine transporter>
5

>  <HISTAMINE H1>
7.79

>  <HISTAMINE H2>
6.92

>  <HISTAMINE H4>
5

>  <Muscarinic acetylcholine receptor M1>
5.22

>  <Muscarinic acetylcholine receptor M2>
5.14

>  <Muscarinic acetylcholine receptor M3>
5

>  <Muscarinic acetylcholine receptor M4>
5.18

>  <Muscarinic acetylcholine receptor M5>
5

>  <Norepinephrine transporter>
5

>  <Serotonin transporter>
5.67

$$$$
SalvinorinA
  Marvin  02231216192D 0   1.00000     0.00000     0

 31 34  0  0  1  0  0  0  0  0999 V2000
   -4.2035   -1.1582    0.0000 O   0  0  0  0  0  0  0  0  0
   -3.7910   -1.8727    0.0000 C   0  0  0  0  0  0  0  0  0
   -2.9660   -1.8727    0.0000 C   0  0  0  0  0  0  0  0  0
   -2.5535   -1.1582    0.0000 C   0  0  0  0  0  0  0  0  0
   -1.7285   -1.1582    0.0000 C   0  0  0  0  0  0  0  0  0
   -1.3160   -0.4437    0.0000 C   0  0  0  0  0  0  0  0  0
   -1.7285    0.2708    0.0000 C   0  0  0  0  0  0  0  0  0
   -2.5535    0.2708    0.0000 C   0  0  0  0  0  0  0  0  0
   -2.9660   -0.4437    0.0000 C   0  0  0  0  0  0  0  0  0
   -3.7910   -0.4437    0.0000 C   0  0  0  0  0  0  0  0  0
   -4.2035    0.2708    0.0000 O   0  0  0  0  0  0  0  0  0
   -0.9035    0.2708    0.0000 C   0  0  0  0  0  0  0  0  0
   -0.4910   -0.4437    0.0000 C   0  0  0  0  0  0  0  0  0
   -0.0785   -1.1582    0.0000 C   0  0  0  0  0  0  0  0  0
   -0.4910   -1.8727    0.0000 C   0  0  0  0  0  0  0  0  0
   -0.0785   -2.5871    0.0000 O   0  0  0  0  0  0  0  0  0
    0.7465   -2.5871    0.0000 C   0  0  0  0  0  0  0  0  0
    1.1590   -3.3016    0.0000 O   0  0  0  0  0  0  0  0  0
    1.1590   -1.8727    0.0000 C   0  0  0  0  0  0  0  0  0
   -1.3160   -1.8727    0.0000 C   0  0  0  0  0  0  0  0  0
   -1.7285   -2.5871    0.0000 O   0  0  0  0  0  0  0  0  0
   -0.0785    0.2708    0.0000 C   0  0  0  0  0  0  0  0  0
   -0.4910    0.9852    0.0000 O   0  0  0  0  0  0  0  0  0
   -0.0785    1.6997    0.0000 C   0  0  0  0  0  0  0  0  0
    0.7465    0.2708    0.0000 O   0  0  0  0  0  0  0  0  0
   -2.1410   -1.8727    0.0000 C   0  0  0  0  0  0  0  0  0
   -4.2035   -2.5871    0.0000 C   0  0  0  0  0  0  0  0  0
   -3.8680   -3.3408    0.0000 C   0  0  0  0  0  0  0  0  0
   -4.4811   -3.8928    0.0000 C   0  0  0  0  0  0  0  0  0
   -5.1956   -3.4803    0.0000 O   0  0  0  0  0  0  0  0  0
   -5.0240   -2.6734    0.0000 C   0  0  0  0  0  0  0  0  0
  1  2  1  0  0  0  0
  1 10  1  0  0  0  0
  2  3  1  0  0  0  0
  2 27  1  0  0  0  0
  3  4  1  0  0  0  0
  4  5  1  0  0  0  0
  4  9  1  0  0  0  0
  4 26  1  0  0  0  0
  5  6  1  0  0  0  0
  5 20  1  0  0  0  0
  6  7  1  0  0  0  0
  6 12  1  0  0  0  0
  6 13  1  0  0  0  0
  7  8  1  0  0  0  0
  8  9  1  0  0  0  0
  9 10  1  0  0  0  0
 10 11  2  0  0  0  0
 13 14  1  0  0  0  0
 13 22  1  0  0  0  0
 14 15  1  0  0  0  0
 15 16  1  0  0  0  0
 15 20  1  0  0  0  0
 16 17  1  0  0  0  0
 17 18  2  0  0  0  0
 17 19  1  0  0  0  0
 20 21  2  0  0  0  0
 22 23  1  0  0  0  0
 22 25  2  0  0  0  0
 23 24  1  0  0  0  0
 27 28  4  0  0  0  0
 27 31  4  0  0  0  0
 28 29  4  0  0  0  0
 29 30  4  0  0  0  0
 30 31  4  0  0  0  0
M  END
>  <Name_Molregno>
SalvinorinA

>  <5-HT1A>
5

>  <5-HT1B>
5

>  <5-HT1D>
5

>  <5-HT1E>
5

>  <5-HT3>
5

>  <5-HT5>
5

>  <5-HT6>
5

>  <5-HT7>
5

>  <Alpha-1A>
5

>  <Alpha-1B>
5

>  <DOPAMINE D1>
5

>  <DOPAMINE D2>
5

>  <DOPAMINE D3>
5

>  <DOPAMINE D5>
5

>  <HISTAMINE H1>
5

>  <Muscarinic acetylcholine receptor M1>
5

>  <Muscarinic acetylcholine receptor M2>
5

>  <Muscarinic acetylcholine receptor M3>
5

>  <Muscarinic acetylcholine receptor M4>
5

>  <Muscarinic acetylcholine receptor M5>
5

>  <Serotonin transporter>
5

$$$$
SERTINDOLE
  Marvin  02231216192D 0   1.00000     0.00000     0

 31 35  0  0  0  0  0  0  0  0999 V2000
    1.9546   -2.6271    0.0000 Cl  0  0  0  0  0  0  0  0  0
    1.2402   -2.2146    0.0000 C   0  0  0  0  0  0  0  0  0
    0.5257   -2.6271    0.0000 C   0  0  0  0  0  0  0  0  0
   -0.1888   -2.2146    0.0000 C   0  0  0  0  0  0  0  0  0
   -0.1888   -1.3896    0.0000 C   0  0  0  0  0  0  0  0  0
   -0.9734   -1.1347    0.0000 N   0  0  0  0  0  0  0  0  0
   -1.4583   -1.8021    0.0000 C   0  0  0  0  0  0  0  0  0
   -0.9734   -2.4695    0.0000 C   0  0  0  0  0  0  0  0  0
   -1.2283   -3.2542    0.0000 C   0  0  0  0  0  0  0  0  0
   -0.6763   -3.8672    0.0000 C   0  0  0  0  0  0  0  0  0
   -0.9312   -4.6519    0.0000 C   0  0  0  0  0  0  0  0  0
   -1.7382   -4.8234    0.0000 N   0  0  0  0  0  0  0  0  0
   -2.2902   -4.2103    0.0000 C   0  0  0  0  0  0  0  0  0
   -2.0353   -3.4257    0.0000 C   0  0  0  0  0  0  0  0  0
   -1.9931   -5.6080    0.0000 C   0  0  0  0  0  0  0  0  0
   -2.8001   -5.7795    0.0000 C   0  0  0  0  0  0  0  0  0
   -3.0551   -6.5642    0.0000 N   0  0  0  0  0  0  0  0  0
   -2.5701   -7.2316    0.0000 C   0  0  0  0  0  0  0  0  0
   -3.0551   -7.8990    0.0000 C   0  0  0  0  0  0  0  0  0
   -3.8397   -7.6441    0.0000 N   0  0  0  0  0  0  0  0  0
   -3.8397   -6.8191    0.0000 C   0  0  0  0  0  0  0  0  0
   -4.5071   -6.3342    0.0000 O   0  0  0  0  0  0  0  0  0
   -1.2283   -0.3500    0.0000 C   0  0  0  0  0  0  0  0  0
   -2.0353   -0.1785    0.0000 C   0  0  0  0  0  0  0  0  0
   -2.2902    0.6061    0.0000 C   0  0  0  0  0  0  0  0  0
   -1.7382    1.2192    0.0000 C   0  0  0  0  0  0  0  0  0
   -1.9931    2.0038    0.0000 F   0  0  0  0  0  0  0  0  0
   -0.9312    1.0477    0.0000 C   0  0  0  0  0  0  0  0  0
   -0.6763    0.2631    0.0000 C   0  0  0  0  0  0  0  0  0
    0.5257   -0.9771    0.0000 C   0  0  0  0  0  0  0  0  0
    1.2402   -1.3896    0.0000 C   0  0  0  0  0  0  0  0  0
  1  2  1  0  0  0  0
  2  3  4  0  0  0  0
  2 31  4  0  0  0  0
  3  4  4  0  0  0  0
  4  5  4  0  0  0  0
  4  8  4  0  0  0  0
  5  6  4  0  0  0  0
  5 30  4  0  0  0  0
  6  7  4  0  0  0  0
  6 23  1  0  0  0  0
  7  8  4  0  0  0  0
  8  9  1  0  0  0  0
  9 10  1  0  0  0  0
  9 14  1  0  0  0  0
 10 11  1  0  0  0  0
 11 12  1  0  0  0  0
 12 13  1  0  0  0  0
 12 15  1  0  0  0  0
 13 14  1  0  0  0  0
 15 16  1  0  0  0  0
 16 17  1  0  0  0  0
 17 18  1  0  0  0  0
 17 21  1  0  0  0  0
 18 19  1  0  0  0  0
 19 20  1  0  0  0  0
 20 21  1  0  0  0  0
 21 22  2  0  0  0  0
 23 24  4  0  0  0  0
 23 29  4  0  0  0  0
 24 25  4  0  0  0  0
 25 26  4  0  0  0  0
 26 27  1  0  0  0  0
 26 28  4  0  0  0  0
 28 29  4  0  0  0  0
 30 31  4  0  0  0  0
M  END
>  <Name_Molregno>
SERTINDOLE

>  <5-HT1A>
6.36

>  <5-HT1B>
7.22

>  <5-HT1D>
7.36

>  <5-HT1E>
6.37

>  <5-HT2A>
9.49

>  <5-HT2C>
8.64

>  <5-HT6>
8.27

>  <5-HT7>
7.55

>  <Alpha-1A>
8.74

>  <Alpha-2A>
6.19

>  <Alpha-2B>
6.35

>  <Alpha-2C>
6.35

>  <Beta-1>
5.3

>  <Beta-2>
5.3

>  <DOPAMINE D2>
8.54

>  <DOPAMINE D3>
8.35

>  <DOPAMINE D4>
8.2

>  <HISTAMINE H1>
6.76

>  <Muscarinic acetylcholine receptor M3>
5.57

>  <Serotonin transporter>
6

$$$$
SERTRALINE
  Marvin  02231216192D 0   1.00000     0.00000     0

 20 22  0  0  1  0  0  0  0  0999 V2000
    3.7848    2.1302    0.0000 Cl  0  0  0  0  0  0  0  0  0
    3.0703    1.7177    0.0000 C   0  0  0  0  0  0  0  0  0
    3.0703    0.8927    0.0000 C   0  0  0  0  0  0  0  0  0
    2.3558    0.4802    0.0000 C   0  0  0  0  0  0  0  0  0
    1.6413    0.8927    0.0000 C   0  0  0  0  0  0  0  0  0
    1.6413    1.7177    0.0000 C   0  0  0  0  0  0  0  0  0
    2.3558    2.1302    0.0000 C   0  0  0  0  0  0  0  0  0
    2.3558    2.9552    0.0000 Cl  0  0  0  0  0  0  0  0  0
    2.3558   -0.3448    0.0000 C   0  0  0  0  0  0  0  0  0
    1.6413   -0.7573    0.0000 C   0  0  0  0  0  0  0  0  0
    1.6413   -1.5823    0.0000 C   0  0  0  0  0  0  0  0  0
    2.3558   -1.9948    0.0000 C   0  0  0  0  0  0  0  0  0
    2.3558   -2.8198    0.0000 N   0  0  0  0  0  0  0  0  0
    3.0703   -3.2323    0.0000 C   0  0  0  0  0  0  0  0  0
    3.0703   -1.5823    0.0000 C   0  0  0  0  0  0  0  0  0
    3.0703   -0.7573    0.0000 C   0  0  0  0  0  0  0  0  0
    3.7848   -0.3448    0.0000 C   0  0  0  0  0  0  0  0  0
    4.4992   -0.7573    0.0000 C   0  0  0  0  0  0  0  0  0
    4.4992   -1.5823    0.0000 C   0  0  0  0  0  0  0  0  0
    3.7848   -1.9948    0.0000 C   0  0  0  0  0  0  0  0  0
  1  2  1  0  0  0  0
  2  3  4  0  0  0  0
  2  7  4  0  0  0  0
  3  4  4  0  0  0  0
  4  5  4  0  0  0  0
  4  9  1  0  0  0  0
  5  6  4  0  0  0  0
  6  7  4  0  0  0  0
  7  8  1  0  0  0  0
  9 10  1  0  0  0  0
  9 16  1  0  0  0  0
 10 11  1  0  0  0  0
 11 12  1  0  0  0  0
 12 13  1  0  0  0  0
 12 15  1  0  0  0  0
 13 14  1  0  0  0  0
 15 16  4  0  0  0  0
 15 20  4  0  0  0  0
 16 17  4  0  0  0  0
 17 18  4  0  0  0  0
 18 19  4  0  0  0  0
 19 20  4  0  0  0  0
M  END
>  <Name_Molregno>
SERTRALINE

>  <5-HT1A>
5

>  <DOPAMINE D2>
5

>  <Dopamine transporter>
7.34

>  <HISTAMINE H1>
5

>  <Muscarinic acetylcholine receptor M1>
6.13

>  <Muscarinic acetylcholine receptor M2>
5.68

>  <Muscarinic acetylcholine receptor M3>
5.89

>  <Muscarinic acetylcholine receptor M4>
5.85

>  <Muscarinic acetylcholine receptor M5>
5.72

>  <Norepinephrine transporter>
6.1

>  <Serotonin transporter>
9.17

$$$$
SPIPERONE
  Marvin  02231216192D 0   1.00000     0.00000     0

 29 32  0  0  0  0  0  0  0  0999 V2000
   10.5422    0.0060    0.0000 F   0  0  0  0  0  0  0  0  0
    9.7172    0.0060    0.0000 C   0  0  0  0  0  0  0  0  0
    9.3047   -0.7084    0.0000 C   0  0  0  0  0  0  0  0  0
    8.4797   -0.7084    0.0000 C   0  0  0  0  0  0  0  0  0
    8.0672    0.0060    0.0000 C   0  0  0  0  0  0  0  0  0
    8.4797    0.7205    0.0000 C   0  0  0  0  0  0  0  0  0
    9.3047    0.7205    0.0000 C   0  0  0  0  0  0  0  0  0
    7.2422    0.0060    0.0000 C   0  0  0  0  0  0  0  0  0
    6.8297    0.7205    0.0000 O   0  0  0  0  0  0  0  0  0
    6.8297   -0.7084    0.0000 C   0  0  0  0  0  0  0  0  0
    6.0047   -0.7084    0.0000 C   0  0  0  0  0  0  0  0  0
    5.5922   -1.4229    0.0000 C   0  0  0  0  0  0  0  0  0
    4.7672   -1.4229    0.0000 N   0  0  0  0  0  0  0  0  0
    4.3547   -2.1374    0.0000 C   0  0  0  0  0  0  0  0  0
    3.5297   -2.1374    0.0000 C   0  0  0  0  0  0  0  0  0
    3.1172   -1.4229    0.0000 C   0  0  0  0  0  0  0  0  0
    2.6323   -2.0903    0.0000 N   0  0  0  0  0  0  0  0  0
    1.8476   -1.8354    0.0000 C   0  0  0  0  0  0  0  0  0
    1.8476   -1.0104    0.0000 N   0  0  0  0  0  0  0  0  0
    2.6323   -0.7555    0.0000 C   0  0  0  0  0  0  0  0  0
    2.8872    0.0292    0.0000 O   0  0  0  0  0  0  0  0  0
    2.8872   -2.8750    0.0000 C   0  0  0  0  0  0  0  0  0
    3.6942   -3.0465    0.0000 C   0  0  0  0  0  0  0  0  0
    3.9491   -3.8311    0.0000 C   0  0  0  0  0  0  0  0  0
    3.3971   -4.4442    0.0000 C   0  0  0  0  0  0  0  0  0
    2.5901   -4.2727    0.0000 C   0  0  0  0  0  0  0  0  0
    2.3352   -3.4880    0.0000 C   0  0  0  0  0  0  0  0  0
    3.5297   -0.7084    0.0000 C   0  0  0  0  0  0  0  0  0
    4.3547   -0.7084    0.0000 C   0  0  0  0  0  0  0  0  0
  1  2  1  0  0  0  0
  2  3  4  0  0  0  0
  2  7  4  0  0  0  0
  3  4  4  0  0  0  0
  4  5  4  0  0  0  0
  5  6  4  0  0  0  0
  5  8  1  0  0  0  0
  6  7  4  0  0  0  0
  8  9  2  0  0  0  0
  8 10  1  0  0  0  0
 10 11  1  0  0  0  0
 11 12  1  0  0  0  0
 12 13  1  0  0  0  0
 13 14  1  0  0  0  0
 13 29  1  0  0  0  0
 14 15  1  0  0  0  0
 15 16  1  0  0  0  0
 16 17  1  0  0  0  0
 16 20  1  0  0  0  0
 16 28  1  0  0  0  0
 17 18  1  0  0  0  0
 17 22  1  0  0  0  0
 18 19  1  0  0  0  0
 19 20  1  0  0  0  0
 20 21  2  0  0  0  0
 22 23  4  0  0  0  0
 22 27  4  0  0  0  0
 23 24  4  0  0  0  0
 24 25  4  0  0  0  0
 25 26  4  0  0  0  0
 26 27  4  0  0  0  0
 28 29  1  0  0  0  0
M  END
>  <Name_Molregno>
SPIPERONE

>  <5-HT1A>
7

>  <5-HT1B>
5.5

>  <5-HT1D>
5.4

>  <5-HT1E>
5.3

>  <5-HT2A>
8.65

>  <5-HT2C>
6.12

>  <5-HT5>
4.2

>  <5-HT6>
5.8

>  <5-HT7>
7.17

>  <Alpha-1A>
7.9

>  <Alpha-1B>
8.51

>  <DOPAMINE D1>
6.42

>  <DOPAMINE D2>
10.02

>  <DOPAMINE D3>
9.55

>  <DOPAMINE D4>
9.31

>  <DOPAMINE D5>
5.35

>  <HISTAMINE H1>
6.4

$$$$
SR144528
  Marvin  02231216192D 0   1.00000     0.00000     0

 34 38  0  0  1  0  0  0  0  0999 V2000
   -3.4859   -7.8445    0.0000 Cl  0  0  0  0  0  0  0  0  0
   -3.3410   -7.0323    0.0000 C   0  0  0  0  0  0  0  0  0
   -3.9720   -6.5008    0.0000 C   0  0  0  0  0  0  0  0  0
   -3.8271   -5.6886    0.0000 C   0  0  0  0  0  0  0  0  0
   -3.0513   -5.4080    0.0000 C   0  0  0  0  0  0  0  0  0
   -2.4203   -5.9395    0.0000 C   0  0  0  0  0  0  0  0  0
   -2.5652   -6.7517    0.0000 C   0  0  0  0  0  0  0  0  0
   -1.9343   -7.2833    0.0000 C   0  0  0  0  0  0  0  0  0
   -2.9064   -4.5958    0.0000 C   0  0  0  0  0  0  0  0  0
   -3.4783   -4.0012    0.0000 N   0  0  0  0  0  0  0  0  0
   -3.0895   -3.2735    0.0000 N   0  0  0  0  0  0  0  0  0
   -2.2773   -3.4184    0.0000 C   0  0  0  0  0  0  0  0  0
   -2.1641   -4.2356    0.0000 C   0  0  0  0  0  0  0  0  0
   -1.6827   -2.8465    0.0000 C   0  0  0  0  0  0  0  0  0
   -1.8807   -2.0456    0.0000 O   0  0  0  0  0  0  0  0  0
   -0.8901   -3.0755    0.0000 N   0  0  0  0  0  0  0  0  0
   -0.2955   -2.5036    0.0000 C   0  0  0  0  0  0  0  0  0
    0.0698   -1.8431    0.0000 C   0  0  0  0  0  0  0  0  0
    0.7101   -1.3929    0.0000 C   0  0  0  0  0  0  0  0  0
    0.5501   -0.5775    0.0000 C   0  0  0  0  0  0  0  0  0
    0.4800   -2.1133    0.0000 C   0  0  0  0  0  0  0  0  0
    1.2105   -2.4836    0.0000 C   0  0  0  0  0  0  0  0  0
    1.5056   -1.8582    0.0000 C   0  0  0  0  0  0  0  0  0
    0.4788   -2.9383    0.0000 C   0  0  0  0  0  0  0  0  0
   -0.7153   -1.5897    0.0000 C   0  0  0  0  0  0  0  0  0
   -0.2665   -1.0898    0.0000 C   0  0  0  0  0  0  0  0  0
   -4.2955   -4.1144    0.0000 C   0  0  0  0  0  0  0  0  0
   -4.8021   -3.4633    0.0000 C   0  0  0  0  0  0  0  0  0
   -5.6193   -3.5764    0.0000 C   0  0  0  0  0  0  0  0  0
   -6.1259   -2.9253    0.0000 C   0  0  0  0  0  0  0  0  0
   -5.8153   -2.1610    0.0000 C   0  0  0  0  0  0  0  0  0
   -4.9981   -2.0478    0.0000 C   0  0  0  0  0  0  0  0  0
   -4.4915   -2.6989    0.0000 C   0  0  0  0  0  0  0  0  0
   -6.3219   -1.5099    0.0000 C   0  0  0  0  0  0  0  0  0
  1  2  1  0  0  0  0
  2  3  4  0  0  0  0
  2  7  4  0  0  0  0
  3  4  4  0  0  0  0
  4  5  4  0  0  0  0
  5  6  4  0  0  0  0
  5  9  1  0  0  0  0
  6  7  4  0  0  0  0
  7  8  1  0  0  0  0
  9 10  4  0  0  0  0
  9 13  4  0  0  0  0
 10 11  4  0  0  0  0
 10 27  1  0  0  0  0
 11 12  4  0  0  0  0
 12 13  4  0  0  0  0
 12 14  1  0  0  0  0
 14 15  2  0  0  0  0
 14 16  1  0  0  0  0
 16 17  1  0  0  0  0
 17 18  1  0  0  0  0
 17 21  1  0  0  0  0
 18 19  1  0  0  0  0
 18 25  1  0  0  0  0
 18 26  1  0  0  0  0
 19 20  1  0  0  0  0
 19 23  1  0  0  0  0
 20 21  1  0  0  0  0
 21 22  1  0  0  0  0
 21 24  1  0  0  0  0
 22 23  1  0  0  0  0
 27 28  1  0  0  0  0
 28 29  4  0  0  0  0
 28 33  4  0  0  0  0
 29 30  4  0  0  0  0
 30 31  4  0  0  0  0
 31 32  4  0  0  0  0
 31 34  1  0  0  0  0
 32 33  4  0  0  0  0
M  END
>  <Name_Molregno>
SR144528

>  <5-HT1A>
5

>  <5-HT1B>
5

>  <5-HT1D>
5

>  <5-HT2A>
5

>  <5-HT2C>
5

>  <5-HT3>
5

>  <Beta-1>
5

>  <Beta-2>
5

>  <DOPAMINE D1>
5

>  <DOPAMINE D2>
5

>  <DOPAMINE D3>
5

>  <DOPAMINE D4>
5

>  <HISTAMINE H1>
5

>  <HISTAMINE H2>
5

>  <HISTAMINE H3>
5

>  <Muscarinic acetylcholine receptor M1>
5

>  <Muscarinic acetylcholine receptor M2>
5

>  <Muscarinic acetylcholine receptor M4>
5

$$$$
Temelastine
  Marvin  02231216192D 0   1.00000     0.00000     0

 28 30  0  0  0  0  0  0  0  0999 V2000
   -0.2046   -1.9150    0.0000 Br  0  0  0  0  0  0  0  0  0
    0.5099   -1.5025    0.0000 C   0  0  0  0  0  0  0  0  0
    0.5099   -0.6775    0.0000 C   0  0  0  0  0  0  0  0  0
    1.2244   -0.2650    0.0000 C   0  0  0  0  0  0  0  0  0
    1.2244    0.5600    0.0000 C   0  0  0  0  0  0  0  0  0
    1.9388   -0.6775    0.0000 C   0  0  0  0  0  0  0  0  0
    1.9388   -1.5025    0.0000 N   0  0  0  0  0  0  0  0  0
    1.2244   -1.9150    0.0000 C   0  0  0  0  0  0  0  0  0
    2.6533   -0.2650    0.0000 C   0  0  0  0  0  0  0  0  0
    3.3678   -0.6775    0.0000 C   0  0  0  0  0  0  0  0  0
    4.0823   -0.2650    0.0000 C   0  0  0  0  0  0  0  0  0
    4.7967   -0.6775    0.0000 C   0  0  0  0  0  0  0  0  0
    5.5112   -0.2650    0.0000 N   0  0  0  0  0  0  0  0  0
    6.2257   -0.6775    0.0000 C   0  0  0  0  0  0  0  0  0
    6.9401   -0.2650    0.0000 N   0  0  0  0  0  0  0  0  0
    7.6546   -0.6775    0.0000 C   0  0  0  0  0  0  0  0  0
    8.3691   -0.2650    0.0000 O   0  0  0  0  0  0  0  0  0
    7.6546   -1.5025    0.0000 C   0  0  0  0  0  0  0  0  0
    6.9401   -1.9150    0.0000 C   0  0  0  0  0  0  0  0  0
    6.2257   -1.5025    0.0000 N   0  0  0  0  0  0  0  0  0
    8.3691   -1.9150    0.0000 C   0  0  0  0  0  0  0  0  0
    9.0836   -1.5025    0.0000 C   0  0  0  0  0  0  0  0  0
    9.0836   -0.6775    0.0000 C   0  0  0  0  0  0  0  0  0
    9.7980   -0.2650    0.0000 C   0  0  0  0  0  0  0  0  0
   10.5125   -0.6775    0.0000 C   0  0  0  0  0  0  0  0  0
   10.5125   -1.5025    0.0000 N   0  0  0  0  0  0  0  0  0
    9.7980   -1.9150    0.0000 C   0  0  0  0  0  0  0  0  0
   11.2270   -0.2650    0.0000 C   0  0  0  0  0  0  0  0  0
  1  2  1  0  0  0  0
  2  3  4  0  0  0  0
  2  8  4  0  0  0  0
  3  4  4  0  0  0  0
  4  5  1  0  0  0  0
  4  6  4  0  0  0  0
  6  7  4  0  0  0  0
  6  9  1  0  0  0  0
  7  8  4  0  0  0  0
  9 10  1  0  0  0  0
 10 11  1  0  0  0  0
 11 12  1  0  0  0  0
 12 13  1  0  0  0  0
 13 14  1  0  0  0  0
 14 15  1  0  0  0  0
 14 20  2  0  0  0  0
 15 16  1  0  0  0  0
 16 17  2  0  0  0  0
 16 18  1  0  0  0  0
 18 19  2  0  0  0  0
 18 21  1  0  0  0  0
 19 20  1  0  0  0  0
 21 22  1  0  0  0  0
 22 23  4  0  0  0  0
 22 27  4  0  0  0  0
 23 24  4  0  0  0  0
 24 25  4  0  0  0  0
 25 26  4  0  0  0  0
 25 28  1  0  0  0  0
 26 27  4  0  0  0  0
M  END
>  <Name_Molregno>
Temelastine

>  <HISTAMINE H1>
8.49

$$$$
TERFENADINE
  Marvin  02231216192D 0   1.00000     0.00000     0

 35 38  0  0  1  0  0  0  0  0999 V2000
    2.1114    2.2661    0.0000 O   0  0  0  0  0  0  0  0  0
    2.9364    2.2661    0.0000 C   0  0  0  0  0  0  0  0  0
    2.9364    1.4411    0.0000 C   0  0  0  0  0  0  0  0  0
    3.6508    1.0286    0.0000 C   0  0  0  0  0  0  0  0  0
    3.6508    0.2036    0.0000 C   0  0  0  0  0  0  0  0  0
    2.9364   -0.2089    0.0000 N   0  0  0  0  0  0  0  0  0
    2.2219    0.2036    0.0000 C   0  0  0  0  0  0  0  0  0
    2.2219    1.0286    0.0000 C   0  0  0  0  0  0  0  0  0
    2.9364   -1.0339    0.0000 C   0  0  0  0  0  0  0  0  0
    2.2219   -1.4464    0.0000 C   0  0  0  0  0  0  0  0  0
    2.2219   -2.2714    0.0000 C   0  0  0  0  0  0  0  0  0
    1.5074   -2.6839    0.0000 C   0  0  0  0  0  0  0  0  0
    0.7929   -2.2714    0.0000 O   0  0  0  0  0  0  0  0  0
    1.5074   -3.5089    0.0000 C   0  0  0  0  0  0  0  0  0
    2.2219   -3.9214    0.0000 C   0  0  0  0  0  0  0  0  0
    2.2219   -4.7464    0.0000 C   0  0  0  0  0  0  0  0  0
    1.5074   -5.1589    0.0000 C   0  0  0  0  0  0  0  0  0
    0.7929   -4.7464    0.0000 C   0  0  0  0  0  0  0  0  0
    0.7929   -3.9214    0.0000 C   0  0  0  0  0  0  0  0  0
    1.5074   -5.9839    0.0000 C   0  0  0  0  0  0  0  0  0
    1.5074   -6.8089    0.0000 C   0  0  0  0  0  0  0  0  0
    2.3324   -5.9839    0.0000 C   0  0  0  0  0  0  0  0  0
    0.6824   -5.9839    0.0000 C   0  0  0  0  0  0  0  0  0
    2.9364    3.0911    0.0000 C   0  0  0  0  0  0  0  0  0
    2.2219    3.5036    0.0000 C   0  0  0  0  0  0  0  0  0
    2.2219    4.3286    0.0000 C   0  0  0  0  0  0  0  0  0
    2.9364    4.7411    0.0000 C   0  0  0  0  0  0  0  0  0
    3.6508    4.3286    0.0000 C   0  0  0  0  0  0  0  0  0
    3.6508    3.5036    0.0000 C   0  0  0  0  0  0  0  0  0
    3.7614    2.2661    0.0000 C   0  0  0  0  0  0  0  0  0
    4.1739    2.9806    0.0000 C   0  0  0  0  0  0  0  0  0
    4.9989    2.9806    0.0000 C   0  0  0  0  0  0  0  0  0
    5.4114    2.2661    0.0000 C   0  0  0  0  0  0  0  0  0
    4.9989    1.5517    0.0000 C   0  0  0  0  0  0  0  0  0
    4.1739    1.5517    0.0000 C   0  0  0  0  0  0  0  0  0
  1  2  1  0  0  0  0
  2  3  1  0  0  0  0
  2 24  1  0  0  0  0
  2 30  1  0  0  0  0
  3  4  1  0  0  0  0
  3  8  1  0  0  0  0
  4  5  1  0  0  0  0
  5  6  1  0  0  0  0
  6  7  1  0  0  0  0
  6  9  1  0  0  0  0
  7  8  1  0  0  0  0
  9 10  1  0  0  0  0
 10 11  1  0  0  0  0
 11 12  1  0  0  0  0
 12 13  1  0  0  0  0
 12 14  1  0  0  0  0
 14 15  4  0  0  0  0
 14 19  4  0  0  0  0
 15 16  4  0  0  0  0
 16 17  4  0  0  0  0
 17 18  4  0  0  0  0
 17 20  1  0  0  0  0
 18 19  4  0  0  0  0
 20 21  1  0  0  0  0
 20 22  1  0  0  0  0
 20 23  1  0  0  0  0
 24 25  4  0  0  0  0
 24 29  4  0  0  0  0
 25 26  4  0  0  0  0
 26 27  4  0  0  0  0
 27 28  4  0  0  0  0
 28 29  4  0  0  0  0
 30 31  4  0  0  0  0
 30 35  4  0  0  0  0
 31 32  4  0  0  0  0
 32 33  4  0  0  0  0
 33 34  4  0  0  0  0
 34 35  4  0  0  0  0
M  END
>  <Name_Molregno>
TERFENADINE

>  <HISTAMINE H1>
8

$$$$
THIORIDAZINE
  Marvin  02231216192D 0   1.00000     0.00000     0

 25 28  0  0  1  0  0  0  0  0999 V2000
    1.0601   -0.3753    0.0000 S   0  0  0  0  0  0  0  0  0
    1.7746    0.0372    0.0000 C   0  0  0  0  0  0  0  0  0
    1.7746    0.8622    0.0000 C   0  0  0  0  0  0  0  0  0
    1.0601    1.2747    0.0000 N   0  0  0  0  0  0  0  0  0
    0.3456    0.8622    0.0000 C   0  0  0  0  0  0  0  0  0
    0.3456    0.0372    0.0000 C   0  0  0  0  0  0  0  0  0
   -0.3689   -0.3753    0.0000 C   0  0  0  0  0  0  0  0  0
   -1.0833    0.0372    0.0000 C   0  0  0  0  0  0  0  0  0
   -1.0833    0.8622    0.0000 C   0  0  0  0  0  0  0  0  0
   -0.3689    1.2747    0.0000 C   0  0  0  0  0  0  0  0  0
    1.0601    2.0997    0.0000 C   0  0  0  0  0  0  0  0  0
    0.3456    2.5122    0.0000 C   0  0  0  0  0  0  0  0  0
    0.3456    3.3372    0.0000 C   0  0  0  0  0  0  0  0  0
   -0.3689    3.7497    0.0000 N   0  0  0  0  0  0  0  0  0
   -0.3689    4.5747    0.0000 C   0  0  0  0  0  0  0  0  0
    0.3456    4.9872    0.0000 C   0  0  0  0  0  0  0  0  0
    1.0601    4.5747    0.0000 C   0  0  0  0  0  0  0  0  0
    1.0601    3.7497    0.0000 C   0  0  0  0  0  0  0  0  0
   -1.0833    3.3372    0.0000 C   0  0  0  0  0  0  0  0  0
    2.4890    1.2747    0.0000 C   0  0  0  0  0  0  0  0  0
    3.2035    0.8622    0.0000 C   0  0  0  0  0  0  0  0  0
    3.9180    1.2747    0.0000 S   0  0  0  0  0  0  0  0  0
    3.9180    2.0997    0.0000 C   0  0  0  0  0  0  0  0  0
    3.2035    0.0372    0.0000 C   0  0  0  0  0  0  0  0  0
    2.4890   -0.3753    0.0000 C   0  0  0  0  0  0  0  0  0
  1  2  1  0  0  0  0
  1  6  1  0  0  0  0
  2  3  4  0  0  0  0
  2 25  4  0  0  0  0
  3  4  1  0  0  0  0
  3 20  4  0  0  0  0
  4  5  1  0  0  0  0
  4 11  1  0  0  0  0
  5  6  4  0  0  0  0
  5 10  4  0  0  0  0
  6  7  4  0  0  0  0
  7  8  4  0  0  0  0
  8  9  4  0  0  0  0
  9 10  4  0  0  0  0
 11 12  1  0  0  0  0
 12 13  1  0  0  0  0
 13 14  1  0  0  0  0
 13 18  1  0  0  0  0
 14 15  1  0  0  0  0
 14 19  1  0  0  0  0
 15 16  1  0  0  0  0
 16 17  1  0  0  0  0
 17 18  1  0  0  0  0
 20 21  4  0  0  0  0
 21 22  1  0  0  0  0
 21 24  4  0  0  0  0
 22 23  1  0  0  0  0
 24 25  4  0  0  0  0
M  END
>  <Name_Molregno>
THIORIDAZINE

>  <5-HT1A>
6.85

>  <5-HT1B>
6.96

>  <5-HT1D>
6.24

>  <5-HT1E>
6.71

>  <5-HT2A>
7.95

>  <5-HT2C>
7.28

>  <5-HT3>
5

>  <5-HT5>
6.44

>  <5-HT6>
7.24

>  <5-HT7>
7.05

>  <Alpha-1A>
8.6

>  <Alpha-1B>
8.62

>  <Alpha-2A>
6.87

>  <Alpha-2B>
6.47

>  <Alpha-2C>
7.13

>  <Beta-1>
5

>  <Beta-2>
5

>  <DOPAMINE D1>
7.03

>  <DOPAMINE D2>
8.31

>  <DOPAMINE D3>
8.59

>  <DOPAMINE D4>
8.21

>  <DOPAMINE D5>
6.6

>  <Dopamine transporter>
5.77

>  <HISTAMINE H1>
7.79

>  <HISTAMINE H2>
6.87

>  <HISTAMINE H4>
5.62

>  <Muscarinic acetylcholine receptor M1>
8.21

>  <Muscarinic acetylcholine receptor M2>
7.26

>  <Muscarinic acetylcholine receptor M3>
7.6

>  <Muscarinic acetylcholine receptor M4>
7.38

>  <Muscarinic acetylcholine receptor M5>
7.9

>  <Norepinephrine transporter>
6.07

>  <Serotonin transporter>
5.9

$$$$
Tiotidine
  Marvin  02231216192D 0   1.00000     0.00000     0

 20 20  0  0  0  0  0  0  0  0999 V2000
   -4.9104    0.3738    0.0000 S   0  0  0  0  0  0  0  0  0
   -4.1034    0.2023    0.0000 C   0  0  0  0  0  0  0  0  0
   -4.0172   -0.6182    0.0000 C   0  0  0  0  0  0  0  0  0
   -4.7708   -0.9537    0.0000 N   0  0  0  0  0  0  0  0  0
   -5.3229   -0.3406    0.0000 C   0  0  0  0  0  0  0  0  0
   -6.1433   -0.4269    0.0000 N   0  0  0  0  0  0  0  0  0
   -6.6283    0.2406    0.0000 C   0  0  0  0  0  0  0  0  0
   -7.4487    0.1543    0.0000 N   0  0  0  0  0  0  0  0  0
   -6.2927    0.9943    0.0000 N   0  0  0  0  0  0  0  0  0
   -3.3027   -1.0307    0.0000 C   0  0  0  0  0  0  0  0  0
   -2.5882   -0.6182    0.0000 S   0  0  0  0  0  0  0  0  0
   -1.8737   -1.0307    0.0000 C   0  0  0  0  0  0  0  0  0
   -1.1593   -0.6182    0.0000 C   0  0  0  0  0  0  0  0  0
   -0.4448   -1.0307    0.0000 N   0  0  0  0  0  0  0  0  0
    0.2697   -0.6182    0.0000 C   0  0  0  0  0  0  0  0  0
    0.2697    0.2068    0.0000 N   0  0  0  0  0  0  0  0  0
    0.9841    0.6193    0.0000 C   0  0  0  0  0  0  0  0  0
    0.9841   -1.0307    0.0000 N   0  0  0  0  0  0  0  0  0
    1.6986   -0.6182    0.0000 C   0  0  0  0  0  0  0  0  0
    2.4131   -0.2057    0.0000 N   0  0  0  0  0  0  0  0  0
  1  2  4  0  0  0  0
  1  5  4  0  0  0  0
  2  3  4  0  0  0  0
  3  4  4  0  0  0  0
  3 10  1  0  0  0  0
  4  5  4  0  0  0  0
  5  6  1  0  0  0  0
  6  7  2  0  0  0  0
  7  8  1  0  0  0  0
  7  9  1  0  0  0  0
 10 11  1  0  0  0  0
 11 12  1  0  0  0  0
 12 13  1  0  0  0  0
 13 14  1  0  0  0  0
 14 15  1  0  0  0  0
 15 16  2  0  0  0  0
 15 18  1  0  0  0  0
 16 17  1  0  0  0  0
 18 19  1  0  0  0  0
 19 20  3  0  0  0  0
M  END
>  <Name_Molregno>
Tiotidine

>  <HISTAMINE H1>
5

$$$$
TRAZODONE
  Marvin  02231216192D 0   1.00000     0.00000     0

 26 29  0  0  0  0  0  0  0  0999 V2000
    0.6158   -2.7707    0.0000 Cl  0  0  0  0  0  0  0  0  0
    1.4408   -2.7707    0.0000 C   0  0  0  0  0  0  0  0  0
    1.8533   -2.0563    0.0000 C   0  0  0  0  0  0  0  0  0
    2.6783   -2.0563    0.0000 C   0  0  0  0  0  0  0  0  0
    3.0908   -1.3418    0.0000 N   0  0  0  0  0  0  0  0  0
    2.6783   -0.6273    0.0000 C   0  0  0  0  0  0  0  0  0
    3.0908    0.0872    0.0000 C   0  0  0  0  0  0  0  0  0
    3.9158    0.0872    0.0000 N   0  0  0  0  0  0  0  0  0
    4.3283   -0.6273    0.0000 C   0  0  0  0  0  0  0  0  0
    3.9158   -1.3418    0.0000 C   0  0  0  0  0  0  0  0  0
    4.3283    0.8016    0.0000 C   0  0  0  0  0  0  0  0  0
    5.1533    0.8016    0.0000 C   0  0  0  0  0  0  0  0  0
    5.5658    1.5161    0.0000 C   0  0  0  0  0  0  0  0  0
    6.3908    1.5161    0.0000 N   0  0  0  0  0  0  0  0  0
    6.8757    0.8487    0.0000 N   0  0  0  0  0  0  0  0  0
    7.6604    1.1036    0.0000 C   0  0  0  0  0  0  0  0  0
    7.6604    1.9286    0.0000 N   0  0  0  0  0  0  0  0  0
    8.3748    2.3411    0.0000 C   0  0  0  0  0  0  0  0  0
    9.0893    1.9286    0.0000 C   0  0  0  0  0  0  0  0  0
    9.0893    1.1036    0.0000 C   0  0  0  0  0  0  0  0  0
    8.3748    0.6911    0.0000 C   0  0  0  0  0  0  0  0  0
    6.8757    2.1835    0.0000 C   0  0  0  0  0  0  0  0  0
    6.6208    2.9682    0.0000 O   0  0  0  0  0  0  0  0  0
    3.0908   -2.7707    0.0000 C   0  0  0  0  0  0  0  0  0
    2.6783   -3.4852    0.0000 C   0  0  0  0  0  0  0  0  0
    1.8533   -3.4852    0.0000 C   0  0  0  0  0  0  0  0  0
  1  2  1  0  0  0  0
  2  3  4  0  0  0  0
  2 26  4  0  0  0  0
  3  4  4  0  0  0  0
  4  5  1  0  0  0  0
  4 24  4  0  0  0  0
  5  6  1  0  0  0  0
  5 10  1  0  0  0  0
  6  7  1  0  0  0  0
  7  8  1  0  0  0  0
  8  9  1  0  0  0  0
  8 11  1  0  0  0  0
  9 10  1  0  0  0  0
 11 12  1  0  0  0  0
 12 13  1  0  0  0  0
 13 14  1  0  0  0  0
 14 15  1  0  0  0  0
 14 22  1  0  0  0  0
 15 16  2  0  0  0  0
 16 17  1  0  0  0  0
 16 21  1  0  0  0  0
 17 18  1  0  0  0  0
 17 22  1  0  0  0  0
 18 19  2  0  0  0  0
 19 20  1  0  0  0  0
 20 21  2  0  0  0  0
 22 23  2  0  0  0  0
 24 25  4  0  0  0  0
 25 26  4  0  0  0  0
M  END
>  <Name_Molregno>
TRAZODONE

>  <5-HT1A>
6.97

>  <5-HT1B>
5

>  <5-HT1D>
6.97

>  <5-HT1E>
5

>  <5-HT2A>
7.46

>  <5-HT2C>
6.65

>  <5-HT3>
5

>  <5-HT5>
5

>  <5-HT6>
5

>  <5-HT7>
5.75

>  <Alpha-1A>
6.82

>  <Alpha-2A>
6.14

>  <Alpha-2C>
6.81

>  <Beta-1>
5

>  <Beta-2>
5

>  <DOPAMINE D1>
5.43

>  <DOPAMINE D2>
5.42

>  <DOPAMINE D4>
6.15

>  <DOPAMINE D5>
5

>  <Dopamine transporter>
5.07

>  <HISTAMINE H1>
6.31

>  <HISTAMINE H2>
5.48

>  <HISTAMINE H4>
5

>  <Muscarinic acetylcholine receptor M1>
5

>  <Muscarinic acetylcholine receptor M2>
5

>  <Muscarinic acetylcholine receptor M3>
5

>  <Muscarinic acetylcholine receptor M4>
5

>  <Muscarinic acetylcholine receptor M5>
5

>  <Norepinephrine transporter>
5.02

>  <Serotonin transporter>
6.14

$$$$
TRIFLUOPERAZINE
  Marvin  02231216192D 0   1.00000     0.00000     0

 28 31  0  0  0  0  0  0  0  0999 V2000
   -1.0248   -3.8592    0.0000 S   0  0  0  0  0  0  0  0  0
   -0.3103   -3.4467    0.0000 C   0  0  0  0  0  0  0  0  0
   -0.3103   -2.6217    0.0000 C   0  0  0  0  0  0  0  0  0
   -1.0248   -2.2092    0.0000 N   0  0  0  0  0  0  0  0  0
   -1.7393   -2.6217    0.0000 C   0  0  0  0  0  0  0  0  0
   -1.7393   -3.4467    0.0000 C   0  0  0  0  0  0  0  0  0
   -2.4538   -3.8592    0.0000 C   0  0  0  0  0  0  0  0  0
   -3.1682   -3.4467    0.0000 C   0  0  0  0  0  0  0  0  0
   -3.1682   -2.6217    0.0000 C   0  0  0  0  0  0  0  0  0
   -2.4538   -2.2092    0.0000 C   0  0  0  0  0  0  0  0  0
   -1.0248   -1.3842    0.0000 C   0  0  0  0  0  0  0  0  0
   -1.7393   -0.9717    0.0000 C   0  0  0  0  0  0  0  0  0
   -1.7393   -0.1467    0.0000 C   0  0  0  0  0  0  0  0  0
   -2.4538    0.2658    0.0000 N   0  0  0  0  0  0  0  0  0
   -3.1682   -0.1467    0.0000 C   0  0  0  0  0  0  0  0  0
   -3.8827    0.2658    0.0000 C   0  0  0  0  0  0  0  0  0
   -3.8827    1.0908    0.0000 N   0  0  0  0  0  0  0  0  0
   -3.1682    1.5033    0.0000 C   0  0  0  0  0  0  0  0  0
   -2.4538    1.0908    0.0000 C   0  0  0  0  0  0  0  0  0
   -4.5972    1.5033    0.0000 C   0  0  0  0  0  0  0  0  0
    0.4041   -2.2092    0.0000 C   0  0  0  0  0  0  0  0  0
    1.1186   -2.6217    0.0000 C   0  0  0  0  0  0  0  0  0
    1.1186   -3.4467    0.0000 C   0  0  0  0  0  0  0  0  0
    0.4041   -3.8592    0.0000 C   0  0  0  0  0  0  0  0  0
    1.8331   -2.2092    0.0000 C   0  0  0  0  0  0  0  0  0
    2.5475   -1.7967    0.0000 F   0  0  0  0  0  0  0  0  0
    2.2456   -2.9236    0.0000 F   0  0  0  0  0  0  0  0  0
    1.4206   -1.4947    0.0000 F   0  0  0  0  0  0  0  0  0
  1  2  1  0  0  0  0
  1  6  1  0  0  0  0
  2  3  4  0  0  0  0
  2 24  4  0  0  0  0
  3  4  1  0  0  0  0
  3 21  4  0  0  0  0
  4  5  1  0  0  0  0
  4 11  1  0  0  0  0
  5  6  4  0  0  0  0
  5 10  4  0  0  0  0
  6  7  4  0  0  0  0
  7  8  4  0  0  0  0
  8  9  4  0  0  0  0
  9 10  4  0  0  0  0
 11 12  1  0  0  0  0
 12 13  1  0  0  0  0
 13 14  1  0  0  0  0
 14 15  1  0  0  0  0
 14 19  1  0  0  0  0
 15 16  1  0  0  0  0
 16 17  1  0  0  0  0
 17 18  1  0  0  0  0
 17 20  1  0  0  0  0
 18 19  1  0  0  0  0
 21 22  4  0  0  0  0
 22 23  4  0  0  0  0
 22 25  1  0  0  0  0
 23 24  4  0  0  0  0
 25 26  1  0  0  0  0
 25 27  1  0  0  0  0
 25 28  1  0  0  0  0
M  END
>  <Name_Molregno>
TRIFLUOPERAZINE

>  <5-HT1A>
6.02

>  <5-HT2A>
7.78

>  <5-HT2C>
6.42

>  <5-HT6>
6.85

>  <5-HT7>
6.54

>  <Alpha-1A>
7.62

>  <Alpha-2A>
6.18

>  <Alpha-2B>
6.79

>  <Alpha-2C>
6.41

>  <DOPAMINE D2>
8.75

>  <DOPAMINE D3>
9.22

>  <DOPAMINE D4>
7.24

>  <HISTAMINE H1>
7.2

>  <Muscarinic acetylcholine receptor M3>
6

$$$$
Trimipramine
  Marvin  02231216192D 0   1.00000     0.00000     0

 22 24  0  0  1  0  0  0  0  0999 V2000
   -0.5470    1.2413    0.0000 N   0  0  0  0  0  0  0  0  0
    0.1675    0.8288    0.0000 C   0  0  0  0  0  0  0  0  0
    0.8820    1.2413    0.0000 C   0  0  0  0  0  0  0  0  0
    1.5964    0.8288    0.0000 C   0  0  0  0  0  0  0  0  0
    2.3109    1.2413    0.0000 N   0  0  0  0  0  0  0  0  0
    2.2492    2.0640    0.0000 C   0  0  0  0  0  0  0  0  0
    2.8540    2.6251    0.0000 C   0  0  0  0  0  0  0  0  0
    3.6698    2.5022    0.0000 C   0  0  0  0  0  0  0  0  0
    4.0823    1.7877    0.0000 C   0  0  0  0  0  0  0  0  0
    3.7809    1.0197    0.0000 C   0  0  0  0  0  0  0  0  0
    2.9925    0.7766    0.0000 C   0  0  0  0  0  0  0  0  0
    2.8090   -0.0278    0.0000 C   0  0  0  0  0  0  0  0  0
    3.4137   -0.5889    0.0000 C   0  0  0  0  0  0  0  0  0
    4.2021   -0.3457    0.0000 C   0  0  0  0  0  0  0  0  0
    4.3857    0.4586    0.0000 C   0  0  0  0  0  0  0  0  0
    2.6704    3.4294    0.0000 C   0  0  0  0  0  0  0  0  0
    1.8821    3.6726    0.0000 C   0  0  0  0  0  0  0  0  0
    1.2773    3.1115    0.0000 C   0  0  0  0  0  0  0  0  0
    1.4609    2.3072    0.0000 C   0  0  0  0  0  0  0  0  0
    0.8820    2.0663    0.0000 C   0  0  0  0  0  0  0  0  0
   -1.2615    0.8288    0.0000 C   0  0  0  0  0  0  0  0  0
   -0.5470    2.0663    0.0000 C   0  0  0  0  0  0  0  0  0
  1  2  1  0  0  0  0
  1 21  1  0  0  0  0
  1 22  1  0  0  0  0
  2  3  1  0  0  0  0
  3  4  1  0  0  0  0
  3 20  1  0  0  0  0
  4  5  1  0  0  0  0
  5  6  1  0  0  0  0
  5 11  1  0  0  0  0
  6  7  4  0  0  0  0
  6 19  4  0  0  0  0
  7  8  1  0  0  0  0
  7 16  4  0  0  0  0
  8  9  1  0  0  0  0
  9 10  1  0  0  0  0
 10 11  4  0  0  0  0
 10 15  4  0  0  0  0
 11 12  4  0  0  0  0
 12 13  4  0  0  0  0
 13 14  4  0  0  0  0
 14 15  4  0  0  0  0
 16 17  4  0  0  0  0
 17 18  4  0  0  0  0
 18 19  4  0  0  0  0
M  END
>  <Name_Molregno>
Trimipramine

>  <Dopamine transporter>
5.42

>  <HISTAMINE H1>
8.85

>  <Norepinephrine transporter>
5.61

>  <Serotonin transporter>
6.83

$$$$
Triprolidine
  Marvin  02231216192D 0   1.00000     0.00000     0

 21 23  0  0  0  0  0  0  0  0999 V2000
   -1.9718   -1.5167    0.0000 N   0  0  0  0  0  0  0  0  0
   -2.6862   -1.1042    0.0000 C   0  0  0  0  0  0  0  0  0
   -2.6862   -0.2792    0.0000 C   0  0  0  0  0  0  0  0  0
   -1.9718    0.1333    0.0000 C   0  0  0  0  0  0  0  0  0
   -1.2573   -0.2792    0.0000 C   0  0  0  0  0  0  0  0  0
   -1.2573   -1.1042    0.0000 C   0  0  0  0  0  0  0  0  0
   -0.5428   -1.5167    0.0000 C   0  0  0  0  0  0  0  0  0
   -0.5428   -2.3417    0.0000 C   0  0  0  0  0  0  0  0  0
    0.1716   -2.7542    0.0000 C   0  0  0  0  0  0  0  0  0
    0.1716   -3.5792    0.0000 N   0  0  0  0  0  0  0  0  0
    0.8391   -4.0641    0.0000 C   0  0  0  0  0  0  0  0  0
    0.5841   -4.8487    0.0000 C   0  0  0  0  0  0  0  0  0
   -0.2409   -4.8487    0.0000 C   0  0  0  0  0  0  0  0  0
   -0.4958   -4.0641    0.0000 C   0  0  0  0  0  0  0  0  0
    0.1716   -1.1042    0.0000 C   0  0  0  0  0  0  0  0  0
    0.1716   -0.2792    0.0000 C   0  0  0  0  0  0  0  0  0
    0.8861    0.1333    0.0000 C   0  0  0  0  0  0  0  0  0
    1.6006   -0.2792    0.0000 C   0  0  0  0  0  0  0  0  0
    1.6006   -1.1042    0.0000 C   0  0  0  0  0  0  0  0  0
    0.8861   -1.5167    0.0000 C   0  0  0  0  0  0  0  0  0
    2.3151    0.1333    0.0000 C   0  0  0  0  0  0  0  0  0
  1  2  4  0  0  0  0
  1  6  4  0  0  0  0
  2  3  4  0  0  0  0
  3  4  4  0  0  0  0
  4  5  4  0  0  0  0
  5  6  4  0  0  0  0
  6  7  1  0  0  0  0
  7  8  2  0  0  0  0
  7 15  1  0  0  0  0
  8  9  1  0  0  0  0
  9 10  1  0  0  0  0
 10 11  1  0  0  0  0
 10 14  1  0  0  0  0
 11 12  1  0  0  0  0
 12 13  1  0  0  0  0
 13 14  1  0  0  0  0
 15 16  4  0  0  0  0
 15 20  4  0  0  0  0
 16 17  4  0  0  0  0
 17 18  4  0  0  0  0
 18 19  4  0  0  0  0
 18 21  1  0  0  0  0
 19 20  4  0  0  0  0
M  END
>  <Name_Molregno>
Triprolidine

>  <HISTAMINE H1>
8.91

$$$$
VALDECOXIB
  Marvin  02231216192D 0   1.00000     0.00000     0

 22 24  0  0  0  0  0  0  0  0999 V2000
   -2.8104    3.0816    0.0000 S   0  0  0  0  0  0  0  0  0
   -2.8104    3.9066    0.0000 O   0  0  0  0  0  0  0  0  0
   -3.6354    3.0816    0.0000 O   0  0  0  0  0  0  0  0  0
   -1.9854    3.0816    0.0000 N   0  0  0  0  0  0  0  0  0
   -2.8104    2.2566    0.0000 C   0  0  0  0  0  0  0  0  0
   -2.0959    1.8441    0.0000 C   0  0  0  0  0  0  0  0  0
   -2.0959    1.0191    0.0000 C   0  0  0  0  0  0  0  0  0
   -2.8104    0.6066    0.0000 C   0  0  0  0  0  0  0  0  0
   -3.5249    1.0191    0.0000 C   0  0  0  0  0  0  0  0  0
   -3.5249    1.8441    0.0000 C   0  0  0  0  0  0  0  0  0
   -2.8104   -0.2184    0.0000 C   0  0  0  0  0  0  0  0  0
   -2.1430   -0.7033    0.0000 C   0  0  0  0  0  0  0  0  0
   -2.3979   -1.4879    0.0000 N   0  0  0  0  0  0  0  0  0
   -3.2229   -1.4879    0.0000 O   0  0  0  0  0  0  0  0  0
   -3.4778   -0.7033    0.0000 C   0  0  0  0  0  0  0  0  0
   -4.2625   -0.4483    0.0000 C   0  0  0  0  0  0  0  0  0
   -1.3583   -0.4483    0.0000 C   0  0  0  0  0  0  0  0  0
   -1.1868    0.3586    0.0000 C   0  0  0  0  0  0  0  0  0
   -0.4022    0.6136    0.0000 C   0  0  0  0  0  0  0  0  0
    0.2109    0.0615    0.0000 C   0  0  0  0  0  0  0  0  0
    0.0394   -0.7454    0.0000 C   0  0  0  0  0  0  0  0  0
   -0.7452   -1.0004    0.0000 C   0  0  0  0  0  0  0  0  0
  1  2  2  0  0  0  0
  1  3  2  0  0  0  0
  1  4  1  0  0  0  0
  1  5  1  0  0  0  0
  5  6  4  0  0  0  0
  5 10  4  0  0  0  0
  6  7  4  0  0  0  0
  7  8  4  0  0  0  0
  8  9  4  0  0  0  0
  8 11  1  0  0  0  0
  9 10  4  0  0  0  0
 11 12  4  0  0  0  0
 11 15  4  0  0  0  0
 12 13  4  0  0  0  0
 12 17  1  0  0  0  0
 13 14  4  0  0  0  0
 14 15  4  0  0  0  0
 15 16  1  0  0  0  0
 17 18  4  0  0  0  0
 17 22  4  0  0  0  0
 18 19  4  0  0  0  0
 19 20  4  0  0  0  0
 20 21  4  0  0  0  0
 21 22  4  0  0  0  0
M  END
>  <Name_Molregno>
VALDECOXIB

>  <5-HT1A>
5

>  <5-HT1B>
5

>  <5-HT1D>
5

>  <5-HT1E>
5

>  <5-HT2A>
5

>  <5-HT3>
5

>  <5-HT6>
5

>  <5-HT7>
5

>  <Alpha-1A>
5

>  <Alpha-1B>
5

>  <Alpha-2A>
5

>  <Alpha-2B>
5

>  <Alpha-2C>
5

>  <DOPAMINE D1>
5

>  <DOPAMINE D2>
5

>  <DOPAMINE D5>
5

>  <Dopamine transporter>
5

>  <HISTAMINE H1>
5

>  <HISTAMINE H2>
5

>  <Muscarinic acetylcholine receptor M2>
5

>  <Muscarinic acetylcholine receptor M5>
5

>  <Serotonin transporter>
5

$$$$
valeryl-salicylate
  Marvin  02231216192D 0   1.00000     0.00000     0

 16 16  0  0  0  0  0  0  0  0999 V2000
   -0.4431    0.9218    0.0000 O   0  0  0  0  0  0  0  0  0
    0.2714    1.3343    0.0000 C   0  0  0  0  0  0  0  0  0
    0.2714    2.1593    0.0000 O   0  0  0  0  0  0  0  0  0
    0.9859    0.9218    0.0000 C   0  0  0  0  0  0  0  0  0
    1.7003    1.3343    0.0000 C   0  0  0  0  0  0  0  0  0
    2.4148    0.9218    0.0000 C   0  0  0  0  0  0  0  0  0
    2.4148    0.0968    0.0000 C   0  0  0  0  0  0  0  0  0
   -0.4431    0.0968    0.0000 C   0  0  0  0  0  0  0  0  0
    0.2714   -0.3157    0.0000 C   0  0  0  0  0  0  0  0  0
    0.2714   -1.1407    0.0000 C   0  0  0  0  0  0  0  0  0
   -0.4431   -1.5532    0.0000 C   0  0  0  0  0  0  0  0  0
   -1.1576   -1.1407    0.0000 C   0  0  0  0  0  0  0  0  0
   -1.1576   -0.3157    0.0000 C   0  0  0  0  0  0  0  0  0
   -1.8720    0.0968    0.0000 C   0  0  0  0  0  0  0  0  0
   -2.5865   -0.3157    0.0000 O   0  0  0  0  0  0  0  0  0
   -1.8720    0.9218    0.0000 O   0  0  0  0  0  0  0  0  0
  1  2  1  0  0  0  0
  1  8  1  0  0  0  0
  2  3  2  0  0  0  0
  2  4  1  0  0  0  0
  4  5  1  0  0  0  0
  5  6  1  0  0  0  0
  6  7  1  0  0  0  0
  8  9  4  0  0  0  0
  8 13  4  0  0  0  0
  9 10  4  0  0  0  0
 10 11  4  0  0  0  0
 11 12  4  0  0  0  0
 12 13  4  0  0  0  0
 13 14  1  0  0  0  0
 14 15  1  0  0  0  0
 14 16  2  0  0  0  0
M  END
>  <Name_Molregno>
valeryl-salicylate

>  <5-HT1A>
5

>  <5-HT1B>
5

>  <5-HT1D>
5

>  <5-HT1E>
5

>  <5-HT2A>
5

>  <5-HT3>
5

>  <5-HT5>
5

>  <5-HT6>
5

>  <5-HT7>
5

>  <Alpha-1A>
5

>  <Alpha-1B>
5

>  <Alpha-2A>
5

>  <Alpha-2B>
5

>  <Alpha-2C>
5

>  <DOPAMINE D1>
5

>  <DOPAMINE D2>
5

>  <DOPAMINE D4>
5

>  <DOPAMINE D5>
5

>  <HISTAMINE H1>
5

>  <HISTAMINE H2>
5

>  <HISTAMINE H4>
5

>  <Muscarinic acetylcholine receptor M2>
5

>  <Muscarinic acetylcholine receptor M5>
5

$$$$
Venlafaxine
  Marvin  02231216192D 0   1.00000     0.00000     0

 20 21  0  0  1  0  0  0  0  0999 V2000
    2.4113    2.7171    0.0000 O   0  0  0  0  0  0  0  0  0
    1.6968    3.1296    0.0000 C   0  0  0  0  0  0  0  0  0
    2.4113    1.8921    0.0000 C   0  0  0  0  0  0  0  0  0
    3.1257    1.4796    0.0000 C   0  0  0  0  0  0  0  0  0
    3.1257    0.6546    0.0000 C   0  0  0  0  0  0  0  0  0
    2.4113    0.2421    0.0000 C   0  0  0  0  0  0  0  0  0
    1.6968    0.6546    0.0000 C   0  0  0  0  0  0  0  0  0
    1.6968    1.4796    0.0000 C   0  0  0  0  0  0  0  0  0
    2.4113   -0.5829    0.0000 C   0  0  0  0  0  0  0  0  0
    1.6968   -0.9954    0.0000 C   0  0  0  0  0  0  0  0  0
    1.6968   -1.8204    0.0000 N   0  0  0  0  0  0  0  0  0
    2.4113   -2.2329    0.0000 C   0  0  0  0  0  0  0  0  0
    0.9823   -2.2329    0.0000 C   0  0  0  0  0  0  0  0  0
    3.1257   -0.9954    0.0000 C   0  0  0  0  0  0  0  0  0
    2.5954   -1.6274    0.0000 O   0  0  0  0  0  0  0  0  0
    3.4079   -0.2201    0.0000 C   0  0  0  0  0  0  0  0  0
    4.2204   -0.0769    0.0000 C   0  0  0  0  0  0  0  0  0
    4.7507   -0.7089    0.0000 C   0  0  0  0  0  0  0  0  0
    4.4685   -1.4841    0.0000 C   0  0  0  0  0  0  0  0  0
    3.6560   -1.6274    0.0000 C   0  0  0  0  0  0  0  0  0
  1  2  1  0  0  0  0
  1  3  1  0  0  0  0
  3  4  4  0  0  0  0
  3  8  4  0  0  0  0
  4  5  4  0  0  0  0
  5  6  4  0  0  0  0
  6  7  4  0  0  0  0
  6  9  1  0  0  0  0
  7  8  4  0  0  0  0
  9 10  1  0  0  0  0
  9 14  1  0  0  0  0
 10 11  1  0  0  0  0
 11 12  1  0  0  0  0
 11 13  1  0  0  0  0
 14 15  1  0  0  0  0
 14 16  1  0  0  0  0
 14 20  1  0  0  0  0
 16 17  1  0  0  0  0
 17 18  1  0  0  0  0
 18 19  1  0  0  0  0
 19 20  1  0  0  0  0
M  END
>  <Name_Molregno>
Venlafaxine

>  <5-HT1A>
5

>  <5-HT1B>
5

>  <5-HT1D>
5

>  <5-HT1E>
5

>  <5-HT2A>
5.33

>  <5-HT2C>
5.35

>  <5-HT6>
5.55

>  <5-HT7>
5

>  <Alpha-1A>
5

>  <Alpha-2A>
5.5

>  <DOPAMINE D2>
5

>  <DOPAMINE D3>
5

>  <Dopamine transporter>
5.17

>  <HISTAMINE H1>
5

>  <Muscarinic acetylcholine receptor M1>
5.5

>  <Muscarinic acetylcholine receptor M2>
5.5

>  <Muscarinic acetylcholine receptor M3>
5

>  <Muscarinic acetylcholine receptor M4>
5

>  <Muscarinic acetylcholine receptor M5>
5

>  <Norepinephrine transporter>
5.82

>  <Serotonin transporter>
7.43

$$$$
ZIPRASIDONE
  Marvin  02231216192D 0   1.00000     0.00000     0

 28 32  0  0  0  0  0  0  0  0999 V2000
   -5.2868    0.2535    0.0000 Cl  0  0  0  0  0  0  0  0  0
   -4.7347    0.8666    0.0000 C   0  0  0  0  0  0  0  0  0
   -4.9897    1.6513    0.0000 C   0  0  0  0  0  0  0  0  0
   -4.4376    2.2643    0.0000 C   0  0  0  0  0  0  0  0  0
   -4.5239    3.0848    0.0000 N   0  0  0  0  0  0  0  0  0
   -3.7702    3.4204    0.0000 C   0  0  0  0  0  0  0  0  0
   -3.5987    4.2274    0.0000 O   0  0  0  0  0  0  0  0  0
   -3.2182    2.8073    0.0000 C   0  0  0  0  0  0  0  0  0
   -3.6307    2.0928    0.0000 C   0  0  0  0  0  0  0  0  0
   -3.3757    1.3082    0.0000 C   0  0  0  0  0  0  0  0  0
   -3.9278    0.6951    0.0000 C   0  0  0  0  0  0  0  0  0
   -3.6728   -0.0895    0.0000 C   0  0  0  0  0  0  0  0  0
   -2.8658   -0.2610    0.0000 C   0  0  0  0  0  0  0  0  0
   -2.6109   -1.0457    0.0000 N   0  0  0  0  0  0  0  0  0
   -1.8039   -1.2172    0.0000 C   0  0  0  0  0  0  0  0  0
   -1.5490   -2.0018    0.0000 C   0  0  0  0  0  0  0  0  0
   -2.1010   -2.6149    0.0000 N   0  0  0  0  0  0  0  0  0
   -2.9080   -2.4434    0.0000 C   0  0  0  0  0  0  0  0  0
   -3.1629   -1.6588    0.0000 C   0  0  0  0  0  0  0  0  0
   -1.8461   -3.3995    0.0000 C   0  0  0  0  0  0  0  0  0
   -2.3310   -4.0670    0.0000 N   0  0  0  0  0  0  0  0  0
   -1.8461   -4.7344    0.0000 S   0  0  0  0  0  0  0  0  0
   -1.0615   -4.4795    0.0000 C   0  0  0  0  0  0  0  0  0
   -1.0615   -3.6545    0.0000 C   0  0  0  0  0  0  0  0  0
   -0.3470   -3.2420    0.0000 C   0  0  0  0  0  0  0  0  0
    0.3675   -3.6545    0.0000 C   0  0  0  0  0  0  0  0  0
    0.3675   -4.4795    0.0000 C   0  0  0  0  0  0  0  0  0
   -0.3470   -4.8920    0.0000 C   0  0  0  0  0  0  0  0  0
  1  2  1  0  0  0  0
  2  3  4  0  0  0  0
  2 11  4  0  0  0  0
  3  4  4  0  0  0  0
  4  5  1  0  0  0  0
  4  9  4  0  0  0  0
  5  6  1  0  0  0  0
  6  7  2  0  0  0  0
  6  8  1  0  0  0  0
  8  9  1  0  0  0  0
  9 10  4  0  0  0  0
 10 11  4  0  0  0  0
 11 12  1  0  0  0  0
 12 13  1  0  0  0  0
 13 14  1  0  0  0  0
 14 15  1  0  0  0  0
 14 19  1  0  0  0  0
 15 16  1  0  0  0  0
 16 17  1  0  0  0  0
 17 18  1  0  0  0  0
 17 20  1  0  0  0  0
 18 19  1  0  0  0  0
 20 21  4  0  0  0  0
 20 24  4  0  0  0  0
 21 22  4  0  0  0  0
 22 23  4  0  0  0  0
 23 24  4  0  0  0  0
 23 28  4  0  0  0  0
 24 25  4  0  0  0  0
 25 26  4  0  0  0  0
 26 27  4  0  0  0  0
 27 28  4  0  0  0  0
M  END
>  <Name_Molregno>
ZIPRASIDONE

>  <5-HT1A>
8.19

>  <5-HT1B>
8.7

>  <5-HT1D>
8.32

>  <5-HT1E>
6.17

>  <5-HT2A>
9.54

>  <5-HT2C>
8.82

>  <5-HT3>
5.7

>  <5-HT5>
6.54

>  <5-HT6>
7.17

>  <5-HT7>
8.23

>  <Alpha-1A>
7.74

>  <Alpha-1B>
8.05

>  <Alpha-2A>
6.8

>  <Alpha-2B>
7.32

>  <Alpha-2C>
7.15

>  <Beta-1>
5.3

>  <Beta-2>
5.15

>  <DOPAMINE D1>
7.1

>  <DOPAMINE D2>
8.39

>  <DOPAMINE D3>
8.21

>  <DOPAMINE D4>
7.43

>  <DOPAMINE D5>
6.82

>  <Dopamine transporter>
5

>  <HISTAMINE H1>
7.51

>  <HISTAMINE H2>
5.46

>  <HISTAMINE H4>
5

>  <Muscarinic acetylcholine receptor M1>
5.53

>  <Muscarinic acetylcholine receptor M2>
5.26

>  <Muscarinic acetylcholine receptor M3>
5.3

>  <Muscarinic acetylcholine receptor M4>
5.4

>  <Muscarinic acetylcholine receptor M5>
5.4

>  <Norepinephrine transporter>
7.36

>  <Serotonin transporter>
6.92

$$$$
ZOTEPINE
  Marvin  02231216192D 0   1.00000     0.00000     0

 22 24  0  0  0  0  0  0  0  0999 V2000
    1.8575   -4.4413    0.0000 Cl  0  0  0  0  0  0  0  0  0
    1.0691   -4.1981    0.0000 C   0  0  0  0  0  0  0  0  0
    0.8856   -3.3938    0.0000 C   0  0  0  0  0  0  0  0  0
    0.0972   -3.1507    0.0000 C   0  0  0  0  0  0  0  0  0
   -0.5076   -3.7118    0.0000 C   0  0  0  0  0  0  0  0  0
   -1.3233   -3.5888    0.0000 S   0  0  0  0  0  0  0  0  0
   -1.7358   -2.8744    0.0000 C   0  0  0  0  0  0  0  0  0
   -1.4344   -2.1064    0.0000 C   0  0  0  0  0  0  0  0  0
   -0.6461   -1.8632    0.0000 C   0  0  0  0  0  0  0  0  0
    0.0356   -2.3280    0.0000 C   0  0  0  0  0  0  0  0  0
    0.7500   -1.9155    0.0000 O   0  0  0  0  0  0  0  0  0
    1.4645   -2.3280    0.0000 C   0  0  0  0  0  0  0  0  0
    2.1790   -1.9155    0.0000 C   0  0  0  0  0  0  0  0  0
    2.8934   -2.3280    0.0000 N   0  0  0  0  0  0  0  0  0
    3.6079   -1.9155    0.0000 C   0  0  0  0  0  0  0  0  0
    2.8934   -3.1530    0.0000 C   0  0  0  0  0  0  0  0  0
   -1.9488   -1.4614    0.0000 C   0  0  0  0  0  0  0  0  0
   -2.7646   -1.5843    0.0000 C   0  0  0  0  0  0  0  0  0
   -3.0660   -2.3523    0.0000 C   0  0  0  0  0  0  0  0  0
   -2.5516   -2.9973    0.0000 C   0  0  0  0  0  0  0  0  0
   -0.3240   -4.5161    0.0000 C   0  0  0  0  0  0  0  0  0
    0.4644   -4.7593    0.0000 C   0  0  0  0  0  0  0  0  0
  1  2  1  0  0  0  0
  2  3  4  0  0  0  0
  2 22  4  0  0  0  0
  3  4  4  0  0  0  0
  4  5  4  0  0  0  0
  4 10  1  0  0  0  0
  5  6  1  0  0  0  0
  5 21  4  0  0  0  0
  6  7  1  0  0  0  0
  7  8  4  0  0  0  0
  7 20  4  0  0  0  0
  8  9  1  0  0  0  0
  8 17  4  0  0  0  0
  9 10  2  0  0  0  0
 10 11  1  0  0  0  0
 11 12  1  0  0  0  0
 12 13  1  0  0  0  0
 13 14  1  0  0  0  0
 14 15  1  0  0  0  0
 14 16  1  0  0  0  0
 17 18  4  0  0  0  0
 18 19  4  0  0  0  0
 19 20  4  0  0  0  0
 21 22  4  0  0  0  0
M  END
>  <Name_Molregno>
ZOTEPINE

>  <5-HT1A>
6.41

>  <5-HT1B>
7.23

>  <5-HT1D>
7.02

>  <5-HT1E>
6.23

>  <5-HT2A>
8.58

>  <5-HT2C>
8.49

>  <5-HT3>
6.33

>  <5-HT5>
7.54

>  <5-HT6>
8.22

>  <5-HT7>
7.92

>  <Alpha-1A>
8.15

>  <Alpha-1B>
8.3

>  <Alpha-2A>
6.68

>  <Alpha-2B>
8.27

>  <Alpha-2C>
7.02

>  <Beta-1>
5.19

>  <Beta-2>
5.32

>  <DOPAMINE D1>
7.15

>  <DOPAMINE D2>
7.98

>  <DOPAMINE D3>
8.19

>  <DOPAMINE D4>
7.57

>  <DOPAMINE D5>
6.61

>  <Dopamine transporter>
5.44

>  <HISTAMINE H1>
8.64

>  <HISTAMINE H2>
6.3

>  <HISTAMINE H4>
5.7

>  <Muscarinic acetylcholine receptor M1>
6.37

>  <Muscarinic acetylcholine receptor M2>
5.92

>  <Muscarinic acetylcholine receptor M3>
6.07

>  <Muscarinic acetylcholine receptor M4>
6.06

>  <Muscarinic acetylcholine receptor M5>
5.8

>  <Norepinephrine transporter>
6.28

>  <Serotonin transporter>
6.41

$$$$
