2076
  Marvin  02231216192D 0   1.00000     0.00000     0

 15 16  0  0  0  0  0  0  0  0999 V2000
    1.1574   -0.1054    0.0000 O   0  0  0  0  0  0  0  0  0
    1.1574   -0.9304    0.0000 C   0  0  0  0  0  0  0  0  0
    1.8248   -1.4153    0.0000 N   0  0  0  0  0  0  0  0  0
    1.5699   -2.1999    0.0000 C   0  0  0  0  0  0  0  0  0
    0.7449   -2.1999    0.0000 C   0  0  0  0  0  0  0  0  0
    0.4899   -1.4153    0.0000 C   0  0  0  0  0  0  0  0  0
    2.6094   -1.1604    0.0000 C   0  0  0  0  0  0  0  0  0
    2.7809   -0.3534    0.0000 C   0  0  0  0  0  0  0  0  0
    2.9525    0.4536    0.0000 C   0  0  0  0  0  0  0  0  0
    3.1240    1.2605    0.0000 C   0  0  0  0  0  0  0  0  0
    3.9086    1.5155    0.0000 N   0  0  0  0  0  0  0  0  0
    4.1636    2.3001    0.0000 C   0  0  0  0  0  0  0  0  0
    4.9886    2.3001    0.0000 C   0  0  0  0  0  0  0  0  0
    5.2435    1.5155    0.0000 C   0  0  0  0  0  0  0  0  0
    4.5761    1.0306    0.0000 C   0  0  0  0  0  0  0  0  0
  1  2  2  0  0  0  0
  2  3  1  0  0  0  0
  2  6  1  0  0  0  0
  3  4  1  0  0  0  0
  3  7  1  0  0  0  0
  4  5  1  0  0  0  0
  5  6  1  0  0  0  0
  7  8  1  0  0  0  0
  8  9  3  0  0  0  0
  9 10  1  0  0  0  0
 10 11  1  0  0  0  0
 11 12  1  0  0  0  0
 11 15  1  0  0  0  0
 12 13  1  0  0  0  0
 13 14  1  0  0  0  0
 14 15  1  0  0  0  0
M  END
>  <Name_Molregno>
2076

>  <Muscarinic acetylcholine receptor M1>
8.56

>  <Muscarinic acetylcholine receptor M2>
6.77

>  <Muscarinic acetylcholine receptor M4>
7.81

$$$$
2724
  Marvin  02231216192D 0   1.00000     0.00000     0

 16 17  0  0  1  0  0  0  0  0999 V2000
    1.7558    2.8334    0.0000 O   0  0  0  0  0  0  0  0  0
    1.7558    2.0084    0.0000 C   0  0  0  0  0  0  0  0  0
    2.4703    1.5959    0.0000 C   0  0  0  0  0  0  0  0  0
    2.4703    0.7709    0.0000 C   0  0  0  0  0  0  0  0  0
    1.7558    0.3584    0.0000 C   0  0  0  0  0  0  0  0  0
    1.0413    0.7709    0.0000 C   0  0  0  0  0  0  0  0  0
    1.0413    1.5959    0.0000 C   0  0  0  0  0  0  0  0  0
    3.1847    0.3584    0.0000 C   0  0  0  0  0  0  0  0  0
    3.8992    0.7709    0.0000 C   0  0  0  0  0  0  0  0  0
    4.6137    0.3584    0.0000 C   0  0  0  0  0  0  0  0  0
    4.6137   -0.4666    0.0000 C   0  0  0  0  0  0  0  0  0
    3.8992   -0.8791    0.0000 N   0  0  0  0  0  0  0  0  0
    3.1847   -0.4666    0.0000 C   0  0  0  0  0  0  0  0  0
    3.8992   -1.7041    0.0000 C   0  0  0  0  0  0  0  0  0
    3.1847   -2.1166    0.0000 C   0  0  0  0  0  0  0  0  0
    3.1847   -2.9416    0.0000 C   0  0  0  0  0  0  0  0  0
  1  2  1  0  0  0  0
  2  3  4  0  0  0  0
  2  7  4  0  0  0  0
  3  4  4  0  0  0  0
  4  5  4  0  0  0  0
  4  8  1  0  0  0  0
  5  6  4  0  0  0  0
  6  7  4  0  0  0  0
  8  9  1  0  0  0  0
  8 13  1  0  0  0  0
  9 10  1  0  0  0  0
 10 11  1  0  0  0  0
 11 12  1  0  0  0  0
 12 13  1  0  0  0  0
 12 14  1  0  0  0  0
 14 15  1  0  0  0  0
 15 16  1  0  0  0  0
M  END
>  <Name_Molregno>
2724

>  <5-HT1A>
5.73

>  <5-HT1E>
5

>  <5-HT3>
5

>  <5-HT5>
5

>  <5-HT6>
5

>  <Alpha-1A>
5

>  <Alpha-1B>
5

>  <Beta-2>
5

>  <DOPAMINE D1>
5

>  <DOPAMINE D2>
6.47

>  <DOPAMINE D3>
6.93

>  <DOPAMINE D4>
6.29

>  <DOPAMINE D5>
5.31

>  <Dopamine transporter>
5

>  <Muscarinic acetylcholine receptor M1>
5

>  <Muscarinic acetylcholine receptor M2>
5

>  <Muscarinic acetylcholine receptor M3>
5

>  <Muscarinic acetylcholine receptor M4>
5

>  <Muscarinic acetylcholine receptor M5>
5

>  <Norepinephrine transporter>
5.64

>  <Serotonin transporter>
5

$$$$
3950
  Marvin  02231216192D 0   1.00000     0.00000     0

 15 16  0  0  0  0  0  0  0  0999 V2000
    0.1567    0.3567    0.0000 O   0  0  0  0  0  0  0  0  0
   -0.0983    1.1414    0.0000 N   0  0  0  0  0  0  0  0  0
   -0.8829    1.3963    0.0000 C   0  0  0  0  0  0  0  0  0
   -1.4960    0.8443    0.0000 C   0  0  0  0  0  0  0  0  0
   -2.1091    0.2922    0.0000 C   0  0  0  0  0  0  0  0  0
   -2.7222   -0.2598    0.0000 C   0  0  0  0  0  0  0  0  0
   -3.5068   -0.0049    0.0000 N   0  0  0  0  0  0  0  0  0
   -4.1742   -0.4898    0.0000 C   0  0  0  0  0  0  0  0  0
   -4.8417   -0.0049    0.0000 C   0  0  0  0  0  0  0  0  0
   -4.5867    0.7798    0.0000 C   0  0  0  0  0  0  0  0  0
   -3.7617    0.7798    0.0000 C   0  0  0  0  0  0  0  0  0
    0.5692    1.6263    0.0000 C   0  0  0  0  0  0  0  0  0
    0.5692    2.4513    0.0000 O   0  0  0  0  0  0  0  0  0
    1.2366    1.1414    0.0000 C   0  0  0  0  0  0  0  0  0
    0.9817    0.3567    0.0000 C   0  0  0  0  0  0  0  0  0
  1  2  1  0  0  0  0
  1 15  1  0  0  0  0
  2  3  1  0  0  0  0
  2 12  1  0  0  0  0
  3  4  1  0  0  0  0
  4  5  3  0  0  0  0
  5  6  1  0  0  0  0
  6  7  1  0  0  0  0
  7  8  1  0  0  0  0
  7 11  1  0  0  0  0
  8  9  1  0  0  0  0
  9 10  1  0  0  0  0
 10 11  1  0  0  0  0
 12 13  2  0  0  0  0
 12 14  1  0  0  0  0
 14 15  1  0  0  0  0
M  END
>  <Name_Molregno>
3950

>  <Muscarinic acetylcholine receptor M1>
6.04

>  <Muscarinic acetylcholine receptor M2>
7.15

>  <Muscarinic acetylcholine receptor M3>
6.41

>  <Muscarinic acetylcholine receptor M4>
6.65

>  <Muscarinic acetylcholine receptor M5>
6.29

$$$$
6772
  Marvin  02231216192D 0   1.00000     0.00000     0

 26 29  0  0  0  0  0  0  0  0999 V2000
    2.0119    3.8511    0.0000 O   0  0  0  0  0  0  0  0  0
    2.3698    3.1078    0.0000 C   0  0  0  0  0  0  0  0  0
    3.1948    3.1078    0.0000 N   0  0  0  0  0  0  0  0  0
    3.7092    2.4628    0.0000 C   0  0  0  0  0  0  0  0  0
    4.4976    2.7060    0.0000 C   0  0  0  0  0  0  0  0  0
    5.1023    2.1448    0.0000 C   0  0  0  0  0  0  0  0  0
    4.9188    1.3405    0.0000 C   0  0  0  0  0  0  0  0  0
    4.1304    1.0974    0.0000 N   0  0  0  0  0  0  0  0  0
    3.5256    1.6585    0.0000 C   0  0  0  0  0  0  0  0  0
    2.7823    1.3005    0.0000 N   0  0  0  0  0  0  0  0  0
    2.0390    1.6585    0.0000 C   0  0  0  0  0  0  0  0  0
    1.8555    2.4628    0.0000 C   0  0  0  0  0  0  0  0  0
    1.0671    2.7060    0.0000 C   0  0  0  0  0  0  0  0  0
    0.4623    2.1448    0.0000 C   0  0  0  0  0  0  0  0  0
    0.6459    1.3405    0.0000 C   0  0  0  0  0  0  0  0  0
    1.4343    1.0974    0.0000 C   0  0  0  0  0  0  0  0  0
    2.7823    0.4755    0.0000 C   0  0  0  0  0  0  0  0  0
    2.0679    0.0630    0.0000 O   0  0  0  0  0  0  0  0  0
    3.4968    0.0630    0.0000 C   0  0  0  0  0  0  0  0  0
    3.4968   -0.7620    0.0000 N   0  0  0  0  0  0  0  0  0
    4.2113   -1.1745    0.0000 C   0  0  0  0  0  0  0  0  0
    4.2113   -1.9995    0.0000 C   0  0  0  0  0  0  0  0  0
    3.4968   -2.4120    0.0000 N   0  0  0  0  0  0  0  0  0
    2.7823   -1.9995    0.0000 C   0  0  0  0  0  0  0  0  0
    2.7823   -1.1745    0.0000 C   0  0  0  0  0  0  0  0  0
    3.4968   -3.2370    0.0000 C   0  0  0  0  0  0  0  0  0
  1  2  2  0  0  0  0
  2  3  1  0  0  0  0
  2 12  1  0  0  0  0
  3  4  1  0  0  0  0
  4  5  4  0  0  0  0
  4  9  4  0  0  0  0
  5  6  4  0  0  0  0
  6  7  4  0  0  0  0
  7  8  4  0  0  0  0
  8  9  4  0  0  0  0
  9 10  1  0  0  0  0
 10 11  1  0  0  0  0
 10 17  1  0  0  0  0
 11 12  4  0  0  0  0
 11 16  4  0  0  0  0
 12 13  4  0  0  0  0
 13 14  4  0  0  0  0
 14 15  4  0  0  0  0
 15 16  4  0  0  0  0
 17 18  2  0  0  0  0
 17 19  1  0  0  0  0
 19 20  1  0  0  0  0
 20 21  1  0  0  0  0
 20 25  1  0  0  0  0
 21 22  1  0  0  0  0
 22 23  1  0  0  0  0
 23 24  1  0  0  0  0
 23 26  1  0  0  0  0
 24 25  1  0  0  0  0
M  END
>  <Name_Molregno>
6772

>  <Muscarinic acetylcholine receptor M1>
7.84

>  <Muscarinic acetylcholine receptor M2>
6.25

>  <Muscarinic acetylcholine receptor M3>
6.8

>  <Muscarinic acetylcholine receptor M4>
7.42

>  <Muscarinic acetylcholine receptor M5>
6.77

$$$$
8328
  Marvin  02231216192D 0   1.00000     0.00000     0

 14 14  0  0  0  0  0  0  0  0999 V2000
    1.5110    2.7542    0.0000 O   0  0  0  0  0  0  0  0  0
    1.5110    1.9292    0.0000 C   0  0  0  0  0  0  0  0  0
    2.2255    1.5167    0.0000 N   0  0  0  0  0  0  0  0  0
    2.2255    0.6917    0.0000 C   0  0  0  0  0  0  0  0  0
    2.9400    0.2792    0.0000 C   0  0  0  0  0  0  0  0  0
    3.6544   -0.1333    0.0000 C   0  0  0  0  0  0  0  0  0
    4.3689   -0.5458    0.0000 C   0  0  0  0  0  0  0  0  0
    4.3689   -1.3708    0.0000 N   0  0  0  0  0  0  0  0  0
    5.0364   -1.8557    0.0000 C   0  0  0  0  0  0  0  0  0
    4.7814   -2.6404    0.0000 C   0  0  0  0  0  0  0  0  0
    3.9564   -2.6404    0.0000 C   0  0  0  0  0  0  0  0  0
    3.7015   -1.8557    0.0000 C   0  0  0  0  0  0  0  0  0
    2.9400    1.9292    0.0000 C   0  0  0  0  0  0  0  0  0
    0.7966    1.5167    0.0000 C   0  0  0  0  0  0  0  0  0
  1  2  2  0  0  0  0
  2  3  1  0  0  0  0
  2 14  1  0  0  0  0
  3  4  1  0  0  0  0
  3 13  1  0  0  0  0
  4  5  1  0  0  0  0
  5  6  3  0  0  0  0
  6  7  1  0  0  0  0
  7  8  1  0  0  0  0
  8  9  1  0  0  0  0
  8 12  1  0  0  0  0
  9 10  1  0  0  0  0
 10 11  1  0  0  0  0
 11 12  1  0  0  0  0
M  END
>  <Name_Molregno>
8328

>  <Muscarinic acetylcholine receptor M1>
5.3

>  <Muscarinic acetylcholine receptor M2>
5.3

>  <Muscarinic acetylcholine receptor M3>
5.3

>  <Muscarinic acetylcholine receptor M4>
5.3

>  <Muscarinic acetylcholine receptor M5>
5.3

$$$$
11015
  Marvin  02231216192D 0   1.00000     0.00000     0

 12 12  0  0  1  0  0  0  0  0999 V2000
    1.2204   -0.8384    0.0000 O   0  0  0  0  0  0  0  0  0
    0.9655   -1.6231    0.0000 C   0  0  0  0  0  0  0  0  0
    1.4504   -2.2905    0.0000 C   0  0  0  0  0  0  0  0  0
    0.1405   -1.6231    0.0000 C   0  0  0  0  0  0  0  0  0
   -0.3444   -2.2905    0.0000 O   0  0  0  0  0  0  0  0  0
   -0.1144   -0.8384    0.0000 C   0  0  0  0  0  0  0  0  0
    0.5530   -0.3535    0.0000 C   0  0  0  0  0  0  0  0  0
    0.5530    0.4715    0.0000 C   0  0  0  0  0  0  0  0  0
   -0.1615    0.8840    0.0000 N   0  3  0  0  0  0  0  0  0
   -0.8759    1.2965    0.0000 C   0  0  0  0  0  0  0  0  0
    0.2510    1.5985    0.0000 C   0  0  0  0  0  0  0  0  0
   -0.5740    0.1695    0.0000 C   0  0  0  0  0  0  0  0  0
  1  2  1  0  0  0  0
  1  7  1  0  0  0  0
  2  3  1  0  0  0  0
  2  4  1  0  0  0  0
  4  5  1  0  0  0  0
  4  6  1  0  0  0  0
  6  7  1  0  0  0  0
  7  8  1  0  0  0  0
  8  9  1  0  0  0  0
  9 10  1  0  0  0  0
  9 11  1  0  0  0  0
  9 12  1  0  0  0  0
M  CHG  1   9   1
M  END
>  <Name_Molregno>
11015

>  <Muscarinic acetylcholine receptor M1>
5.99

>  <Muscarinic acetylcholine receptor M2>
7.04

>  <Muscarinic acetylcholine receptor M4>
6.74

$$$$
16396
  Marvin  02231216192D 0   1.00000     0.00000     0

 37 41  0  0  0  0  0  0  0  0999 V2000
    9.4469    5.2044    0.0000 O   0  0  0  0  0  0  0  0  0
    9.1920    4.4198    0.0000 N   0  0  0  0  0  0  0  0  0
    8.3670    4.4198    0.0000 C   0  0  0  0  0  0  0  0  0
    8.1121    5.2044    0.0000 N   0  0  0  0  0  0  0  0  0
    8.7795    5.6894    0.0000 C   0  0  0  0  0  0  0  0  0
    8.7795    6.5144    0.0000 C   0  0  0  0  0  0  0  0  0
    7.8821    3.7524    0.0000 C   0  0  0  0  0  0  0  0  0
    8.2176    2.9987    0.0000 C   0  0  0  0  0  0  0  0  0
    7.7327    2.3313    0.0000 C   0  0  0  0  0  0  0  0  0
    8.0683    1.5776    0.0000 C   0  0  0  0  0  0  0  0  0
    6.9122    2.4175    0.0000 C   0  0  0  0  0  0  0  0  0
    6.5767    3.1712    0.0000 C   0  0  0  0  0  0  0  0  0
    7.0616    3.8386    0.0000 C   0  0  0  0  0  0  0  0  0
    6.4273    1.7501    0.0000 C   0  0  0  0  0  0  0  0  0
    6.7629    0.9964    0.0000 C   0  0  0  0  0  0  0  0  0
    6.2779    0.3289    0.0000 C   0  0  0  0  0  0  0  0  0
    5.4575    0.4152    0.0000 C   0  0  0  0  0  0  0  0  0
    5.1219    1.1689    0.0000 C   0  0  0  0  0  0  0  0  0
    5.6068    1.8363    0.0000 C   0  0  0  0  0  0  0  0  0
    4.9725   -0.2523    0.0000 C   0  0  0  0  0  0  0  0  0
    4.1521   -0.1660    0.0000 O   0  0  0  0  0  0  0  0  0
    5.3081   -1.0059    0.0000 N   0  0  0  0  0  0  0  0  0
    4.8232   -1.6734    0.0000 C   0  0  0  0  0  0  0  0  0
    5.1587   -2.4270    0.0000 C   0  0  0  0  0  0  0  0  0
    4.6738   -3.0945    0.0000 C   0  0  0  0  0  0  0  0  0
    5.0094   -3.8482    0.0000 N   0  0  0  0  0  0  0  0  0
    5.8298   -3.9344    0.0000 C   0  0  0  0  0  0  0  0  0
    6.1654   -4.6881    0.0000 C   0  0  0  0  0  0  0  0  0
    5.6805   -5.3555    0.0000 N   0  0  0  0  0  0  0  0  0
    4.8600   -5.2693    0.0000 C   0  0  0  0  0  0  0  0  0
    4.5244   -4.5156    0.0000 C   0  0  0  0  0  0  0  0  0
    6.0160   -6.1092    0.0000 C   0  0  0  0  0  0  0  0  0
    3.8533   -3.0082    0.0000 C   0  0  0  0  0  0  0  0  0
    3.3684   -3.6757    0.0000 O   0  0  0  0  0  0  0  0  0
    2.5479   -3.5894    0.0000 C   0  0  0  0  0  0  0  0  0
    3.5178   -2.2546    0.0000 C   0  0  0  0  0  0  0  0  0
    4.0027   -1.5871    0.0000 C   0  0  0  0  0  0  0  0  0
  1  2  4  0  0  0  0
  1  5  4  0  0  0  0
  2  3  4  0  0  0  0
  3  4  4  0  0  0  0
  3  7  1  0  0  0  0
  4  5  4  0  0  0  0
  5  6  1  0  0  0  0
  7  8  4  0  0  0  0
  7 13  4  0  0  0  0
  8  9  4  0  0  0  0
  9 10  1  0  0  0  0
  9 11  4  0  0  0  0
 11 12  4  0  0  0  0
 11 14  1  0  0  0  0
 12 13  4  0  0  0  0
 14 15  4  0  0  0  0
 14 19  4  0  0  0  0
 15 16  4  0  0  0  0
 16 17  4  0  0  0  0
 17 18  4  0  0  0  0
 17 20  1  0  0  0  0
 18 19  4  0  0  0  0
 20 21  2  0  0  0  0
 20 22  1  0  0  0  0
 22 23  1  0  0  0  0
 23 24  4  0  0  0  0
 23 37  4  0  0  0  0
 24 25  4  0  0  0  0
 25 26  1  0  0  0  0
 25 33  4  0  0  0  0
 26 27  1  0  0  0  0
 26 31  1  0  0  0  0
 27 28  1  0  0  0  0
 28 29  1  0  0  0  0
 29 30  1  0  0  0  0
 29 32  1  0  0  0  0
 30 31  1  0  0  0  0
 33 34  1  0  0  0  0
 33 36  4  0  0  0  0
 34 35  1  0  0  0  0
 36 37  4  0  0  0  0
M  END
>  <Name_Molregno>
16396

>  <5-HT1A>
7.14

>  <5-HT1B>
9.05

>  <5-HT1D>
8.78

>  <5-HT1E>
5.4

>  <5-HT2A>
7.59

>  <5-HT2C>
6.99

>  <5-HT5>
5.2

>  <5-HT6>
5.27

>  <5-HT7>
5.4

>  <DOPAMINE D1>
5

>  <DOPAMINE D2>
5

>  <DOPAMINE D3>
5

>  <DOPAMINE D4>
5

>  <DOPAMINE D5>
5

>  <HISTAMINE H1>
5

>  <Muscarinic acetylcholine receptor M1>
5

>  <Muscarinic acetylcholine receptor M2>
5

>  <Muscarinic acetylcholine receptor M3>
5

>  <Muscarinic acetylcholine receptor M4>
5

>  <Muscarinic acetylcholine receptor M5>
5

$$$$
26653
  Marvin  02231216192D 0   1.00000     0.00000     0

 19 20  0  0  0  0  0  0  0  0999 V2000
   -1.2820   -3.8402    0.0000 S   0  0  0  0  0  0  0  0  0
   -1.6945   -3.1258    0.0000 N   0  0  0  0  0  0  0  0  0
   -1.1424   -2.5127    0.0000 C   0  0  0  0  0  0  0  0  0
   -1.3140   -1.7057    0.0000 C   0  0  0  0  0  0  0  0  0
   -2.0986   -1.4508    0.0000 C   0  0  0  0  0  0  0  0  0
   -2.2701   -0.6438    0.0000 N   0  0  0  0  0  0  0  0  0
   -1.6570   -0.0918    0.0000 C   0  0  0  0  0  0  0  0  0
   -0.8724   -0.3467    0.0000 C   0  0  0  0  0  0  0  0  0
   -0.7009   -1.1537    0.0000 C   0  0  0  0  0  0  0  0  0
   -3.0547   -0.3889    0.0000 C   0  0  0  0  0  0  0  0  0
   -0.3888   -2.8482    0.0000 C   0  0  0  0  0  0  0  0  0
    0.3257   -2.4357    0.0000 O   0  0  0  0  0  0  0  0  0
    1.0402   -2.8482    0.0000 C   0  0  0  0  0  0  0  0  0
    1.7547   -2.4357    0.0000 C   0  0  0  0  0  0  0  0  0
    2.4691   -2.8482    0.0000 C   0  0  0  0  0  0  0  0  0
    3.1836   -2.4357    0.0000 C   0  0  0  0  0  0  0  0  0
    3.8981   -2.8482    0.0000 C   0  0  0  0  0  0  0  0  0
    4.6125   -2.4357    0.0000 C   0  0  0  0  0  0  0  0  0
   -0.4750   -3.6687    0.0000 N   0  0  0  0  0  0  0  0  0
  1  2  4  0  0  0  0
  1 19  4  0  0  0  0
  2  3  4  0  0  0  0
  3  4  1  0  0  0  0
  3 11  4  0  0  0  0
  4  5  1  0  0  0  0
  4  9  2  0  0  0  0
  5  6  1  0  0  0  0
  6  7  1  0  0  0  0
  6 10  1  0  0  0  0
  7  8  1  0  0  0  0
  8  9  1  0  0  0  0
 11 12  1  0  0  0  0
 11 19  4  0  0  0  0
 12 13  1  0  0  0  0
 13 14  1  0  0  0  0
 14 15  1  0  0  0  0
 15 16  1  0  0  0  0
 16 17  1  0  0  0  0
 17 18  1  0  0  0  0
M  END
>  <Name_Molregno>
26653

>  <5-HT1A>
7.2

>  <5-HT1B>
7.3

>  <5-HT1D>
8.2

>  <5-HT1E>
5.6

>  <5-HT2A>
6.9

>  <5-HT2C>
7.4

>  <5-HT6>
5.9

>  <5-HT7>
6.9

>  <Alpha-1B>
5.8

>  <DOPAMINE D2>
6

>  <DOPAMINE D3>
6.4

>  <Muscarinic acetylcholine receptor M1>
6.52

>  <Muscarinic acetylcholine receptor M2>
7.1

>  <Muscarinic acetylcholine receptor M3>
7.25

>  <Muscarinic acetylcholine receptor M4>
7.55

>  <Muscarinic acetylcholine receptor M5>
6.32

$$$$
27937
  Marvin  02231216192D 0   1.00000     0.00000     0

 25 28  0  0  1  0  0  0  0  0999 V2000
   -0.5526   -0.1680    0.0000 O   0  0  0  0  0  0  0  0  0
   -1.0375   -0.8354    0.0000 C   0  0  0  0  0  0  0  0  0
   -1.8221   -0.5805    0.0000 C   0  0  0  0  0  0  0  0  0
   -1.8221    0.2445    0.0000 C   0  0  0  0  0  0  0  0  0
   -2.5366    0.6570    0.0000 C   0  0  0  0  0  0  0  0  0
   -3.2511    0.2445    0.0000 C   0  0  0  0  0  0  0  0  0
   -3.2511   -0.5805    0.0000 C   0  0  0  0  0  0  0  0  0
   -3.9655   -0.9930    0.0000 C   0  0  0  0  0  0  0  0  0
   -4.6800   -0.5805    0.0000 C   0  0  0  0  0  0  0  0  0
   -4.6800    0.2445    0.0000 C   0  0  0  0  0  0  0  0  0
   -3.9655    0.6570    0.0000 C   0  0  0  0  0  0  0  0  0
   -2.5366   -0.9930    0.0000 C   0  0  0  0  0  0  0  0  0
   -2.5366   -1.8180    0.0000 C   0  0  0  0  0  0  0  0  0
   -1.8221   -2.2305    0.0000 C   0  0  0  0  0  0  0  0  0
   -1.8221   -3.0555    0.0000 C   0  0  0  0  0  0  0  0  0
   -1.1077   -3.4680    0.0000 N   0  0  0  0  0  0  0  0  0
   -0.3932   -3.0555    0.0000 C   0  0  0  0  0  0  0  0  0
   -1.1077   -4.2930    0.0000 C   0  0  0  0  0  0  0  0  0
   -1.8221   -4.7055    0.0000 C   0  0  0  0  0  0  0  0  0
   -2.5366   -4.2930    0.0000 C   0  0  0  0  0  0  0  0  0
   -2.5366   -3.4680    0.0000 C   0  0  0  0  0  0  0  0  0
   -0.3932   -4.7055    0.0000 C   0  0  0  0  0  0  0  0  0
   -1.0375    0.4994    0.0000 C   0  0  0  0  0  0  0  0  0
   -0.7826    1.2841    0.0000 O   0  0  0  0  0  0  0  0  0
   -0.7826   -1.6201    0.0000 C   0  0  0  0  0  0  0  0  0
  1  2  1  0  0  0  0
  1 23  1  0  0  0  0
  2  3  1  0  0  0  0
  2 25  1  0  0  0  0
  3  4  1  0  0  0  0
  3 12  1  0  0  0  0
  4  5  1  0  0  0  0
  4 23  1  0  0  0  0
  5  6  1  0  0  0  0
  6  7  1  0  0  0  0
  6 11  1  0  0  0  0
  7  8  1  0  0  0  0
  7 12  1  0  0  0  0
  8  9  1  0  0  0  0
  9 10  1  0  0  0  0
 10 11  1  0  0  0  0
 12 13  1  0  0  0  0
 13 14  2  0  0  0  0
 14 15  1  0  0  0  0
 15 16  1  0  0  0  0
 15 21  1  0  0  0  0
 16 17  1  0  0  0  0
 16 18  1  0  0  0  0
 18 19  1  0  0  0  0
 18 22  1  0  0  0  0
 19 20  1  0  0  0  0
 20 21  1  0  0  0  0
 23 24  2  0  0  0  0
M  END
>  <Name_Molregno>
27937

>  <Muscarinic acetylcholine receptor M1>
6.48

>  <Muscarinic acetylcholine receptor M2>
7.24

>  <Muscarinic acetylcholine receptor M3>
6.43

>  <Muscarinic acetylcholine receptor M4>
7.1

>  <Muscarinic acetylcholine receptor M5>
5.83

$$$$
42430
  Marvin  02231216192D 0   1.00000     0.00000     0

 42 43  0  0  0  0  0  0  0  0999 V2000
  -20.1507   -1.0408    0.0000 O   0  0  0  0  0  0  0  0  0
  -20.8652   -1.4533    0.0000 C   0  0  0  0  0  0  0  0  0
  -20.1507   -0.2158    0.0000 C   0  0  0  0  0  0  0  0  0
  -20.8652    0.1967    0.0000 C   0  0  0  0  0  0  0  0  0
  -20.8652    1.0217    0.0000 C   0  0  0  0  0  0  0  0  0
  -20.1507    1.4342    0.0000 C   0  0  0  0  0  0  0  0  0
  -19.4362    1.0217    0.0000 C   0  0  0  0  0  0  0  0  0
  -19.4362    0.1967    0.0000 C   0  0  0  0  0  0  0  0  0
  -18.7217   -0.2158    0.0000 C   0  0  0  0  0  0  0  0  0
  -18.0073    0.1967    0.0000 N   0  0  0  0  0  0  0  0  0
  -17.2928   -0.2158    0.0000 C   0  0  0  0  0  0  0  0  0
  -16.5783    0.1967    0.0000 C   0  0  0  0  0  0  0  0  0
  -15.8639   -0.2158    0.0000 C   0  0  0  0  0  0  0  0  0
  -15.1494    0.1967    0.0000 C   0  0  0  0  0  0  0  0  0
  -14.4349   -0.2158    0.0000 C   0  0  0  0  0  0  0  0  0
  -13.7205    0.1967    0.0000 C   0  0  0  0  0  0  0  0  0
  -13.0060   -0.2158    0.0000 N   0  0  0  0  0  0  0  0  0
  -12.2915    0.1967    0.0000 C   0  0  0  0  0  0  0  0  0
  -11.5770   -0.2158    0.0000 C   0  0  0  0  0  0  0  0  0
  -10.8626    0.1967    0.0000 C   0  0  0  0  0  0  0  0  0
  -10.1481   -0.2158    0.0000 C   0  0  0  0  0  0  0  0  0
   -9.4336    0.1967    0.0000 C   0  0  0  0  0  0  0  0  0
   -8.7192   -0.2158    0.0000 C   0  0  0  0  0  0  0  0  0
   -8.0047    0.1967    0.0000 C   0  0  0  0  0  0  0  0  0
   -7.2902   -0.2158    0.0000 C   0  0  0  0  0  0  0  0  0
   -6.5757    0.1967    0.0000 N   0  0  0  0  0  0  0  0  0
   -5.8613   -0.2158    0.0000 C   0  0  0  0  0  0  0  0  0
   -5.1468    0.1967    0.0000 C   0  0  0  0  0  0  0  0  0
   -4.4323   -0.2158    0.0000 C   0  0  0  0  0  0  0  0  0
   -3.7179    0.1967    0.0000 C   0  0  0  0  0  0  0  0  0
   -3.0034   -0.2158    0.0000 C   0  0  0  0  0  0  0  0  0
   -2.2889    0.1967    0.0000 C   0  0  0  0  0  0  0  0  0
   -1.5744   -0.2158    0.0000 N   0  0  0  0  0  0  0  0  0
   -0.8600    0.1967    0.0000 C   0  0  0  0  0  0  0  0  0
   -0.1455   -0.2158    0.0000 C   0  0  0  0  0  0  0  0  0
    0.5690    0.1967    0.0000 C   0  0  0  0  0  0  0  0  0
    1.2834   -0.2158    0.0000 C   0  0  0  0  0  0  0  0  0
    1.2834   -1.0408    0.0000 C   0  0  0  0  0  0  0  0  0
    0.5690   -1.4533    0.0000 C   0  0  0  0  0  0  0  0  0
   -0.1455   -1.0408    0.0000 C   0  0  0  0  0  0  0  0  0
   -0.8600   -1.4533    0.0000 O   0  0  0  0  0  0  0  0  0
   -0.8600   -2.2783    0.0000 C   0  0  0  0  0  0  0  0  0
  1  2  1  0  0  0  0
  1  3  1  0  0  0  0
  3  4  4  0  0  0  0
  3  8  4  0  0  0  0
  4  5  4  0  0  0  0
  5  6  4  0  0  0  0
  6  7  4  0  0  0  0
  7  8  4  0  0  0  0
  8  9  1  0  0  0  0
  9 10  1  0  0  0  0
 10 11  1  0  0  0  0
 11 12  1  0  0  0  0
 12 13  1  0  0  0  0
 13 14  1  0  0  0  0
 14 15  1  0  0  0  0
 15 16  1  0  0  0  0
 16 17  1  0  0  0  0
 17 18  1  0  0  0  0
 18 19  1  0  0  0  0
 19 20  1  0  0  0  0
 20 21  1  0  0  0  0
 21 22  1  0  0  0  0
 22 23  1  0  0  0  0
 23 24  1  0  0  0  0
 24 25  1  0  0  0  0
 25 26  1  0  0  0  0
 26 27  1  0  0  0  0
 27 28  1  0  0  0  0
 28 29  1  0  0  0  0
 29 30  1  0  0  0  0
 30 31  1  0  0  0  0
 31 32  1  0  0  0  0
 32 33  1  0  0  0  0
 33 34  1  0  0  0  0
 34 35  1  0  0  0  0
 35 36  4  0  0  0  0
 35 40  4  0  0  0  0
 36 37  4  0  0  0  0
 37 38  4  0  0  0  0
 38 39  4  0  0  0  0
 39 40  4  0  0  0  0
 40 41  1  0  0  0  0
 41 42  1  0  0  0  0
M  END
>  <Name_Molregno>
42430

>  <Muscarinic acetylcholine receptor M1>
7.05

>  <Muscarinic acetylcholine receptor M2>
7.89

>  <Muscarinic acetylcholine receptor M3>
6.63

>  <Muscarinic acetylcholine receptor M4>
7.35

>  <Muscarinic acetylcholine receptor M5>
6.72

$$$$
59765
  Marvin  02231216192D 0   1.00000     0.00000     0

 19 19  0  0  0  0  0  0  0  0999 V2000
    1.2440    2.3601    0.0000 Cl  0  0  0  0  0  0  0  0  0
    1.2440    1.5351    0.0000 C   0  0  0  0  0  0  0  0  0
    1.9584    1.1226    0.0000 C   0  0  0  0  0  0  0  0  0
    1.9584    0.2976    0.0000 C   0  0  0  0  0  0  0  0  0
    2.6729   -0.1149    0.0000 N   0  0  0  0  0  0  0  0  0
    3.3874    0.2976    0.0000 C   0  0  0  0  0  0  0  0  0
    4.1018   -0.1149    0.0000 O   0  0  0  0  0  0  0  0  0
    4.8163    0.2976    0.0000 C   0  0  0  0  0  0  0  0  0
    5.5308   -0.1149    0.0000 C   0  0  0  0  0  0  0  0  0
    6.2453   -0.5274    0.0000 C   0  0  0  0  0  0  0  0  0
    6.9597   -0.9399    0.0000 C   0  0  0  0  0  0  0  0  0
    7.6742   -0.5274    0.0000 N   0  3  0  0  0  0  0  0  0
    8.3887   -0.1149    0.0000 C   0  0  0  0  0  0  0  0  0
    8.0867   -1.2418    0.0000 C   0  0  0  0  0  0  0  0  0
    7.2617    0.1871    0.0000 C   0  0  0  0  0  0  0  0  0
    3.3874    1.1226    0.0000 O   0  0  0  0  0  0  0  0  0
    1.2440   -0.1149    0.0000 C   0  0  0  0  0  0  0  0  0
    0.5295    0.2976    0.0000 C   0  0  0  0  0  0  0  0  0
    0.5295    1.1226    0.0000 C   0  0  0  0  0  0  0  0  0
  1  2  1  0  0  0  0
  2  3  4  0  0  0  0
  2 19  4  0  0  0  0
  3  4  4  0  0  0  0
  4  5  1  0  0  0  0
  4 17  4  0  0  0  0
  5  6  1  0  0  0  0
  6  7  1  0  0  0  0
  6 16  2  0  0  0  0
  7  8  1  0  0  0  0
  8  9  1  0  0  0  0
  9 10  3  0  0  0  0
 10 11  1  0  0  0  0
 11 12  1  0  0  0  0
 12 13  1  0  0  0  0
 12 14  1  0  0  0  0
 12 15  1  0  0  0  0
 17 18  4  0  0  0  0
 18 19  4  0  0  0  0
M  CHG  1  12   1
M  END
>  <Name_Molregno>
59765

>  <Muscarinic acetylcholine receptor M1>
6.5

>  <Muscarinic acetylcholine receptor M2>
5.49

>  <Muscarinic acetylcholine receptor M3>
5.62

>  <Muscarinic acetylcholine receptor M4>
5.04

>  <Muscarinic acetylcholine receptor M5>
5.42

$$$$
66613
  Marvin  02231216192D 0   1.00000     0.00000     0

 14 15  0  0  1  0  0  0  0  0999 V2000
   -3.5937   -0.7341    0.0000 O   0  0  0  0  0  0  0  0  0
   -2.8091   -0.9890    0.0000 C   0  0  0  0  0  0  0  0  0
   -2.0946   -0.5765    0.0000 C   0  0  0  0  0  0  0  0  0
   -1.3801   -0.9890    0.0000 C   0  0  0  0  0  0  0  0  0
   -1.3801   -1.8140    0.0000 C   0  0  0  0  0  0  0  0  0
   -2.0946   -2.2265    0.0000 C   0  0  0  0  0  0  0  0  0
   -2.8091   -1.8140    0.0000 C   0  0  0  0  0  0  0  0  0
   -3.5937   -2.0690    0.0000 O   0  0  0  0  0  0  0  0  0
   -4.0786   -1.4015    0.0000 C   0  0  0  0  0  0  0  0  0
   -0.6657   -0.5765    0.0000 C   0  0  0  0  0  0  0  0  0
   -0.6657    0.2485    0.0000 C   0  0  0  0  0  0  0  0  0
    0.0488    0.6610    0.0000 N   0  0  0  0  0  0  0  0  0
    0.0488    1.4860    0.0000 C   0  0  0  0  0  0  0  0  0
   -1.3801    0.6610    0.0000 C   0  0  0  0  0  0  0  0  0
  1  2  1  0  0  0  0
  1  9  1  0  0  0  0
  2  3  4  0  0  0  0
  2  7  4  0  0  0  0
  3  4  4  0  0  0  0
  4  5  4  0  0  0  0
  4 10  1  0  0  0  0
  5  6  4  0  0  0  0
  6  7  4  0  0  0  0
  7  8  1  0  0  0  0
  8  9  1  0  0  0  0
 10 11  1  0  0  0  0
 11 12  1  0  0  0  0
 11 14  1  0  0  0  0
 12 13  1  0  0  0  0
M  END
>  <Name_Molregno>
66613

>  <5-HT1A>
5

>  <5-HT1B>
5

>  <5-HT1D>
5

>  <5-HT1E>
5

>  <5-HT2A>
5

>  <5-HT3>
5

>  <5-HT5>
5

>  <5-HT6>
5

>  <5-HT7>
5

>  <Alpha-1A>
5

>  <Alpha-1B>
5

>  <Alpha-2A>
5.6

>  <Alpha-2B>
5.75

>  <Alpha-2C>
5.95

>  <Beta-1>
5

>  <Beta-2>
5

>  <DOPAMINE D1>
5

>  <DOPAMINE D2>
5

>  <DOPAMINE D3>
5

>  <DOPAMINE D4>
5

>  <DOPAMINE D5>
5

>  <Dopamine transporter>
5

>  <HISTAMINE H1>
5.67

>  <HISTAMINE H2>
5

>  <Muscarinic acetylcholine receptor M1>
5

>  <Muscarinic acetylcholine receptor M2>
5

>  <Muscarinic acetylcholine receptor M3>
5.73

>  <Muscarinic acetylcholine receptor M4>
5.08

>  <Muscarinic acetylcholine receptor M5>
5.2

>  <Norepinephrine transporter>
5

>  <Serotonin transporter>
7.24

$$$$
69438
  Marvin  02231216192D 0   1.00000     0.00000     0

 22 24  0  0  1  0  0  0  0  0999 V2000
    0.6924    0.4523    0.0000 S   0  0  0  0  0  0  0  0  0
    0.4375   -0.3323    0.0000 C   0  0  0  0  0  0  0  0  0
   -0.3875   -0.3323    0.0000 C   0  0  0  0  0  0  0  0  0
   -0.6425    0.4523    0.0000 O   0  0  0  0  0  0  0  0  0
    0.0250    0.9372    0.0000 C   0  0  0  0  0  0  0  0  0
    0.6323    1.4956    0.0000 C   0  0  0  0  0  0  0  0  0
    0.4523    2.3008    0.0000 C   0  0  0  0  0  0  0  0  0
    1.0596    2.8592    0.0000 C   0  0  0  0  0  0  0  0  0
    1.8468    2.6125    0.0000 C   0  0  0  0  0  0  0  0  0
    2.0268    1.8073    0.0000 C   0  0  0  0  0  0  0  0  0
    1.4195    1.2489    0.0000 C   0  0  0  0  0  0  0  0  0
   -0.3800    1.6560    0.0000 C   0  0  0  0  0  0  0  0  0
   -1.2050    1.6646    0.0000 C   0  0  0  0  0  0  0  0  0
   -1.6100    2.3834    0.0000 C   0  0  0  0  0  0  0  0  0
   -1.1900    3.0935    0.0000 C   0  0  0  0  0  0  0  0  0
   -0.3651    3.0848    0.0000 C   0  0  0  0  0  0  0  0  0
    0.0399    2.3661    0.0000 C   0  0  0  0  0  0  0  0  0
   -0.8724   -0.9998    0.0000 C   0  0  0  0  0  0  0  0  0
   -0.5369   -1.7534    0.0000 N   0  3  0  0  0  0  0  0  0
   -0.2013   -2.5071    0.0000 C   0  0  0  0  0  0  0  0  0
   -1.2906   -2.0890    0.0000 C   0  0  0  0  0  0  0  0  0
    0.2168   -1.4179    0.0000 C   0  0  0  0  0  0  0  0  0
  1  2  1  0  0  0  0
  1  5  1  0  0  0  0
  2  3  1  0  0  0  0
  3  4  1  0  0  0  0
  3 18  1  0  0  0  0
  4  5  1  0  0  0  0
  5  6  1  0  0  0  0
  5 12  1  0  0  0  0
  6  7  1  0  0  0  0
  6 11  1  0  0  0  0
  7  8  1  0  0  0  0
  8  9  1  0  0  0  0
  9 10  1  0  0  0  0
 10 11  1  0  0  0  0
 12 13  4  0  0  0  0
 12 17  4  0  0  0  0
 13 14  4  0  0  0  0
 14 15  4  0  0  0  0
 15 16  4  0  0  0  0
 16 17  4  0  0  0  0
 18 19  1  0  0  0  0
 19 20  1  0  0  0  0
 19 21  1  0  0  0  0
 19 22  1  0  0  0  0
M  CHG  1  19   1
M  END
>  <Name_Molregno>
69438

>  <Muscarinic acetylcholine receptor M1>
8.96

>  <Muscarinic acetylcholine receptor M2>
8.12

>  <Muscarinic acetylcholine receptor M3>
8.75

>  <Muscarinic acetylcholine receptor M4>
8.21

>  <Muscarinic acetylcholine receptor M5>
8.55

$$$$
82738
  Marvin  02231216192D 0   1.00000     0.00000     0

 23 26  0  0  1  0  0  0  0  0999 V2000
    0.0943   -0.2888    0.0000 O   0  0  0  0  0  0  0  0  0
   -0.7127   -0.4603    0.0000 C   0  0  0  0  0  0  0  0  0
   -0.9676   -1.2450    0.0000 C   0  0  0  0  0  0  0  0  0
   -1.7746   -1.4165    0.0000 O   0  0  0  0  0  0  0  0  0
   -0.4156   -1.8581    0.0000 N   0  0  0  0  0  0  0  0  0
   -0.6705   -2.6427    0.0000 C   0  0  0  0  0  0  0  0  0
   -0.1700   -3.3633    0.0000 C   0  0  0  0  0  0  0  0  0
   -0.3533   -4.1522    0.0000 C   0  0  0  0  0  0  0  0  0
   -1.0724   -4.4494    0.0000 C   0  0  0  0  0  0  0  0  0
   -0.8767   -3.6479    0.0000 N   0  0  0  0  0  0  0  0  0
   -1.3910   -2.8938    0.0000 C   0  0  0  0  0  0  0  0  0
    0.1693   -3.5844    0.0000 C   0  0  0  0  0  0  0  0  0
    0.7165   -3.2272    0.0000 C   0  0  0  0  0  0  0  0  0
   -1.2647    0.1528    0.0000 C   0  0  0  0  0  0  0  0  0
   -1.0932    0.9597    0.0000 C   0  0  0  0  0  0  0  0  0
   -1.8077    1.3722    0.0000 C   0  0  0  0  0  0  0  0  0
   -2.4207    0.8202    0.0000 N   0  0  0  0  0  0  0  0  0
   -2.0852    0.0665    0.0000 C   0  0  0  0  0  0  0  0  0
   -3.2277    0.9917    0.0000 C   0  0  0  0  0  0  0  0  0
   -1.8077    2.1972    0.0000 C   0  0  0  0  0  0  0  0  0
   -1.0932    2.6097    0.0000 C   0  0  0  0  0  0  0  0  0
   -0.3787    2.1972    0.0000 C   0  0  0  0  0  0  0  0  0
   -0.3787    1.3722    0.0000 C   0  0  0  0  0  0  0  0  0
  1  2  2  0  0  0  0
  2  3  1  0  0  0  0
  2 14  1  0  0  0  0
  3  4  2  0  0  0  0
  3  5  1  0  0  0  0
  5  6  1  0  0  0  0
  6  7  1  0  0  0  0
  6 11  1  0  0  0  0
  7  8  1  0  0  0  0
  7 13  1  0  0  0  0
  8  9  1  0  0  0  0
  9 10  1  0  0  0  0
 10 11  1  0  0  0  0
 10 12  1  0  0  0  0
 12 13  1  0  0  0  0
 14 15  4  0  0  0  0
 14 18  4  0  0  0  0
 15 16  4  0  0  0  0
 15 23  4  0  0  0  0
 16 17  4  0  0  0  0
 16 20  4  0  0  0  0
 17 18  4  0  0  0  0
 17 19  1  0  0  0  0
 20 21  4  0  0  0  0
 21 22  4  0  0  0  0
 22 23  4  0  0  0  0
M  END
>  <Name_Molregno>
82738

>  <5-HT1D>
4.2

>  <5-HT2A>
4.75

>  <5-HT2C>
4.85

>  <Alpha-1B>
4.9

>  <Alpha-2A>
4.8

>  <Alpha-2B>
5.05

>  <DOPAMINE D1>
4

>  <DOPAMINE D2>
4

>  <Muscarinic acetylcholine receptor M1>
4.8

>  <Muscarinic acetylcholine receptor M2>
4.3

>  <Muscarinic acetylcholine receptor M3>
4.4

>  <Muscarinic acetylcholine receptor M4>
4.6

$$$$
87504
  Marvin  02231216192D 0   1.00000     0.00000     0

 25 28  0  0  1  0  0  0  0  0999 V2000
   -0.5255    0.7259    0.0000 O   0  0  0  0  0  0  0  0  0
   -1.0104    0.0585    0.0000 C   0  0  0  0  0  0  0  0  0
   -1.7950    0.3134    0.0000 C   0  0  0  0  0  0  0  0  0
   -1.7950    1.1384    0.0000 C   0  0  0  0  0  0  0  0  0
   -2.5095    1.5509    0.0000 C   0  0  0  0  0  0  0  0  0
   -3.2239    1.1384    0.0000 C   0  0  0  0  0  0  0  0  0
   -3.2239    0.3134    0.0000 C   0  0  0  0  0  0  0  0  0
   -3.9384   -0.0991    0.0000 C   0  0  0  0  0  0  0  0  0
   -4.6529    0.3134    0.0000 C   0  0  0  0  0  0  0  0  0
   -4.6529    1.1384    0.0000 C   0  0  0  0  0  0  0  0  0
   -3.9384    1.5509    0.0000 C   0  0  0  0  0  0  0  0  0
   -2.5095   -0.0991    0.0000 C   0  0  0  0  0  0  0  0  0
   -2.5095   -0.9241    0.0000 C   0  0  0  0  0  0  0  0  0
   -2.5095   -1.7491    0.0000 C   0  0  0  0  0  0  0  0  0
   -2.5095   -2.5741    0.0000 C   0  0  0  0  0  0  0  0  0
   -1.7950   -2.9866    0.0000 N   0  0  0  0  0  0  0  0  0
   -1.0805   -2.5741    0.0000 C   0  0  0  0  0  0  0  0  0
   -1.7950   -3.8116    0.0000 C   0  0  0  0  0  0  0  0  0
   -2.5095   -4.2241    0.0000 C   0  0  0  0  0  0  0  0  0
   -3.2239   -3.8116    0.0000 C   0  0  0  0  0  0  0  0  0
   -3.2239   -2.9866    0.0000 C   0  0  0  0  0  0  0  0  0
   -1.0805   -4.2241    0.0000 C   0  0  0  0  0  0  0  0  0
   -1.0104    1.3934    0.0000 C   0  0  0  0  0  0  0  0  0
   -0.7554    2.1780    0.0000 O   0  0  0  0  0  0  0  0  0
   -0.7554   -0.7261    0.0000 C   0  0  0  0  0  0  0  0  0
  1  2  1  0  0  0  0
  1 23  1  0  0  0  0
  2  3  1  0  0  0  0
  2 25  1  0  0  0  0
  3  4  1  0  0  0  0
  3 12  1  0  0  0  0
  4  5  1  0  0  0  0
  4 23  1  0  0  0  0
  5  6  1  0  0  0  0
  6  7  1  0  0  0  0
  6 11  1  0  0  0  0
  7  8  1  0  0  0  0
  7 12  1  0  0  0  0
  8  9  1  0  0  0  0
  9 10  1  0  0  0  0
 10 11  1  0  0  0  0
 12 13  1  0  0  0  0
 13 14  3  0  0  0  0
 14 15  1  0  0  0  0
 15 16  1  0  0  0  0
 15 21  1  0  0  0  0
 16 17  1  0  0  0  0
 16 18  1  0  0  0  0
 18 19  1  0  0  0  0
 18 22  1  0  0  0  0
 19 20  1  0  0  0  0
 20 21  1  0  0  0  0
 23 24  2  0  0  0  0
M  END
>  <Name_Molregno>
87504

>  <Muscarinic acetylcholine receptor M1>
5.42

>  <Muscarinic acetylcholine receptor M2>
6.13

>  <Muscarinic acetylcholine receptor M3>
5.25

>  <Muscarinic acetylcholine receptor M4>
5.84

$$$$
88815
  Marvin  02231216192D 0   1.00000     0.00000     0

 14 15  0  0  1  0  0  0  0  0999 V2000
   -3.2072   -0.1654    0.0000 S   0  0  0  0  0  0  0  0  0
   -2.4226   -0.4204    0.0000 C   0  0  0  0  0  0  0  0  0
   -1.7081   -0.0079    0.0000 C   0  0  0  0  0  0  0  0  0
   -0.9937   -0.4204    0.0000 C   0  0  0  0  0  0  0  0  0
   -0.2792   -0.0079    0.0000 N   0  0  0  0  0  0  0  0  0
    0.4353   -0.4204    0.0000 C   0  0  0  0  0  0  0  0  0
    1.1498   -0.0079    0.0000 C   0  0  0  0  0  0  0  0  0
    1.8642   -0.4204    0.0000 C   0  0  0  0  0  0  0  0  0
   -0.9937   -1.2454    0.0000 C   0  0  0  0  0  0  0  0  0
   -1.7081   -1.6579    0.0000 C   0  0  0  0  0  0  0  0  0
   -2.4226   -1.2454    0.0000 C   0  0  0  0  0  0  0  0  0
   -3.2072   -1.5003    0.0000 N   0  0  0  0  0  0  0  0  0
   -3.6921   -0.8329    0.0000 C   0  0  0  0  0  0  0  0  0
   -4.5171   -0.8329    0.0000 N   0  0  0  0  0  0  0  0  0
  1  2  4  0  0  0  0
  1 13  4  0  0  0  0
  2  3  1  0  0  0  0
  2 11  4  0  0  0  0
  3  4  1  0  0  0  0
  4  5  1  0  0  0  0
  4  9  1  0  0  0  0
  5  6  1  0  0  0  0
  6  7  1  0  0  0  0
  7  8  1  0  0  0  0
  9 10  1  0  0  0  0
 10 11  1  0  0  0  0
 11 12  4  0  0  0  0
 12 13  4  0  0  0  0
 13 14  1  0  0  0  0
M  END
>  <Name_Molregno>
88815

>  <5-HT1A>
5.67

>  <5-HT1B>
5.26

>  <5-HT1D>
5.39

>  <5-HT1E>
5

>  <5-HT2A>
5

>  <5-HT2C>
5

>  <5-HT3>
5

>  <5-HT5>
5

>  <5-HT6>
5

>  <5-HT7>
5.93

>  <Alpha-1A>
5

>  <Alpha-1B>
5

>  <Alpha-2A>
6.44

>  <Alpha-2B>
6.68

>  <Alpha-2C>
6.14

>  <Beta-1>
5

>  <Beta-2>
5

>  <DOPAMINE D1>
5

>  <DOPAMINE D2>
6.55

>  <DOPAMINE D3>
8.51

>  <DOPAMINE D4>
7.4

>  <DOPAMINE D5>
5

>  <Dopamine transporter>
5

>  <HISTAMINE H1>
5

>  <HISTAMINE H2>
5.57

>  <HISTAMINE H4>
5

>  <Muscarinic acetylcholine receptor M1>
5

>  <Muscarinic acetylcholine receptor M2>
5

>  <Muscarinic acetylcholine receptor M3>
5

>  <Muscarinic acetylcholine receptor M4>
5

>  <Muscarinic acetylcholine receptor M5>
5

>  <Norepinephrine transporter>
5

>  <Serotonin transporter>
5

$$$$
94171
  Marvin  02231216192D 0   1.00000     0.00000     0

 29 33  0  0  1  0  0  0  0  0999 V2000
   -0.1485    0.0040    0.0000 O   0  0  0  0  0  0  0  0  0
    0.2748   -0.7041    0.0000 C   0  0  0  0  0  0  0  0  0
   -0.1268   -1.4248    0.0000 N   0  0  0  0  0  0  0  0  0
    0.2965   -2.1329    0.0000 C   0  0  0  0  0  0  0  0  0
    1.1214   -2.1204    0.0000 C   0  0  0  0  0  0  0  0  0
    1.5230   -1.3997    0.0000 C   0  0  0  0  0  0  0  0  0
    2.3479   -1.3872    0.0000 C   0  0  0  0  0  0  0  0  0
    2.7495   -0.6665    0.0000 C   0  0  0  0  0  0  0  0  0
    3.5744   -0.6540    0.0000 O   0  0  0  0  0  0  0  0  0
    3.9760    0.0667    0.0000 C   0  0  0  0  0  0  0  0  0
    2.3262    0.0416    0.0000 C   0  0  0  0  0  0  0  0  0
    1.5013    0.0291    0.0000 C   0  0  0  0  0  0  0  0  0
    1.0997   -0.6916    0.0000 C   0  0  0  0  0  0  0  0  0
   -0.9517   -1.4374    0.0000 C   0  0  0  0  0  0  0  0  0
   -1.3750   -0.7292    0.0000 C   0  0  0  0  0  0  0  0  0
   -2.1999   -0.7418    0.0000 C   0  0  0  0  0  0  0  0  0
   -2.6233   -0.0337    0.0000 C   0  0  0  0  0  0  0  0  0
   -3.4275   -0.2175    0.0000 N   0  0  0  0  0  0  0  0  0
   -3.5013   -1.0391    0.0000 C   0  0  0  0  0  0  0  0  0
   -4.2094   -1.4625    0.0000 C   0  0  0  0  0  0  0  0  0
   -2.7426   -1.3632    0.0000 C   0  0  0  0  0  0  0  0  0
   -2.5588   -2.1675    0.0000 C   0  0  0  0  0  0  0  0  0
   -1.7704   -2.4105    0.0000 O   0  0  0  0  0  0  0  0  0
   -1.5866   -3.2147    0.0000 C   0  0  0  0  0  0  0  0  0
   -0.7982   -3.4577    0.0000 C   0  0  0  0  0  0  0  0  0
   -3.1634   -2.7288    0.0000 O   0  0  0  0  0  0  0  0  0
   -2.2217    0.6870    0.0000 C   0  0  0  0  0  0  0  0  0
   -1.3968    0.6995    0.0000 C   0  0  0  0  0  0  0  0  0
   -0.9735   -0.0086    0.0000 C   0  0  0  0  0  0  0  0  0
  1  2  1  0  0  0  0
  1 29  1  0  0  0  0
  2  3  1  0  0  0  0
  2 13  1  0  0  0  0
  3  4  1  0  0  0  0
  3 14  1  0  0  0  0
  4  5  1  0  0  0  0
  5  6  1  0  0  0  0
  6  7  4  0  0  0  0
  6 13  4  0  0  0  0
  7  8  4  0  0  0  0
  8  9  1  0  0  0  0
  8 11  4  0  0  0  0
  9 10  1  0  0  0  0
 11 12  4  0  0  0  0
 12 13  4  0  0  0  0
 14 15  1  0  0  0  0
 15 16  4  0  0  0  0
 15 29  4  0  0  0  0
 16 17  4  0  0  0  0
 16 21  4  0  0  0  0
 17 18  4  0  0  0  0
 17 27  4  0  0  0  0
 18 19  4  0  0  0  0
 19 20  1  0  0  0  0
 19 21  4  0  0  0  0
 21 22  1  0  0  0  0
 22 23  1  0  0  0  0
 22 26  2  0  0  0  0
 23 24  1  0  0  0  0
 24 25  1  0  0  0  0
 27 28  4  0  0  0  0
 28 29  4  0  0  0  0
M  STY  1   1 DAT
M  SAL   1  1  18
M  SDT   1 MRV_IMPLICIT_H                                        
M  SDD   1     0.0000    0.0000    DR    ALL  0       0  
M  SED   1 IMPL_H1
M  END
>  <Name_Molregno>
94171

>  <Muscarinic acetylcholine receptor M1>
5.64

>  <Muscarinic acetylcholine receptor M2>
5.96

>  <Muscarinic acetylcholine receptor M3>
6.14

>  <Muscarinic acetylcholine receptor M4>
8.19

>  <Muscarinic acetylcholine receptor M5>
5.74

$$$$
98821
  Marvin  02231216192D 0   1.00000     0.00000     0

 12 13  0  0  1  0  0  0  0  0999 V2000
    1.1390   -0.8307    0.0000 O   0  0  0  0  0  0  0  0  0
    1.3039   -0.0224    0.0000 C   0  0  0  0  0  0  0  0  0
    2.1288   -0.0156    0.0000 O   0  0  0  0  0  0  0  0  0
    0.6862    0.5246    0.0000 C   0  0  0  0  0  0  0  0  0
    1.0067    1.2332    0.0000 C   0  0  0  0  0  0  0  0  0
    0.4461    1.6731    0.0000 N   0  0  0  0  0  0  0  0  0
    0.5858    0.8600    0.0000 C   0  0  0  0  0  0  0  0  0
    0.0659    0.1477    0.0000 C   0  0  0  0  0  0  0  0  0
    1.5575    0.8600    0.0000 C   0  0  0  0  0  0  0  0  0
    2.0737    0.4313    0.0000 C   0  0  0  0  0  0  0  0  0
    1.9355    1.2487    0.0000 C   0  0  0  0  0  0  0  0  0
    1.7566   -1.3777    0.0000 C   0  0  0  0  0  0  0  0  0
  1  2  1  0  0  0  0
  1 12  1  0  0  0  0
  2  3  2  0  0  0  0
  2  4  1  0  0  0  0
  4  5  1  0  0  0  0
  4  8  1  0  0  0  0
  5  6  1  0  0  0  0
  5 11  1  0  0  0  0
  6  7  1  0  0  0  0
  7  8  1  0  0  0  0
  7  9  1  0  0  0  0
  9 10  1  0  0  0  0
 10 11  1  0  0  0  0
M  END
>  <Name_Molregno>
98821

>  <Muscarinic acetylcholine receptor M2>
6.32

>  <Muscarinic acetylcholine receptor M4>
5.1

$$$$
99028
  Marvin  02231216192D 0   1.00000     0.00000     0

 12 13  0  0  1  0  0  0  0  0999 V2000
   -0.0468   -0.0495    0.0000 O   0  0  0  0  0  0  0  0  0
   -0.2117   -0.8579    0.0000 C   0  0  0  0  0  0  0  0  0
   -0.9942   -1.1193    0.0000 O   0  0  0  0  0  0  0  0  0
    0.4059   -1.4049    0.0000 C   0  0  0  0  0  0  0  0  0
   -0.6645    0.4974    0.0000 C   0  0  0  0  0  0  0  0  0
   -0.3440    1.2060    0.0000 C   0  0  0  0  0  0  0  0  0
   -0.9046    1.6459    0.0000 N   0  0  0  0  0  0  0  0  0
   -0.7649    0.8328    0.0000 C   0  0  0  0  0  0  0  0  0
   -1.2848    0.1205    0.0000 C   0  0  0  0  0  0  0  0  0
    0.2068    0.8328    0.0000 C   0  0  0  0  0  0  0  0  0
    0.7230    0.4041    0.0000 C   0  0  0  0  0  0  0  0  0
    0.5848    1.2215    0.0000 C   0  0  0  0  0  0  0  0  0
  1  2  1  0  0  0  0
  1  5  1  0  0  0  0
  2  3  2  0  0  0  0
  2  4  1  0  0  0  0
  5  6  1  0  0  0  0
  5  9  1  0  0  0  0
  6  7  1  0  0  0  0
  6 12  1  0  0  0  0
  7  8  1  0  0  0  0
  8  9  1  0  0  0  0
  8 10  1  0  0  0  0
 10 11  1  0  0  0  0
 11 12  1  0  0  0  0
M  END
>  <Name_Molregno>
99028

>  <Muscarinic acetylcholine receptor M1>
6.51

>  <Muscarinic acetylcholine receptor M2>
8.48

>  <Muscarinic acetylcholine receptor M3>
6.17

>  <Muscarinic acetylcholine receptor M4>
7.79

$$$$
99081
  Marvin  02231216192D 0   1.00000     0.00000     0

 13 14  0  0  1  0  0  0  0  0999 V2000
   -0.2409   -0.3566    0.0000 O   0  0  0  0  0  0  0  0  0
   -0.4058   -1.1649    0.0000 C   0  0  0  0  0  0  0  0  0
   -1.1883   -1.4264    0.0000 O   0  0  0  0  0  0  0  0  0
    0.2118   -1.7119    0.0000 C   0  0  0  0  0  0  0  0  0
   -0.8586    0.1904    0.0000 C   0  0  0  0  0  0  0  0  0
   -0.5381    0.8990    0.0000 C   0  0  0  0  0  0  0  0  0
   -1.0987    1.3389    0.0000 N   0  0  0  0  0  0  0  0  0
   -0.9590    0.5258    0.0000 C   0  0  0  0  0  0  0  0  0
   -1.4789   -0.1865    0.0000 C   0  0  0  0  0  0  0  0  0
    0.0127    0.5258    0.0000 C   0  0  0  0  0  0  0  0  0
    0.5289    0.0971    0.0000 C   0  0  0  0  0  0  0  0  0
    0.3907    0.9145    0.0000 C   0  0  0  0  0  0  0  0  0
   -1.5213    2.0474    0.0000 C   0  0  0  0  0  0  0  0  0
  1  2  1  0  0  0  0
  1  5  1  0  0  0  0
  2  3  2  0  0  0  0
  2  4  1  0  0  0  0
  5  6  1  0  0  0  0
  5  9  1  0  0  0  0
  6  7  1  0  0  0  0
  6 12  1  0  0  0  0
  7  8  1  0  0  0  0
  7 13  1  0  0  0  0
  8  9  1  0  0  0  0
  8 10  1  0  0  0  0
 10 11  1  0  0  0  0
 11 12  1  0  0  0  0
M  END
>  <Name_Molregno>
99081

>  <Muscarinic acetylcholine receptor M1>
4.59

>  <Muscarinic acetylcholine receptor M2>
5.52

>  <Muscarinic acetylcholine receptor M3>
4.82

>  <Muscarinic acetylcholine receptor M4>
5.4

$$$$
106293
  Marvin  02231216192D 0   1.00000     0.00000     0

 25 28  0  0  0  0  0  0  0  0999 V2000
    1.9951    2.8235    0.0000 O   0  0  0  0  0  0  0  0  0
    2.3531    2.0802    0.0000 C   0  0  0  0  0  0  0  0  0
    3.1781    2.0802    0.0000 N   0  0  0  0  0  0  0  0  0
    3.6925    1.4352    0.0000 C   0  0  0  0  0  0  0  0  0
    4.4808    1.6783    0.0000 C   0  0  0  0  0  0  0  0  0
    5.0856    1.1172    0.0000 C   0  0  0  0  0  0  0  0  0
    4.9020    0.3129    0.0000 C   0  0  0  0  0  0  0  0  0
    4.1137    0.0697    0.0000 N   0  0  0  0  0  0  0  0  0
    3.5089    0.6308    0.0000 C   0  0  0  0  0  0  0  0  0
    2.7656    0.2729    0.0000 N   0  0  0  0  0  0  0  0  0
    2.0223    0.6308    0.0000 C   0  0  0  0  0  0  0  0  0
    1.8387    1.4352    0.0000 C   0  0  0  0  0  0  0  0  0
    1.0504    1.6783    0.0000 C   0  0  0  0  0  0  0  0  0
    0.4456    1.1172    0.0000 C   0  0  0  0  0  0  0  0  0
    0.6292    0.3129    0.0000 C   0  0  0  0  0  0  0  0  0
    1.4175    0.0697    0.0000 C   0  0  0  0  0  0  0  0  0
    2.7656   -0.5521    0.0000 C   0  0  0  0  0  0  0  0  0
    2.0511   -0.9646    0.0000 O   0  0  0  0  0  0  0  0  0
    3.4801   -0.9646    0.0000 C   0  0  0  0  0  0  0  0  0
    3.4801   -1.7896    0.0000 N   0  0  0  0  0  0  0  0  0
    4.1945   -2.2021    0.0000 C   0  0  0  0  0  0  0  0  0
    4.1945   -3.0271    0.0000 C   0  0  0  0  0  0  0  0  0
    3.4801   -3.4396    0.0000 N   0  0  0  0  0  0  0  0  0
    2.7656   -3.0271    0.0000 C   0  0  0  0  0  0  0  0  0
    2.7656   -2.2021    0.0000 C   0  0  0  0  0  0  0  0  0
  1  2  2  0  0  0  0
  2  3  1  0  0  0  0
  2 12  1  0  0  0  0
  3  4  1  0  0  0  0
  4  5  4  0  0  0  0
  4  9  4  0  0  0  0
  5  6  4  0  0  0  0
  6  7  4  0  0  0  0
  7  8  4  0  0  0  0
  8  9  4  0  0  0  0
  9 10  1  0  0  0  0
 10 11  1  0  0  0  0
 10 17  1  0  0  0  0
 11 12  4  0  0  0  0
 11 16  4  0  0  0  0
 12 13  4  0  0  0  0
 13 14  4  0  0  0  0
 14 15  4  0  0  0  0
 15 16  4  0  0  0  0
 17 18  2  0  0  0  0
 17 19  1  0  0  0  0
 19 20  1  0  0  0  0
 20 21  1  0  0  0  0
 20 25  1  0  0  0  0
 21 22  1  0  0  0  0
 22 23  1  0  0  0  0
 23 24  1  0  0  0  0
 24 25  1  0  0  0  0
M  END
>  <Name_Molregno>
106293

>  <Muscarinic acetylcholine receptor M1>
8.55

>  <Muscarinic acetylcholine receptor M2>
6.76

>  <Muscarinic acetylcholine receptor M3>
7.32

>  <Muscarinic acetylcholine receptor M4>
7.86

$$$$
120674
  Marvin  02231216192D 0   1.00000     0.00000     0

 27 29  0  0  1  0  0  0  0  0999 V2000
    4.4208    6.3587    0.0000 F   0  0  0  0  0  0  0  0  0
    4.4208    5.5337    0.0000 C   0  0  0  0  0  0  0  0  0
    5.1353    5.1212    0.0000 C   0  0  0  0  0  0  0  0  0
    5.1353    4.2962    0.0000 C   0  0  0  0  0  0  0  0  0
    4.4208    3.8837    0.0000 C   0  0  0  0  0  0  0  0  0
    3.7063    4.2962    0.0000 C   0  0  0  0  0  0  0  0  0
    3.7063    5.1212    0.0000 C   0  0  0  0  0  0  0  0  0
    4.4208    3.0587    0.0000 C   0  0  0  0  0  0  0  0  0
    5.1353    2.6462    0.0000 C   0  0  0  0  0  0  0  0  0
    5.1353    1.8212    0.0000 N   0  0  0  0  0  0  0  0  0
    5.8497    1.4087    0.0000 C   0  0  0  0  0  0  0  0  0
    5.8497    0.5837    0.0000 C   0  0  0  0  0  0  0  0  0
    5.1353    0.1712    0.0000 C   0  0  0  0  0  0  0  0  0
    4.4208    0.5837    0.0000 C   0  0  0  0  0  0  0  0  0
    4.4208    1.4087    0.0000 C   0  0  0  0  0  0  0  0  0
    5.1353   -0.6538    0.0000 C   0  0  0  0  0  0  0  0  0
    4.4208   -1.0663    0.0000 O   0  0  0  0  0  0  0  0  0
    5.8497   -1.0663    0.0000 C   0  0  0  0  0  0  0  0  0
    6.5642   -0.6538    0.0000 C   0  0  0  0  0  0  0  0  0
    7.2787   -1.0663    0.0000 C   0  0  0  0  0  0  0  0  0
    7.2787   -1.8913    0.0000 C   0  0  0  0  0  0  0  0  0
    6.5642   -2.3038    0.0000 C   0  0  0  0  0  0  0  0  0
    6.5642   -3.1288    0.0000 O   0  0  0  0  0  0  0  0  0
    7.2787   -3.5413    0.0000 C   0  0  0  0  0  0  0  0  0
    5.8497   -1.8913    0.0000 C   0  0  0  0  0  0  0  0  0
    5.1353   -2.3038    0.0000 O   0  0  0  0  0  0  0  0  0
    5.1353   -3.1288    0.0000 C   0  0  0  0  0  0  0  0  0
  1  2  1  0  0  0  0
  2  3  4  0  0  0  0
  2  7  4  0  0  0  0
  3  4  4  0  0  0  0
  4  5  4  0  0  0  0
  5  6  4  0  0  0  0
  5  8  1  0  0  0  0
  6  7  4  0  0  0  0
  8  9  1  0  0  0  0
  9 10  1  0  0  0  0
 10 11  1  0  0  0  0
 10 15  1  0  0  0  0
 11 12  1  0  0  0  0
 12 13  1  0  0  0  0
 13 14  1  0  0  0  0
 13 16  1  0  0  0  0
 14 15  1  0  0  0  0
 16 17  1  0  0  0  0
 16 18  1  0  0  0  0
 18 19  4  0  0  0  0
 18 25  4  0  0  0  0
 19 20  4  0  0  0  0
 20 21  4  0  0  0  0
 21 22  4  0  0  0  0
 22 23  1  0  0  0  0
 22 25  4  0  0  0  0
 23 24  1  0  0  0  0
 25 26  1  0  0  0  0
 26 27  1  0  0  0  0
M  END
>  <Name_Molregno>
120674

>  <5-HT1A>
5

>  <5-HT1E>
5

>  <5-HT2A>
9.16

>  <5-HT2C>
7.37

>  <5-HT3>
5

>  <5-HT5>
5

>  <5-HT6>
5.46

>  <Alpha-1A>
6.41

>  <Alpha-1B>
6.37

>  <Alpha-2A>
5.72

>  <Alpha-2B>
6.57

>  <Alpha-2C>
5.84

>  <Beta-1>
5

>  <Beta-2>
5

>  <DOPAMINE D1>
5.67

>  <DOPAMINE D2>
5.23

>  <DOPAMINE D4>
5.42

>  <DOPAMINE D5>
5

>  <Dopamine transporter>
5

>  <HISTAMINE H1>
7.18

>  <HISTAMINE H4>
5

>  <Muscarinic acetylcholine receptor M1>
5

>  <Muscarinic acetylcholine receptor M2>
5

>  <Muscarinic acetylcholine receptor M3>
5

>  <Muscarinic acetylcholine receptor M4>
5

>  <Muscarinic acetylcholine receptor M5>
5

>  <Norepinephrine transporter>
5

>  <Serotonin transporter>
5

$$$$
121331
  Marvin  02231216192D 0   1.00000     0.00000     0

 15 15  0  0  1  0  0  0  0  0999 V2000
   -4.1556    2.9664    0.0000 O   0  0  0  0  0  0  0  0  0
   -4.1556    2.1414    0.0000 C   0  0  0  0  0  0  0  0  0
   -3.4411    1.7289    0.0000 N   0  0  0  0  0  0  0  0  0
   -3.4411    0.9039    0.0000 C   0  0  0  0  0  0  0  0  0
   -2.7267    0.4914    0.0000 C   0  0  0  0  0  0  0  0  0
   -2.0122    0.0789    0.0000 C   0  0  0  0  0  0  0  0  0
   -1.2977   -0.3336    0.0000 C   0  0  0  0  0  0  0  0  0
   -1.2977   -1.1586    0.0000 N   0  0  0  0  0  0  0  0  0
   -0.6303   -1.6435    0.0000 C   0  0  0  0  0  0  0  0  0
   -0.8852   -2.4282    0.0000 C   0  0  0  0  0  0  0  0  0
   -1.7102   -2.4282    0.0000 C   0  0  0  0  0  0  0  0  0
   -1.9652   -1.6435    0.0000 C   0  0  0  0  0  0  0  0  0
   -4.1556    0.4914    0.0000 C   0  0  0  0  0  0  0  0  0
   -2.7267    2.1414    0.0000 C   0  0  0  0  0  0  0  0  0
   -4.8701    1.7289    0.0000 C   0  0  0  0  0  0  0  0  0
  1  2  2  0  0  0  0
  2  3  1  0  0  0  0
  2 15  1  0  0  0  0
  3  4  1  0  0  0  0
  3 14  1  0  0  0  0
  4  5  1  0  0  0  0
  4 13  1  0  0  0  0
  5  6  3  0  0  0  0
  6  7  1  0  0  0  0
  7  8  1  0  0  0  0
  8  9  1  0  0  0  0
  8 12  1  0  0  0  0
  9 10  1  0  0  0  0
 10 11  1  0  0  0  0
 11 12  1  0  0  0  0
M  END
>  <Name_Molregno>
121331

>  <Muscarinic acetylcholine receptor M1>
6.48

>  <Muscarinic acetylcholine receptor M2>
6.48

>  <Muscarinic acetylcholine receptor M3>
6.48

>  <Muscarinic acetylcholine receptor M4>
6.48

>  <Muscarinic acetylcholine receptor M5>
6.48

$$$$
134881
  Marvin  02231216192D 0   1.00000     0.00000     0

 17 19  0  0  1  0  0  0  0  0999 V2000
    1.0859    0.3148    0.0000 O   0  0  0  0  0  0  0  0  0
    0.9210   -0.4936    0.0000 C   0  0  0  0  0  0  0  0  0
    1.5387   -1.0405    0.0000 O   0  0  0  0  0  0  0  0  0
    0.1385   -0.7550    0.0000 C   0  0  0  0  0  0  0  0  0
   -0.0263   -1.5633    0.0000 C   0  0  0  0  0  0  0  0  0
   -0.8088   -1.8247    0.0000 C   0  0  0  0  0  0  0  0  0
   -1.4264   -1.2778    0.0000 C   0  0  0  0  0  0  0  0  0
   -1.2616   -0.4694    0.0000 C   0  0  0  0  0  0  0  0  0
   -0.4791   -0.2080    0.0000 C   0  0  0  0  0  0  0  0  0
    0.4683    0.8617    0.0000 C   0  0  0  0  0  0  0  0  0
    0.7888    1.5703    0.0000 C   0  0  0  0  0  0  0  0  0
    0.2282    2.0102    0.0000 N   0  0  0  0  0  0  0  0  0
    0.3679    1.1971    0.0000 C   0  0  0  0  0  0  0  0  0
   -0.1520    0.4848    0.0000 C   0  0  0  0  0  0  0  0  0
    1.3396    1.1971    0.0000 C   0  0  0  0  0  0  0  0  0
    1.8558    0.7684    0.0000 C   0  0  0  0  0  0  0  0  0
    1.7176    1.5858    0.0000 C   0  0  0  0  0  0  0  0  0
  1  2  1  0  0  0  0
  1 10  1  0  0  0  0
  2  3  2  0  0  0  0
  2  4  1  0  0  0  0
  4  5  1  0  0  0  0
  4  9  1  0  0  0  0
  5  6  1  0  0  0  0
  6  7  1  0  0  0  0
  7  8  1  0  0  0  0
  8  9  1  0  0  0  0
 10 11  1  0  0  0  0
 10 14  1  0  0  0  0
 11 12  1  0  0  0  0
 11 17  1  0  0  0  0
 12 13  1  0  0  0  0
 13 14  1  0  0  0  0
 13 15  1  0  0  0  0
 15 16  1  0  0  0  0
 16 17  1  0  0  0  0
M  END
>  <Name_Molregno>
134881

>  <Muscarinic acetylcholine receptor M1>
6.47

>  <Muscarinic acetylcholine receptor M2>
5.7

>  <Muscarinic acetylcholine receptor M3>
5.5

>  <Muscarinic acetylcholine receptor M4>
6.19

$$$$
135342
  Marvin  02231216192D 0   1.00000     0.00000     0

 20 22  0  0  1  0  0  0  0  0999 V2000
    2.0380    0.6683    0.0000 O   0  0  0  0  0  0  0  0  0
    1.8731   -0.1401    0.0000 C   0  0  0  0  0  0  0  0  0
    2.4907   -0.6870    0.0000 O   0  0  0  0  0  0  0  0  0
    1.0906   -0.4015    0.0000 C   0  0  0  0  0  0  0  0  0
    0.9258   -1.2099    0.0000 C   0  0  0  0  0  0  0  0  0
    0.1433   -1.4713    0.0000 C   0  0  0  0  0  0  0  0  0
   -0.4744   -0.9243    0.0000 C   0  0  0  0  0  0  0  0  0
   -1.2568   -1.1857    0.0000 N   0  3  0  0  0  0  0  0  0
   -1.8745   -0.6388    0.0000 O   0  5  0  0  0  0  0  0  0
   -1.4217   -1.9941    0.0000 O   0  5  0  0  0  0  0  0  0
   -0.3095   -0.1160    0.0000 C   0  0  0  0  0  0  0  0  0
    0.4730    0.1455    0.0000 C   0  0  0  0  0  0  0  0  0
    1.4203    1.2152    0.0000 C   0  0  0  0  0  0  0  0  0
    1.7408    1.9238    0.0000 C   0  0  0  0  0  0  0  0  0
    1.1802    2.3637    0.0000 N   0  0  0  0  0  0  0  0  0
    1.3199    1.5506    0.0000 C   0  0  0  0  0  0  0  0  0
    0.8000    0.8383    0.0000 C   0  0  0  0  0  0  0  0  0
    2.2916    1.5506    0.0000 C   0  0  0  0  0  0  0  0  0
    2.8078    1.1219    0.0000 C   0  0  0  0  0  0  0  0  0
    2.6696    1.9393    0.0000 C   0  0  0  0  0  0  0  0  0
  1  2  1  0  0  0  0
  1 13  1  0  0  0  0
  2  3  2  0  0  0  0
  2  4  1  0  0  0  0
  4  5  4  0  0  0  0
  4 12  4  0  0  0  0
  5  6  4  0  0  0  0
  6  7  4  0  0  0  0
  7  8  1  0  0  0  0
  7 11  4  0  0  0  0
  8  9  1  0  0  0  0
  8 10  1  0  0  0  0
 11 12  4  0  0  0  0
 13 14  1  0  0  0  0
 13 17  1  0  0  0  0
 14 15  1  0  0  0  0
 14 20  1  0  0  0  0
 15 16  1  0  0  0  0
 16 17  1  0  0  0  0
 16 18  1  0  0  0  0
 18 19  1  0  0  0  0
 19 20  1  0  0  0  0
M  CHG  3   8   1   9  -1  10  -1
M  END
>  <Name_Molregno>
135342

>  <Muscarinic acetylcholine receptor M1>
7.54

>  <Muscarinic acetylcholine receptor M2>
6.48

>  <Muscarinic acetylcholine receptor M4>
6.84

$$$$
135547
  Marvin  02231216192D 0   1.00000     0.00000     0

 14 15  0  0  1  0  0  0  0  0999 V2000
    0.0204   -0.1352    0.0000 O   0  0  0  0  0  0  0  0  0
   -0.1445   -0.9435    0.0000 C   0  0  0  0  0  0  0  0  0
    0.4731   -1.4905    0.0000 O   0  0  0  0  0  0  0  0  0
   -0.9270   -1.2049    0.0000 C   0  0  0  0  0  0  0  0  0
   -1.0918   -2.0133    0.0000 C   0  0  0  0  0  0  0  0  0
   -0.5973    0.4118    0.0000 C   0  0  0  0  0  0  0  0  0
   -0.2768    1.1204    0.0000 C   0  0  0  0  0  0  0  0  0
   -0.8374    1.5603    0.0000 N   0  0  0  0  0  0  0  0  0
   -0.6977    0.7472    0.0000 C   0  0  0  0  0  0  0  0  0
   -1.2176    0.0349    0.0000 C   0  0  0  0  0  0  0  0  0
    0.2740    0.7472    0.0000 C   0  0  0  0  0  0  0  0  0
    0.7902    0.3185    0.0000 C   0  0  0  0  0  0  0  0  0
    0.6520    1.1359    0.0000 C   0  0  0  0  0  0  0  0  0
   -1.2600    2.2688    0.0000 C   0  0  0  0  0  0  0  0  0
  1  2  1  0  0  0  0
  1  6  1  0  0  0  0
  2  3  2  0  0  0  0
  2  4  1  0  0  0  0
  4  5  1  0  0  0  0
  6  7  1  0  0  0  0
  6 10  1  0  0  0  0
  7  8  1  0  0  0  0
  7 13  1  0  0  0  0
  8  9  1  0  0  0  0
  8 14  1  0  0  0  0
  9 10  1  0  0  0  0
  9 11  1  0  0  0  0
 11 12  1  0  0  0  0
 12 13  1  0  0  0  0
M  END
>  <Name_Molregno>
135547

>  <Muscarinic acetylcholine receptor M1>
6.64

>  <Muscarinic acetylcholine receptor M2>
5.77

>  <Muscarinic acetylcholine receptor M3>
5.13

>  <Muscarinic acetylcholine receptor M4>
5.93

$$$$
135599
  Marvin  02231216192D 0   1.00000     0.00000     0

 13 14  0  0  1  0  0  0  0  0999 V2000
    0.1086   -0.0309    0.0000 O   0  0  0  0  0  0  0  0  0
   -0.0563   -0.8393    0.0000 C   0  0  0  0  0  0  0  0  0
    0.5614   -1.3862    0.0000 O   0  0  0  0  0  0  0  0  0
   -0.8388   -1.1007    0.0000 C   0  0  0  0  0  0  0  0  0
   -1.0036   -1.9090    0.0000 C   0  0  0  0  0  0  0  0  0
   -0.5090    0.5160    0.0000 C   0  0  0  0  0  0  0  0  0
   -0.1885    1.2246    0.0000 C   0  0  0  0  0  0  0  0  0
   -0.7491    1.6645    0.0000 N   0  0  0  0  0  0  0  0  0
   -0.6094    0.8514    0.0000 C   0  0  0  0  0  0  0  0  0
   -1.1293    0.1391    0.0000 C   0  0  0  0  0  0  0  0  0
    0.3623    0.8514    0.0000 C   0  0  0  0  0  0  0  0  0
    0.8785    0.4227    0.0000 C   0  0  0  0  0  0  0  0  0
    0.7403    1.2401    0.0000 C   0  0  0  0  0  0  0  0  0
  1  2  1  0  0  0  0
  1  6  1  0  0  0  0
  2  3  2  0  0  0  0
  2  4  1  0  0  0  0
  4  5  1  0  0  0  0
  6  7  1  0  0  0  0
  6 10  1  0  0  0  0
  7  8  1  0  0  0  0
  7 13  1  0  0  0  0
  8  9  1  0  0  0  0
  9 10  1  0  0  0  0
  9 11  1  0  0  0  0
 11 12  1  0  0  0  0
 12 13  1  0  0  0  0
M  END
>  <Name_Molregno>
135599

>  <Muscarinic acetylcholine receptor M1>
6.72

>  <Muscarinic acetylcholine receptor M2>
6.12

>  <Muscarinic acetylcholine receptor M3>
4.94

>  <Muscarinic acetylcholine receptor M4>
6.63

$$$$
135743
  Marvin  02231216192D 0   1.00000     0.00000     0

 18 20  0  0  1  0  0  0  0  0999 V2000
    0.9590    0.1087    0.0000 O   0  0  0  0  0  0  0  0  0
    0.7941   -0.6996    0.0000 C   0  0  0  0  0  0  0  0  0
    1.4117   -1.2466    0.0000 O   0  0  0  0  0  0  0  0  0
    0.0116   -0.9610    0.0000 C   0  0  0  0  0  0  0  0  0
   -0.1533   -1.7694    0.0000 C   0  0  0  0  0  0  0  0  0
   -0.9357   -2.0308    0.0000 C   0  0  0  0  0  0  0  0  0
   -1.5534   -1.4839    0.0000 C   0  0  0  0  0  0  0  0  0
   -1.3885   -0.6755    0.0000 C   0  0  0  0  0  0  0  0  0
   -0.6060   -0.4141    0.0000 C   0  0  0  0  0  0  0  0  0
    0.3413    0.6557    0.0000 C   0  0  0  0  0  0  0  0  0
    0.6618    1.3643    0.0000 C   0  0  0  0  0  0  0  0  0
    0.1012    1.8042    0.0000 N   0  0  0  0  0  0  0  0  0
    0.2409    0.9911    0.0000 C   0  0  0  0  0  0  0  0  0
   -0.2790    0.2788    0.0000 C   0  0  0  0  0  0  0  0  0
    1.2126    0.9911    0.0000 C   0  0  0  0  0  0  0  0  0
    1.7288    0.5624    0.0000 C   0  0  0  0  0  0  0  0  0
    1.5906    1.3798    0.0000 C   0  0  0  0  0  0  0  0  0
   -0.3214    2.5127    0.0000 C   0  0  0  0  0  0  0  0  0
  1  2  1  0  0  0  0
  1 10  1  0  0  0  0
  2  3  2  0  0  0  0
  2  4  1  0  0  0  0
  4  5  1  0  0  0  0
  4  9  1  0  0  0  0
  5  6  1  0  0  0  0
  6  7  1  0  0  0  0
  7  8  1  0  0  0  0
  8  9  1  0  0  0  0
 10 11  1  0  0  0  0
 10 14  1  0  0  0  0
 11 12  1  0  0  0  0
 11 17  1  0  0  0  0
 12 13  1  0  0  0  0
 12 18  1  0  0  0  0
 13 14  1  0  0  0  0
 13 15  1  0  0  0  0
 15 16  1  0  0  0  0
 16 17  1  0  0  0  0
M  END
>  <Name_Molregno>
135743

>  <Muscarinic acetylcholine receptor M1>
6.46

>  <Muscarinic acetylcholine receptor M2>
6.11

>  <Muscarinic acetylcholine receptor M3>
5.5

>  <Muscarinic acetylcholine receptor M4>
6.28

$$$$
135812
  Marvin  02231216192D 0   1.00000     0.00000     0

 18 19  0  0  1  0  0  0  0  0999 V2000
    0.0762   -2.9521    0.0000 Cl  0  0  0  0  0  0  0  0  0
    0.8587   -2.6906    0.0000 C   0  0  0  0  0  0  0  0  0
    1.1201   -3.4731    0.0000 Cl  0  0  0  0  0  0  0  0  0
    0.5973   -1.9082    0.0000 Cl  0  0  0  0  0  0  0  0  0
    1.6411   -2.4292    0.0000 C   0  0  0  0  0  0  0  0  0
    1.8060   -1.6209    0.0000 O   0  0  0  0  0  0  0  0  0
    2.5885   -1.3595    0.0000 C   0  0  0  0  0  0  0  0  0
    2.7534   -0.5511    0.0000 O   0  0  0  0  0  0  0  0  0
    2.1357   -0.0042    0.0000 C   0  0  0  0  0  0  0  0  0
    2.4562    0.7044    0.0000 C   0  0  0  0  0  0  0  0  0
    1.8956    1.1443    0.0000 N   0  0  0  0  0  0  0  0  0
    2.0353    0.3312    0.0000 C   0  0  0  0  0  0  0  0  0
    1.5154   -0.3811    0.0000 C   0  0  0  0  0  0  0  0  0
    3.0070    0.3312    0.0000 C   0  0  0  0  0  0  0  0  0
    3.5232   -0.0975    0.0000 C   0  0  0  0  0  0  0  0  0
    3.3850    0.7199    0.0000 C   0  0  0  0  0  0  0  0  0
    1.4730    1.8529    0.0000 C   0  0  0  0  0  0  0  0  0
    3.2061   -1.9064    0.0000 O   0  0  0  0  0  0  0  0  0
  1  2  1  0  0  0  0
  2  3  1  0  0  0  0
  2  4  1  0  0  0  0
  2  5  1  0  0  0  0
  5  6  1  0  0  0  0
  6  7  1  0  0  0  0
  7  8  1  0  0  0  0
  7 18  2  0  0  0  0
  8  9  1  0  0  0  0
  9 10  1  0  0  0  0
  9 13  1  0  0  0  0
 10 11  1  0  0  0  0
 10 16  1  0  0  0  0
 11 12  1  0  0  0  0
 11 17  1  0  0  0  0
 12 13  1  0  0  0  0
 12 14  1  0  0  0  0
 14 15  1  0  0  0  0
 15 16  1  0  0  0  0
M  END
>  <Name_Molregno>
135812

>  <Muscarinic acetylcholine receptor M1>
6

>  <Muscarinic acetylcholine receptor M2>
6.07

>  <Muscarinic acetylcholine receptor M3>
5.17

>  <Muscarinic acetylcholine receptor M4>
6.51

$$$$
146267
  Marvin  02231216192D 0   1.00000     0.00000     0

 11 11  0  0  0  0  0  0  0  0999 V2000
   -0.9610    0.0021    0.0000 O   0  0  0  0  0  0  0  0  0
   -1.2159   -0.7825    0.0000 C   0  0  0  0  0  0  0  0  0
   -2.0409   -0.7825    0.0000 C   0  0  0  0  0  0  0  0  0
   -2.2959    0.0021    0.0000 C   0  0  0  0  0  0  0  0  0
   -1.6284    0.4870    0.0000 C   0  0  0  0  0  0  0  0  0
   -1.6284    1.3120    0.0000 C   0  0  0  0  0  0  0  0  0
   -0.7310   -1.4499    0.0000 C   0  0  0  0  0  0  0  0  0
    0.0895   -1.3637    0.0000 N   0  3  0  0  0  0  0  0  0
    0.9100   -1.2775    0.0000 C   0  0  0  0  0  0  0  0  0
    0.1757   -2.1842    0.0000 C   0  0  0  0  0  0  0  0  0
    0.0033   -0.5432    0.0000 C   0  0  0  0  0  0  0  0  0
  1  2  4  0  0  0  0
  1  5  4  0  0  0  0
  2  3  4  0  0  0  0
  2  7  1  0  0  0  0
  3  4  4  0  0  0  0
  4  5  4  0  0  0  0
  5  6  1  0  0  0  0
  7  8  1  0  0  0  0
  8  9  1  0  0  0  0
  8 10  1  0  0  0  0
  8 11  1  0  0  0  0
M  CHG  1   8   1
M  END
>  <Name_Molregno>
146267

>  <Muscarinic acetylcholine receptor M1>
5.1

>  <Muscarinic acetylcholine receptor M2>
6.02

>  <Muscarinic acetylcholine receptor M3>
5.21

>  <Muscarinic acetylcholine receptor M4>
5.2

>  <Muscarinic acetylcholine receptor M5>
5.16

$$$$
178068
  Marvin  02231216192D 0   1.00000     0.00000     0

 32 35  0  0  0  0  0  0  0  0999 V2000
    3.7835    3.5848    0.0000 O   0  0  0  0  0  0  0  0  0
    3.0690    3.9973    0.0000 C   0  0  0  0  0  0  0  0  0
    3.7835    2.7598    0.0000 C   0  0  0  0  0  0  0  0  0
    4.4980    2.3473    0.0000 C   0  0  0  0  0  0  0  0  0
    4.4980    1.5223    0.0000 C   0  0  0  0  0  0  0  0  0
    3.7835    1.1098    0.0000 C   0  0  0  0  0  0  0  0  0
    3.7835    0.2848    0.0000 N   0  0  0  0  0  0  0  0  0
    4.4980   -0.1277    0.0000 C   0  0  0  0  0  0  0  0  0
    5.2124    0.2848    0.0000 O   0  0  0  0  0  0  0  0  0
    4.4980   -0.9527    0.0000 N   0  0  0  0  0  0  0  0  0
    5.2124   -1.3652    0.0000 C   0  0  0  0  0  0  0  0  0
    5.2124   -2.1902    0.0000 C   0  0  0  0  0  0  0  0  0
    4.4980   -2.6027    0.0000 N   0  0  0  0  0  0  0  0  0
    3.7835   -2.1902    0.0000 C   0  0  0  0  0  0  0  0  0
    3.7835   -1.3652    0.0000 C   0  0  0  0  0  0  0  0  0
    4.4980   -3.4277    0.0000 C   0  0  0  0  0  0  0  0  0
    5.2124   -3.8402    0.0000 C   0  0  0  0  0  0  0  0  0
    5.2124   -4.6652    0.0000 C   0  0  0  0  0  0  0  0  0
    4.4980   -5.0777    0.0000 C   0  0  0  0  0  0  0  0  0
    3.7835   -4.6652    0.0000 C   0  0  0  0  0  0  0  0  0
    3.7835   -3.8402    0.0000 C   0  0  0  0  0  0  0  0  0
    3.0690   -3.4277    0.0000 O   0  0  0  0  0  0  0  0  0
    2.3546   -3.8402    0.0000 C   0  0  0  0  0  0  0  0  0
    3.0690    1.5223    0.0000 C   0  0  0  0  0  0  0  0  0
    3.0690    2.3473    0.0000 C   0  0  0  0  0  0  0  0  0
    2.3546    2.7598    0.0000 N   0  0  0  0  0  0  0  0  0
    1.6401    2.3473    0.0000 C   0  0  0  0  0  0  0  0  0
    0.9256    2.7598    0.0000 C   0  0  0  0  0  0  0  0  0
    0.9256    3.5848    0.0000 N   0  0  0  0  0  0  0  0  0
    1.6401    3.9973    0.0000 C   0  0  0  0  0  0  0  0  0
    2.3546    3.5848    0.0000 C   0  0  0  0  0  0  0  0  0
    0.2111    3.9973    0.0000 C   0  0  0  0  0  0  0  0  0
  1  2  1  0  0  0  0
  1  3  1  0  0  0  0
  3  4  4  0  0  0  0
  3 25  4  0  0  0  0
  4  5  4  0  0  0  0
  5  6  4  0  0  0  0
  6  7  1  0  0  0  0
  6 24  4  0  0  0  0
  7  8  1  0  0  0  0
  8  9  2  0  0  0  0
  8 10  1  0  0  0  0
 10 11  1  0  0  0  0
 10 15  1  0  0  0  0
 11 12  1  0  0  0  0
 12 13  1  0  0  0  0
 13 14  1  0  0  0  0
 13 16  1  0  0  0  0
 14 15  1  0  0  0  0
 16 17  4  0  0  0  0
 16 21  4  0  0  0  0
 17 18  4  0  0  0  0
 18 19  4  0  0  0  0
 19 20  4  0  0  0  0
 20 21  4  0  0  0  0
 21 22  1  0  0  0  0
 22 23  1  0  0  0  0
 24 25  4  0  0  0  0
 25 26  1  0  0  0  0
 26 27  1  0  0  0  0
 26 31  1  0  0  0  0
 27 28  1  0  0  0  0
 28 29  1  0  0  0  0
 29 30  1  0  0  0  0
 29 32  1  0  0  0  0
 30 31  1  0  0  0  0
M  END
>  <Name_Molregno>
178068

>  <5-HT1A>
6.17

>  <5-HT1B>
8.44

>  <5-HT1D>
7.02

>  <5-HT2A>
5.17

>  <5-HT2C>
5.71

>  <5-HT6>
5.62

>  <5-HT7>
5.85

>  <DOPAMINE D1>
5

>  <DOPAMINE D2>
5

>  <DOPAMINE D3>
5

>  <DOPAMINE D4>
5

>  <DOPAMINE D5>
5

>  <HISTAMINE H1>
5

>  <Muscarinic acetylcholine receptor M1>
5

>  <Muscarinic acetylcholine receptor M2>
5

>  <Muscarinic acetylcholine receptor M3>
5

>  <Muscarinic acetylcholine receptor M4>
5

>  <Muscarinic acetylcholine receptor M5>
5

$$$$
187230
  Marvin  02231216192D 0   1.00000     0.00000     0

 83 91  0  0  0  0  0  0  0  0999 V2000
    2.3294   -3.8994    0.0000 O   0  0  0  0  0  0  0  0  0
    1.5137   -3.7761    0.0000 C   0  0  0  0  0  0  0  0  0
    1.0487   -4.4576    0.0000 N   0  0  0  0  0  0  0  0  0
    0.2260   -4.5190    0.0000 C   0  0  0  0  0  0  0  0  0
   -0.0175   -5.3072    0.0000 C   0  0  0  0  0  0  0  0  0
   -0.8218   -5.4905    0.0000 C   0  0  0  0  0  0  0  0  0
   -1.3828   -4.8855    0.0000 C   0  0  0  0  0  0  0  0  0
   -1.1393   -4.0973    0.0000 N   0  0  0  0  0  0  0  0  0
   -0.3349   -3.9140    0.0000 C   0  0  0  0  0  0  0  0  0
   -0.2117   -3.0983    0.0000 N   0  0  0  0  0  0  0  0  0
    0.5030   -2.6860    0.0000 C   0  0  0  0  0  0  0  0  0
    1.2708   -2.9877    0.0000 C   0  0  0  0  0  0  0  0  0
    1.9160   -2.4736    0.0000 C   0  0  0  0  0  0  0  0  0
    1.7933   -1.6577    0.0000 C   0  0  0  0  0  0  0  0  0
    1.0255   -1.3560    0.0000 C   0  0  0  0  0  0  0  0  0
    0.3803   -1.8702    0.0000 C   0  0  0  0  0  0  0  0  0
   -0.8931   -2.6333    0.0000 C   0  0  0  0  0  0  0  0  0
   -0.8312   -1.8106    0.0000 O   0  0  0  0  0  0  0  0  0
   -1.6366   -2.9910    0.0000 C   0  0  0  0  0  0  0  0  0
   -2.3181   -2.5260    0.0000 N   0  0  0  0  0  0  0  0  0
   -3.0615   -2.8837    0.0000 C   0  0  0  0  0  0  0  0  0
   -3.7430   -2.4187    0.0000 C   0  0  0  0  0  0  0  0  0
   -4.4864   -2.7763    0.0000 C   0  0  0  0  0  0  0  0  0
   -5.1679   -2.3114    0.0000 C   0  0  0  0  0  0  0  0  0
   -5.9113   -2.6690    0.0000 C   0  0  0  0  0  0  0  0  0
   -6.5928   -2.2041    0.0000 C   0  0  0  0  0  0  0  0  0
   -7.3362   -2.5617    0.0000 N   0  0  0  0  0  0  0  0  0
   -8.0177   -2.0967    0.0000 C   0  0  0  0  0  0  0  0  0
   -8.7611   -2.4544    0.0000 C   0  0  0  0  0  0  0  0  0
   -9.4426   -1.9894    0.0000 C   0  0  0  0  0  0  0  0  0
  -10.1860   -2.3471    0.0000 C   0  0  0  0  0  0  0  0  0
  -10.8675   -1.8821    0.0000 C   0  0  0  0  0  0  0  0  0
  -11.6109   -2.2398    0.0000 C   0  0  0  0  0  0  0  0  0
  -12.2924   -1.7748    0.0000 C   0  0  0  0  0  0  0  0  0
  -13.0358   -2.1325    0.0000 C   0  0  0  0  0  0  0  0  0
  -13.7173   -1.6675    0.0000 N   0  0  0  0  0  0  0  0  0
  -14.4607   -2.0252    0.0000 C   0  0  0  0  0  0  0  0  0
  -15.1422   -1.5602    0.0000 C   0  0  0  0  0  0  0  0  0
  -15.8856   -1.9179    0.0000 C   0  0  0  0  0  0  0  0  0
  -16.5671   -1.4529    0.0000 C   0  0  0  0  0  0  0  0  0
  -17.3106   -1.8106    0.0000 C   0  0  0  0  0  0  0  0  0
  -17.9920   -1.3456    0.0000 C   0  0  0  0  0  0  0  0  0
  -18.7355   -1.7033    0.0000 N   0  0  0  0  0  0  0  0  0
  -19.4169   -1.2383    0.0000 C   0  0  0  0  0  0  0  0  0
  -20.1604   -1.5960    0.0000 C   0  0  0  0  0  0  0  0  0
  -20.8418   -1.1310    0.0000 O   0  0  0  0  0  0  0  0  0
  -20.2223   -2.4187    0.0000 N   0  0  0  0  0  0  0  0  0
  -19.5080   -2.8314    0.0000 C   0  0  0  0  0  0  0  0  0
  -19.3853   -3.6473    0.0000 C   0  0  0  0  0  0  0  0  0
  -18.6175   -3.9489    0.0000 C   0  0  0  0  0  0  0  0  0
  -17.9723   -3.4348    0.0000 C   0  0  0  0  0  0  0  0  0
  -18.0949   -2.6190    0.0000 C   0  0  0  0  0  0  0  0  0
  -18.8628   -2.3173    0.0000 C   0  0  0  0  0  0  0  0  0
  -19.9467   -4.2518    0.0000 C   0  0  0  0  0  0  0  0  0
  -19.6456   -5.0199    0.0000 O   0  0  0  0  0  0  0  0  0
  -20.7694   -4.1899    0.0000 N   0  0  0  0  0  0  0  0  0
  -21.2339   -3.5080    0.0000 C   0  0  0  0  0  0  0  0  0
  -22.0382   -3.6913    0.0000 C   0  0  0  0  0  0  0  0  0
  -22.5992   -3.0864    0.0000 C   0  0  0  0  0  0  0  0  0
  -22.3557   -2.2981    0.0000 C   0  0  0  0  0  0  0  0  0
  -21.5513   -2.1148    0.0000 N   0  0  0  0  0  0  0  0  0
  -20.9904   -2.7198    0.0000 C   0  0  0  0  0  0  0  0  0
  -13.6554   -0.8449    0.0000 C   0  0  0  0  0  0  0  0  0
   -7.3982   -3.3844    0.0000 C   0  0  0  0  0  0  0  0  0
   -2.2561   -1.7033    0.0000 C   0  0  0  0  0  0  0  0  0
   -2.9376   -1.2383    0.0000 C   0  0  0  0  0  0  0  0  0
   -3.6810   -1.5960    0.0000 O   0  0  0  0  0  0  0  0  0
   -2.8756   -0.4156    0.0000 N   0  0  0  0  0  0  0  0  0
   -3.5899   -0.0029    0.0000 C   0  0  0  0  0  0  0  0  0
   -3.7126    0.8130    0.0000 C   0  0  0  0  0  0  0  0  0
   -4.4805    1.1146    0.0000 C   0  0  0  0  0  0  0  0  0
   -5.1257    0.6005    0.0000 C   0  0  0  0  0  0  0  0  0
   -5.0030   -0.2153    0.0000 C   0  0  0  0  0  0  0  0  0
   -4.2351   -0.5170    0.0000 C   0  0  0  0  0  0  0  0  0
   -3.1512    1.4175    0.0000 C   0  0  0  0  0  0  0  0  0
   -3.4524    2.1856    0.0000 O   0  0  0  0  0  0  0  0  0
   -2.3286    1.3556    0.0000 N   0  0  0  0  0  0  0  0  0
   -1.8641    0.6737    0.0000 C   0  0  0  0  0  0  0  0  0
   -1.0597    0.8570    0.0000 C   0  0  0  0  0  0  0  0  0
   -0.4988    0.2521    0.0000 C   0  0  0  0  0  0  0  0  0
   -0.7422   -0.5362    0.0000 C   0  0  0  0  0  0  0  0  0
   -1.5466   -0.7195    0.0000 N   0  0  0  0  0  0  0  0  0
   -2.1075   -0.1145    0.0000 C   0  0  0  0  0  0  0  0  0
  1  2  2  0  0  0  0
  2  3  1  0  0  0  0
  2 12  1  0  0  0  0
  3  4  1  0  0  0  0
  4  5  4  0  0  0  0
  4  9  4  0  0  0  0
  5  6  4  0  0  0  0
  6  7  4  0  0  0  0
  7  8  4  0  0  0  0
  8  9  4  0  0  0  0
  9 10  1  0  0  0  0
 10 11  1  0  0  0  0
 10 17  1  0  0  0  0
 11 12  4  0  0  0  0
 11 16  4  0  0  0  0
 12 13  4  0  0  0  0
 13 14  4  0  0  0  0
 14 15  4  0  0  0  0
 15 16  4  0  0  0  0
 17 18  2  0  0  0  0
 17 19  1  0  0  0  0
 19 20  1  0  0  0  0
 20 21  1  0  0  0  0
 20 65  1  0  0  0  0
 21 22  1  0  0  0  0
 22 23  1  0  0  0  0
 23 24  1  0  0  0  0
 24 25  1  0  0  0  0
 25 26  1  0  0  0  0
 26 27  1  0  0  0  0
 27 28  1  0  0  0  0
 27 64  1  0  0  0  0
 28 29  1  0  0  0  0
 29 30  1  0  0  0  0
 30 31  1  0  0  0  0
 31 32  1  0  0  0  0
 32 33  1  0  0  0  0
 33 34  1  0  0  0  0
 34 35  1  0  0  0  0
 35 36  1  0  0  0  0
 36 37  1  0  0  0  0
 36 63  1  0  0  0  0
 37 38  1  0  0  0  0
 38 39  1  0  0  0  0
 39 40  1  0  0  0  0
 40 41  1  0  0  0  0
 41 42  1  0  0  0  0
 42 43  1  0  0  0  0
 43 44  1  0  0  0  0
 44 45  1  0  0  0  0
 45 46  2  0  0  0  0
 45 47  1  0  0  0  0
 47 48  1  0  0  0  0
 47 62  1  0  0  0  0
 48 49  4  0  0  0  0
 48 53  4  0  0  0  0
 49 50  4  0  0  0  0
 49 54  1  0  0  0  0
 50 51  4  0  0  0  0
 51 52  4  0  0  0  0
 52 53  4  0  0  0  0
 54 55  2  0  0  0  0
 54 56  1  0  0  0  0
 56 57  1  0  0  0  0
 57 58  4  0  0  0  0
 57 62  4  0  0  0  0
 58 59  4  0  0  0  0
 59 60  4  0  0  0  0
 60 61  4  0  0  0  0
 61 62  4  0  0  0  0
 65 66  1  0  0  0  0
 66 67  2  0  0  0  0
 66 68  1  0  0  0  0
 68 69  1  0  0  0  0
 68 83  1  0  0  0  0
 69 70  4  0  0  0  0
 69 74  4  0  0  0  0
 70 71  4  0  0  0  0
 70 75  1  0  0  0  0
 71 72  4  0  0  0  0
 72 73  4  0  0  0  0
 73 74  4  0  0  0  0
 75 76  2  0  0  0  0
 75 77  1  0  0  0  0
 77 78  1  0  0  0  0
 78 79  4  0  0  0  0
 78 83  4  0  0  0  0
 79 80  4  0  0  0  0
 80 81  4  0  0  0  0
 81 82  4  0  0  0  0
 82 83  4  0  0  0  0
M  END
>  <Name_Molregno>
187230

>  <Muscarinic acetylcholine receptor M1>
8.63

>  <Muscarinic acetylcholine receptor M2>
9.55

>  <Muscarinic acetylcholine receptor M3>
7.13

>  <Muscarinic acetylcholine receptor M4>
8.06

>  <Muscarinic acetylcholine receptor M5>
7.47

$$$$
199111
  Marvin  02231216192D 0   1.00000     0.00000     0

 14 15  0  0  1  0  0  0  0  0999 V2000
   -0.1663    0.8600    0.0000 N   0  0  0  0  0  0  0  0  0
    0.5482    0.4475    0.0000 C   0  0  0  0  0  0  0  0  0
    1.2627    0.8600    0.0000 C   0  0  0  0  0  0  0  0  0
    1.2627    1.6850    0.0000 C   0  0  0  0  0  0  0  0  0
    1.9771    2.0975    0.0000 C   0  0  0  0  0  0  0  0  0
    2.6916    1.6850    0.0000 C   0  0  0  0  0  0  0  0  0
    2.6916    0.8600    0.0000 C   0  0  0  0  0  0  0  0  0
    1.9771    0.4475    0.0000 C   0  0  0  0  0  0  0  0  0
    1.9771   -0.3775    0.0000 N   0  0  0  0  0  0  0  0  0
    2.6916   -0.7900    0.0000 C   0  0  0  0  0  0  0  0  0
    2.6916   -1.6150    0.0000 C   0  0  0  0  0  0  0  0  0
    1.2627   -0.7900    0.0000 C   0  0  0  0  0  0  0  0  0
    0.5482    2.0975    0.0000 C   0  0  0  0  0  0  0  0  0
   -0.1663    1.6850    0.0000 C   0  0  0  0  0  0  0  0  0
  1  2  4  0  0  0  0
  1 14  4  0  0  0  0
  2  3  4  0  0  0  0
  3  4  4  0  0  0  0
  3  8  1  0  0  0  0
  4  5  1  0  0  0  0
  4 13  4  0  0  0  0
  5  6  1  0  0  0  0
  6  7  1  0  0  0  0
  7  8  1  0  0  0  0
  8  9  1  0  0  0  0
  9 10  1  0  0  0  0
  9 12  1  0  0  0  0
 10 11  1  0  0  0  0
 13 14  4  0  0  0  0
M  END
>  <Name_Molregno>
199111

>  <5-HT1A>
5

>  <5-HT1B>
5

>  <5-HT2C>
5

>  <5-HT3>
5

>  <5-HT5>
5

>  <5-HT6>
5

>  <5-HT7>
5

>  <Beta-1>
5

>  <Beta-2>
5

>  <DOPAMINE D1>
5

>  <DOPAMINE D2>
5

>  <DOPAMINE D3>
5

>  <DOPAMINE D4>
5

>  <DOPAMINE D5>
5

>  <HISTAMINE H1>
5

>  <HISTAMINE H2>
5

>  <Muscarinic acetylcholine receptor M1>
5

>  <Muscarinic acetylcholine receptor M2>
5

>  <Muscarinic acetylcholine receptor M3>
5

>  <Muscarinic acetylcholine receptor M4>
5

>  <Muscarinic acetylcholine receptor M5>
5

$$$$
214861
  Marvin  02231216192D 0   1.00000     0.00000     0

 13 13  0  0  0  0  0  0  0  0999 V2000
    2.0613   -0.0008    0.0000 O   0  0  0  0  0  0  0  0  0
    1.3468   -0.4133    0.0000 C   0  0  0  0  0  0  0  0  0
    1.3468   -1.2383    0.0000 O   0  0  0  0  0  0  0  0  0
    0.6324   -0.0008    0.0000 C   0  0  0  0  0  0  0  0  0
   -0.0821   -0.4133    0.0000 C   0  0  0  0  0  0  0  0  0
   -0.7966   -0.0008    0.0000 N   0  0  0  0  0  0  0  0  0
   -0.7966    0.8242    0.0000 C   0  0  0  0  0  0  0  0  0
   -0.0821    1.2367    0.0000 C   0  0  0  0  0  0  0  0  0
    0.6324    0.8242    0.0000 C   0  0  0  0  0  0  0  0  0
   -1.5111   -0.4133    0.0000 C   0  0  0  0  0  0  0  0  0
    2.7758   -0.4133    0.0000 C   0  0  0  0  0  0  0  0  0
    3.4902   -0.0008    0.0000 C   0  0  0  0  0  0  0  0  0
    4.2047    0.4117    0.0000 C   0  0  0  0  0  0  0  0  0
  1  2  1  0  0  0  0
  1 11  1  0  0  0  0
  2  3  2  0  0  0  0
  2  4  1  0  0  0  0
  4  5  1  0  0  0  0
  4  9  2  0  0  0  0
  5  6  1  0  0  0  0
  6  7  1  0  0  0  0
  6 10  1  0  0  0  0
  7  8  1  0  0  0  0
  8  9  1  0  0  0  0
 11 12  1  0  0  0  0
 12 13  3  0  0  0  0
M  END
>  <Name_Molregno>
214861

>  <Muscarinic acetylcholine receptor M1>
5.91

>  <Muscarinic acetylcholine receptor M2>
7.06

>  <Muscarinic acetylcholine receptor M3>
6.07

>  <Muscarinic acetylcholine receptor M4>
6.01

>  <Muscarinic acetylcholine receptor M5>
6.03

$$$$
276139
  Marvin  02231216192D 0   1.00000     0.00000     0

 24 26  0  0  0  0  0  0  0  0999 V2000
   -0.2864    0.1603    0.0000 O   0  0  0  0  0  0  0  0  0
   -0.2864   -0.6647    0.0000 C   0  0  0  0  0  0  0  0  0
    0.4281   -1.0772    0.0000 O   0  0  0  0  0  0  0  0  0
   -1.0008   -1.0772    0.0000 C   0  0  0  0  0  0  0  0  0
   -1.0008   -1.9022    0.0000 C   0  0  0  0  0  0  0  0  0
   -0.2864   -2.3147    0.0000 C   0  0  0  0  0  0  0  0  0
   -0.2864   -3.1397    0.0000 C   0  0  0  0  0  0  0  0  0
   -1.0008   -3.5522    0.0000 C   0  0  0  0  0  0  0  0  0
   -1.7153   -3.1397    0.0000 C   0  0  0  0  0  0  0  0  0
   -1.7153   -2.3147    0.0000 C   0  0  0  0  0  0  0  0  0
   -1.7153   -0.6647    0.0000 C   0  0  0  0  0  0  0  0  0
   -2.4298   -1.0772    0.0000 C   0  0  0  0  0  0  0  0  0
   -3.1442   -0.6647    0.0000 C   0  0  0  0  0  0  0  0  0
   -3.1442    0.1603    0.0000 C   0  0  0  0  0  0  0  0  0
   -2.4298    0.5728    0.0000 C   0  0  0  0  0  0  0  0  0
   -1.7153    0.1603    0.0000 C   0  0  0  0  0  0  0  0  0
    0.4281    0.5728    0.0000 C   0  0  0  0  0  0  0  0  0
    0.4281    1.3978    0.0000 C   0  0  0  0  0  0  0  0  0
    1.1426    1.8103    0.0000 C   0  0  0  0  0  0  0  0  0
    1.8570    1.3978    0.0000 N   0  3  0  0  0  0  0  0  0
    1.8570    0.5728    0.0000 C   0  0  0  0  0  0  0  0  0
    1.1426    0.1603    0.0000 C   0  0  0  0  0  0  0  0  0
    2.2942    2.0974    0.0000 C   0  0  0  0  0  0  0  0  0
    2.6815    1.4266    0.0000 C   0  0  0  0  0  0  0  0  0
  1  2  1  0  0  0  0
  1 17  1  0  0  0  0
  2  3  2  0  0  0  0
  2  4  1  0  0  0  0
  4  5  1  0  0  0  0
  4 11  1  0  0  0  0
  5  6  4  0  0  0  0
  5 10  4  0  0  0  0
  6  7  4  0  0  0  0
  7  8  4  0  0  0  0
  8  9  4  0  0  0  0
  9 10  4  0  0  0  0
 11 12  4  0  0  0  0
 11 16  4  0  0  0  0
 12 13  4  0  0  0  0
 13 14  4  0  0  0  0
 14 15  4  0  0  0  0
 15 16  4  0  0  0  0
 17 18  1  0  0  0  0
 17 22  1  0  0  0  0
 18 19  1  0  0  0  0
 19 20  1  0  0  0  0
 20 21  1  0  0  0  0
 20 23  1  0  0  0  0
 20 24  1  0  0  0  0
 21 22  1  0  0  0  0
M  CHG  1  20   1
M  END
>  <Name_Molregno>
276139

>  <Muscarinic acetylcholine receptor M1>
8.98

>  <Muscarinic acetylcholine receptor M2>
8.38

>  <Muscarinic acetylcholine receptor M3>
9.23

>  <Muscarinic acetylcholine receptor M4>
8.91

>  <Muscarinic acetylcholine receptor M5>
8.98

$$$$
292542
  Marvin  02231216192D 0   1.00000     0.00000     0

 47 51  0  0  1  0  0  0  0  0999 V2000
    5.5407   -1.4585    0.0000 O   0  0  0  0  0  0  0  0  0
    5.7957   -0.6739    0.0000 C   0  0  0  0  0  0  0  0  0
    5.0812   -0.2614    0.0000 N   0  0  0  0  0  0  0  0  0
    4.3667   -0.6739    0.0000 C   0  0  0  0  0  0  0  0  0
    3.6523   -0.2614    0.0000 C   0  0  0  0  0  0  0  0  0
    3.6523    0.5636    0.0000 O   0  0  0  0  0  0  0  0  0
    2.9378   -0.6739    0.0000 N   0  0  0  0  0  0  0  0  0
    2.2233   -0.2614    0.0000 C   0  0  0  0  0  0  0  0  0
    1.5088   -0.6739    0.0000 C   0  0  0  0  0  0  0  0  0
    0.7944   -0.2614    0.0000 C   0  0  0  0  0  0  0  0  0
    0.0799   -0.6739    0.0000 C   0  0  0  0  0  0  0  0  0
    0.0799   -1.4989    0.0000 O   0  0  0  0  0  0  0  0  0
   -0.6346   -0.2614    0.0000 N   0  0  0  0  0  0  0  0  0
   -1.3490   -0.6739    0.0000 C   0  0  0  0  0  0  0  0  0
   -2.0635   -0.2614    0.0000 C   0  0  0  0  0  0  0  0  0
   -2.7780   -0.6739    0.0000 C   0  0  0  0  0  0  0  0  0
   -3.4925   -0.2614    0.0000 C   0  0  0  0  0  0  0  0  0
   -3.4925    0.5636    0.0000 C   0  0  0  0  0  0  0  0  0
   -2.7780    0.9761    0.0000 N   0  0  0  0  0  0  0  0  0
   -2.0635    0.5636    0.0000 C   0  0  0  0  0  0  0  0  0
   -2.7780    1.8011    0.0000 C   0  0  0  0  0  0  0  0  0
   -3.4925    2.2136    0.0000 C   0  0  0  0  0  0  0  0  0
   -4.2069    1.8011    0.0000 C   0  0  0  0  0  0  0  0  0
   -4.9214    2.2136    0.0000 C   0  0  0  0  0  0  0  0  0
   -4.9214    3.0386    0.0000 C   0  0  0  0  0  0  0  0  0
   -4.2069    3.4511    0.0000 C   0  0  0  0  0  0  0  0  0
   -3.4925    3.0386    0.0000 C   0  0  0  0  0  0  0  0  0
    6.5101   -0.2614    0.0000 C   0  0  0  0  0  0  0  0  0
    7.2246   -0.6739    0.0000 C   0  0  0  0  0  0  0  0  0
    7.9391   -1.0864    0.0000 C   0  0  0  0  0  0  0  0  0
    8.6536   -0.6739    0.0000 C   0  0  0  0  0  0  0  0  0
    9.3680   -1.0864    0.0000 C   0  0  0  0  0  0  0  0  0
    9.3680   -1.9114    0.0000 C   0  0  0  0  0  0  0  0  0
    8.6536   -2.3239    0.0000 C   0  0  0  0  0  0  0  0  0
    7.9391   -1.9114    0.0000 C   0  0  0  0  0  0  0  0  0
    6.8121   -1.3884    0.0000 C   0  0  0  0  0  0  0  0  0
    7.2246   -2.1029    0.0000 C   0  0  0  0  0  0  0  0  0
    6.8121   -2.8173    0.0000 C   0  0  0  0  0  0  0  0  0
    5.9871   -2.8173    0.0000 C   0  0  0  0  0  0  0  0  0
    5.5746   -2.1029    0.0000 C   0  0  0  0  0  0  0  0  0
    5.9871   -1.3884    0.0000 C   0  0  0  0  0  0  0  0  0
    7.6371    0.0405    0.0000 C   0  0  0  0  0  0  0  0  0
    7.2246    0.7550    0.0000 C   0  0  0  0  0  0  0  0  0
    7.6371    1.4695    0.0000 C   0  0  0  0  0  0  0  0  0
    8.4621    1.4695    0.0000 C   0  0  0  0  0  0  0  0  0
    8.8746    0.7550    0.0000 C   0  0  0  0  0  0  0  0  0
    8.4621    0.0405    0.0000 C   0  0  0  0  0  0  0  0  0
  1  2  2  0  0  0  0
  2  3  1  0  0  0  0
  2 28  1  0  0  0  0
  3  4  1  0  0  0  0
  4  5  1  0  0  0  0
  5  6  2  0  0  0  0
  5  7  1  0  0  0  0
  7  8  1  0  0  0  0
  8  9  1  0  0  0  0
  9 10  1  0  0  0  0
 10 11  1  0  0  0  0
 11 12  2  0  0  0  0
 11 13  1  0  0  0  0
 13 14  1  0  0  0  0
 14 15  1  0  0  0  0
 15 16  1  0  0  0  0
 15 20  1  0  0  0  0
 16 17  1  0  0  0  0
 17 18  1  0  0  0  0
 18 19  1  0  0  0  0
 19 20  1  0  0  0  0
 19 21  1  0  0  0  0
 21 22  1  0  0  0  0
 22 23  1  0  0  0  0
 22 27  1  0  0  0  0
 23 24  1  0  0  0  0
 24 25  1  0  0  0  0
 25 26  1  0  0  0  0
 26 27  1  0  0  0  0
 28 29  1  0  0  0  0
 29 30  1  0  0  0  0
 29 36  1  0  0  0  0
 29 42  1  0  0  0  0
 30 31  4  0  0  0  0
 30 35  4  0  0  0  0
 31 32  4  0  0  0  0
 32 33  4  0  0  0  0
 33 34  4  0  0  0  0
 34 35  4  0  0  0  0
 36 37  4  0  0  0  0
 36 41  4  0  0  0  0
 37 38  4  0  0  0  0
 38 39  4  0  0  0  0
 39 40  4  0  0  0  0
 40 41  4  0  0  0  0
 42 43  4  0  0  0  0
 42 47  4  0  0  0  0
 43 44  4  0  0  0  0
 44 45  4  0  0  0  0
 45 46  4  0  0  0  0
 46 47  4  0  0  0  0
M  END
>  <Name_Molregno>
292542

>  <Muscarinic acetylcholine receptor M1>
6.52

>  <Muscarinic acetylcholine receptor M2>
6.57

>  <Muscarinic acetylcholine receptor M3>
8.48

>  <Muscarinic acetylcholine receptor M4>
7.13

>  <Muscarinic acetylcholine receptor M5>
5.96

$$$$
292543
  Marvin  02231216192D 0   1.00000     0.00000     0

 46 50  0  0  1  0  0  0  0  0999 V2000
    5.5187   -1.4634    0.0000 O   0  0  0  0  0  0  0  0  0
    5.7736   -0.6788    0.0000 C   0  0  0  0  0  0  0  0  0
    5.0592   -0.2663    0.0000 N   0  0  0  0  0  0  0  0  0
    4.3447   -0.6788    0.0000 C   0  0  0  0  0  0  0  0  0
    3.6302   -0.2663    0.0000 C   0  0  0  0  0  0  0  0  0
    3.6302    0.5587    0.0000 O   0  0  0  0  0  0  0  0  0
    2.9158   -0.6788    0.0000 N   0  0  0  0  0  0  0  0  0
    2.2013   -0.2663    0.0000 C   0  0  0  0  0  0  0  0  0
    1.4868   -0.6788    0.0000 C   0  0  0  0  0  0  0  0  0
    0.7723   -0.2663    0.0000 C   0  0  0  0  0  0  0  0  0
    0.7723    0.5587    0.0000 O   0  0  0  0  0  0  0  0  0
    0.0579   -0.6788    0.0000 N   0  0  0  0  0  0  0  0  0
   -0.6566   -0.2663    0.0000 C   0  0  0  0  0  0  0  0  0
   -1.3711   -0.6788    0.0000 C   0  0  0  0  0  0  0  0  0
   -1.3711   -1.5038    0.0000 C   0  0  0  0  0  0  0  0  0
   -2.0855   -1.9163    0.0000 C   0  0  0  0  0  0  0  0  0
   -2.8000   -1.5038    0.0000 C   0  0  0  0  0  0  0  0  0
   -2.8000   -0.6788    0.0000 N   0  0  0  0  0  0  0  0  0
   -2.0855   -0.2663    0.0000 C   0  0  0  0  0  0  0  0  0
   -3.5145   -0.2663    0.0000 C   0  0  0  0  0  0  0  0  0
   -4.2290   -0.6788    0.0000 C   0  0  0  0  0  0  0  0  0
   -4.2290   -1.5038    0.0000 C   0  0  0  0  0  0  0  0  0
   -4.9434   -1.9163    0.0000 C   0  0  0  0  0  0  0  0  0
   -5.6579   -1.5038    0.0000 C   0  0  0  0  0  0  0  0  0
   -5.6579   -0.6788    0.0000 C   0  0  0  0  0  0  0  0  0
   -4.9434   -0.2663    0.0000 C   0  0  0  0  0  0  0  0  0
    6.4881   -0.2663    0.0000 C   0  0  0  0  0  0  0  0  0
    7.2026   -0.6788    0.0000 C   0  0  0  0  0  0  0  0  0
    7.9171   -1.0913    0.0000 C   0  0  0  0  0  0  0  0  0
    8.6315   -0.6788    0.0000 C   0  0  0  0  0  0  0  0  0
    9.3460   -1.0913    0.0000 C   0  0  0  0  0  0  0  0  0
    9.3460   -1.9163    0.0000 C   0  0  0  0  0  0  0  0  0
    8.6315   -2.3288    0.0000 C   0  0  0  0  0  0  0  0  0
    7.9171   -1.9163    0.0000 C   0  0  0  0  0  0  0  0  0
    6.7901   -1.3933    0.0000 C   0  0  0  0  0  0  0  0  0
    7.2026   -2.1077    0.0000 C   0  0  0  0  0  0  0  0  0
    6.7901   -2.8222    0.0000 C   0  0  0  0  0  0  0  0  0
    5.9651   -2.8222    0.0000 C   0  0  0  0  0  0  0  0  0
    5.5526   -2.1077    0.0000 C   0  0  0  0  0  0  0  0  0
    5.9651   -1.3933    0.0000 C   0  0  0  0  0  0  0  0  0
    7.6151    0.0357    0.0000 C   0  0  0  0  0  0  0  0  0
    7.2026    0.7502    0.0000 C   0  0  0  0  0  0  0  0  0
    7.6151    1.4646    0.0000 C   0  0  0  0  0  0  0  0  0
    8.4401    1.4646    0.0000 C   0  0  0  0  0  0  0  0  0
    8.8526    0.7502    0.0000 C   0  0  0  0  0  0  0  0  0
    8.4401    0.0357    0.0000 C   0  0  0  0  0  0  0  0  0
  1  2  2  0  0  0  0
  2  3  1  0  0  0  0
  2 27  1  0  0  0  0
  3  4  1  0  0  0  0
  4  5  1  0  0  0  0
  5  6  2  0  0  0  0
  5  7  1  0  0  0  0
  7  8  1  0  0  0  0
  8  9  1  0  0  0  0
  9 10  1  0  0  0  0
 10 11  2  0  0  0  0
 10 12  1  0  0  0  0
 12 13  1  0  0  0  0
 13 14  1  0  0  0  0
 14 15  1  0  0  0  0
 14 19  1  0  0  0  0
 15 16  1  0  0  0  0
 16 17  1  0  0  0  0
 17 18  1  0  0  0  0
 18 19  1  0  0  0  0
 18 20  1  0  0  0  0
 20 21  1  0  0  0  0
 21 22  1  0  0  0  0
 21 26  1  0  0  0  0
 22 23  1  0  0  0  0
 23 24  1  0  0  0  0
 24 25  1  0  0  0  0
 25 26  1  0  0  0  0
 27 28  1  0  0  0  0
 28 29  1  0  0  0  0
 28 35  1  0  0  0  0
 28 41  1  0  0  0  0
 29 30  4  0  0  0  0
 29 34  4  0  0  0  0
 30 31  4  0  0  0  0
 31 32  4  0  0  0  0
 32 33  4  0  0  0  0
 33 34  4  0  0  0  0
 35 36  4  0  0  0  0
 35 40  4  0  0  0  0
 36 37  4  0  0  0  0
 37 38  4  0  0  0  0
 38 39  4  0  0  0  0
 39 40  4  0  0  0  0
 41 42  4  0  0  0  0
 41 46  4  0  0  0  0
 42 43  4  0  0  0  0
 43 44  4  0  0  0  0
 44 45  4  0  0  0  0
 45 46  4  0  0  0  0
M  END
>  <Name_Molregno>
292543

>  <Muscarinic acetylcholine receptor M1>
6.92

>  <Muscarinic acetylcholine receptor M2>
7.52

>  <Muscarinic acetylcholine receptor M3>
9.51

>  <Muscarinic acetylcholine receptor M4>
7.85

>  <Muscarinic acetylcholine receptor M5>
7.43

$$$$
292544
  Marvin  02231216192D 0   1.00000     0.00000     0

 45 49  0  0  1  0  0  0  0  0999 V2000
    0.5850    0.8361    0.0000 O   0  0  0  0  0  0  0  0  0
    0.8400    1.6207    0.0000 C   0  0  0  0  0  0  0  0  0
    0.1255    2.0332    0.0000 N   0  0  0  0  0  0  0  0  0
   -0.5890    1.6207    0.0000 C   0  0  0  0  0  0  0  0  0
   -1.3034    2.0332    0.0000 C   0  0  0  0  0  0  0  0  0
   -2.0179    1.6207    0.0000 C   0  0  0  0  0  0  0  0  0
   -2.7324    2.0332    0.0000 C   0  0  0  0  0  0  0  0  0
   -3.4469    1.6207    0.0000 C   0  0  0  0  0  0  0  0  0
   -4.1613    2.0332    0.0000 C   0  0  0  0  0  0  0  0  0
   -4.1613    2.8582    0.0000 O   0  0  0  0  0  0  0  0  0
   -4.8758    1.6207    0.0000 N   0  0  0  0  0  0  0  0  0
   -5.5903    2.0332    0.0000 C   0  0  0  0  0  0  0  0  0
   -6.3047    1.6207    0.0000 C   0  0  0  0  0  0  0  0  0
   -6.3047    0.7957    0.0000 C   0  0  0  0  0  0  0  0  0
   -7.0192    0.3832    0.0000 C   0  0  0  0  0  0  0  0  0
   -7.7337    0.7957    0.0000 C   0  0  0  0  0  0  0  0  0
   -7.7337    1.6207    0.0000 N   0  0  0  0  0  0  0  0  0
   -7.0192    2.0332    0.0000 C   0  0  0  0  0  0  0  0  0
   -8.4482    2.0332    0.0000 C   0  0  0  0  0  0  0  0  0
   -9.1626    1.6207    0.0000 C   0  0  0  0  0  0  0  0  0
   -9.1626    0.7957    0.0000 C   0  0  0  0  0  0  0  0  0
   -9.8771    0.3832    0.0000 C   0  0  0  0  0  0  0  0  0
  -10.5916    0.7957    0.0000 C   0  0  0  0  0  0  0  0  0
  -10.5916    1.6207    0.0000 C   0  0  0  0  0  0  0  0  0
   -9.8771    2.0332    0.0000 C   0  0  0  0  0  0  0  0  0
    1.5544    2.0332    0.0000 C   0  0  0  0  0  0  0  0  0
    2.2689    1.6207    0.0000 C   0  0  0  0  0  0  0  0  0
    2.9834    1.2082    0.0000 C   0  0  0  0  0  0  0  0  0
    3.6979    1.6207    0.0000 C   0  0  0  0  0  0  0  0  0
    4.4123    1.2082    0.0000 C   0  0  0  0  0  0  0  0  0
    4.4123    0.3832    0.0000 C   0  0  0  0  0  0  0  0  0
    3.6979   -0.0293    0.0000 C   0  0  0  0  0  0  0  0  0
    2.9834    0.3832    0.0000 C   0  0  0  0  0  0  0  0  0
    1.8564    0.9063    0.0000 C   0  0  0  0  0  0  0  0  0
    2.2689    0.1918    0.0000 C   0  0  0  0  0  0  0  0  0
    1.8564   -0.5227    0.0000 C   0  0  0  0  0  0  0  0  0
    1.0314   -0.5227    0.0000 C   0  0  0  0  0  0  0  0  0
    0.6189    0.1918    0.0000 C   0  0  0  0  0  0  0  0  0
    1.0314    0.9063    0.0000 C   0  0  0  0  0  0  0  0  0
    2.6814    2.3352    0.0000 C   0  0  0  0  0  0  0  0  0
    2.2689    3.0497    0.0000 C   0  0  0  0  0  0  0  0  0
    2.6814    3.7642    0.0000 C   0  0  0  0  0  0  0  0  0
    3.5064    3.7642    0.0000 C   0  0  0  0  0  0  0  0  0
    3.9189    3.0497    0.0000 C   0  0  0  0  0  0  0  0  0
    3.5064    2.3352    0.0000 C   0  0  0  0  0  0  0  0  0
  1  2  2  0  0  0  0
  2  3  1  0  0  0  0
  2 26  1  0  0  0  0
  3  4  1  0  0  0  0
  4  5  1  0  0  0  0
  5  6  1  0  0  0  0
  6  7  1  0  0  0  0
  7  8  1  0  0  0  0
  8  9  1  0  0  0  0
  9 10  2  0  0  0  0
  9 11  1  0  0  0  0
 11 12  1  0  0  0  0
 12 13  1  0  0  0  0
 13 14  1  0  0  0  0
 13 18  1  0  0  0  0
 14 15  1  0  0  0  0
 15 16  1  0  0  0  0
 16 17  1  0  0  0  0
 17 18  1  0  0  0  0
 17 19  1  0  0  0  0
 19 20  1  0  0  0  0
 20 21  1  0  0  0  0
 20 25  1  0  0  0  0
 21 22  1  0  0  0  0
 22 23  1  0  0  0  0
 23 24  1  0  0  0  0
 24 25  1  0  0  0  0
 26 27  1  0  0  0  0
 27 28  1  0  0  0  0
 27 34  1  0  0  0  0
 27 40  1  0  0  0  0
 28 29  4  0  0  0  0
 28 33  4  0  0  0  0
 29 30  4  0  0  0  0
 30 31  4  0  0  0  0
 31 32  4  0  0  0  0
 32 33  4  0  0  0  0
 34 35  4  0  0  0  0
 34 39  4  0  0  0  0
 35 36  4  0  0  0  0
 36 37  4  0  0  0  0
 37 38  4  0  0  0  0
 38 39  4  0  0  0  0
 40 41  4  0  0  0  0
 40 45  4  0  0  0  0
 41 42  4  0  0  0  0
 42 43  4  0  0  0  0
 43 44  4  0  0  0  0
 44 45  4  0  0  0  0
M  END
>  <Name_Molregno>
292544

>  <Muscarinic acetylcholine receptor M1>
6.96

>  <Muscarinic acetylcholine receptor M2>
7.14

>  <Muscarinic acetylcholine receptor M3>
9

>  <Muscarinic acetylcholine receptor M4>
7.52

>  <Muscarinic acetylcholine receptor M5>
6.68

$$$$
293162
  Marvin  02231216192D 0   1.00000     0.00000     0

 51 57  0  0  1  0  0  0  0  0999 V2000
    2.5884   -0.4330    0.0000 O   0  0  0  0  0  0  0  0  0
    3.3029   -0.8455    0.0000 C   0  0  0  0  0  0  0  0  0
    3.3029   -1.6705    0.0000 N   0  0  0  0  0  0  0  0  0
    3.9704   -2.1555    0.0000 C   0  0  0  0  0  0  0  0  0
    3.7154   -2.9401    0.0000 C   0  0  0  0  0  0  0  0  0
    2.8904   -2.9401    0.0000 C   0  0  0  0  0  0  0  0  0
    2.6355   -2.1555    0.0000 C   0  0  0  0  0  0  0  0  0
    1.8509   -1.9005    0.0000 C   0  0  0  0  0  0  0  0  0
    1.6793   -1.0936    0.0000 O   0  0  0  0  0  0  0  0  0
    1.2378   -2.4526    0.0000 N   0  0  0  0  0  0  0  0  0
    0.4531   -2.1976    0.0000 C   0  0  0  0  0  0  0  0  0
   -0.1600   -2.7496    0.0000 C   0  0  0  0  0  0  0  0  0
    0.0116   -3.5566    0.0000 C   0  0  0  0  0  0  0  0  0
   -0.6015   -4.1087    0.0000 C   0  0  0  0  0  0  0  0  0
   -1.3861   -3.8537    0.0000 C   0  0  0  0  0  0  0  0  0
   -1.5577   -3.0467    0.0000 N   0  0  0  0  0  0  0  0  0
   -0.9446   -2.4947    0.0000 C   0  0  0  0  0  0  0  0  0
   -2.3423   -2.7918    0.0000 C   0  0  0  0  0  0  0  0  0
   -2.9554   -3.3438    0.0000 C   0  0  0  0  0  0  0  0  0
   -2.7839   -4.1508    0.0000 C   0  0  0  0  0  0  0  0  0
   -3.3970   -4.7028    0.0000 C   0  0  0  0  0  0  0  0  0
   -4.1816   -4.4479    0.0000 C   0  0  0  0  0  0  0  0  0
   -4.3531   -3.6409    0.0000 C   0  0  0  0  0  0  0  0  0
   -3.7400   -3.0889    0.0000 C   0  0  0  0  0  0  0  0  0
    4.0174   -0.4330    0.0000 C   0  0  0  0  0  0  0  0  0
    4.1036    0.3874    0.0000 N   0  0  0  0  0  0  0  0  0
    4.9106    0.5590    0.0000 C   0  0  0  0  0  0  0  0  0
    5.3231   -0.1555    0.0000 C   0  0  0  0  0  0  0  0  0
    4.7711   -0.7686    0.0000 C   0  0  0  0  0  0  0  0  0
    3.4905    0.9395    0.0000 C   0  0  0  0  0  0  0  0  0
    3.9030    1.6539    0.0000 O   0  0  0  0  0  0  0  0  0
    2.7059    0.6845    0.0000 C   0  0  0  0  0  0  0  0  0
    2.0928    1.2366    0.0000 C   0  0  0  0  0  0  0  0  0
    1.4797    1.7886    0.0000 C   0  0  0  0  0  0  0  0  0
    0.6951    1.5337    0.0000 C   0  0  0  0  0  0  0  0  0
    0.0820    2.0857    0.0000 C   0  0  0  0  0  0  0  0  0
    0.2535    2.8927    0.0000 C   0  0  0  0  0  0  0  0  0
    1.0381    3.1476    0.0000 C   0  0  0  0  0  0  0  0  0
    1.6512    2.5956    0.0000 C   0  0  0  0  0  0  0  0  0
    2.6448    1.8497    0.0000 C   0  0  0  0  0  0  0  0  0
    2.3899    2.6343    0.0000 C   0  0  0  0  0  0  0  0  0
    2.9419    3.2474    0.0000 C   0  0  0  0  0  0  0  0  0
    3.7489    3.0759    0.0000 C   0  0  0  0  0  0  0  0  0
    4.0038    2.2912    0.0000 C   0  0  0  0  0  0  0  0  0
    3.4518    1.6781    0.0000 C   0  0  0  0  0  0  0  0  0
    1.5408    0.6235    0.0000 C   0  0  0  0  0  0  0  0  0
    1.7957   -0.1611    0.0000 C   0  0  0  0  0  0  0  0  0
    1.2437   -0.7742    0.0000 C   0  0  0  0  0  0  0  0  0
    0.4367   -0.6027    0.0000 C   0  0  0  0  0  0  0  0  0
    0.1818    0.1819    0.0000 C   0  0  0  0  0  0  0  0  0
    0.7338    0.7950    0.0000 C   0  0  0  0  0  0  0  0  0
  1  2  2  0  0  0  0
  2  3  1  0  0  0  0
  2 25  1  0  0  0  0
  3  4  1  0  0  0  0
  3  7  1  0  0  0  0
  4  5  1  0  0  0  0
  5  6  1  0  0  0  0
  6  7  1  0  0  0  0
  7  8  1  0  0  0  0
  8  9  2  0  0  0  0
  8 10  1  0  0  0  0
 10 11  1  0  0  0  0
 11 12  1  0  0  0  0
 12 13  1  0  0  0  0
 12 17  1  0  0  0  0
 13 14  1  0  0  0  0
 14 15  1  0  0  0  0
 15 16  1  0  0  0  0
 16 17  1  0  0  0  0
 16 18  1  0  0  0  0
 18 19  1  0  0  0  0
 19 20  1  0  0  0  0
 19 24  1  0  0  0  0
 20 21  1  0  0  0  0
 21 22  1  0  0  0  0
 22 23  1  0  0  0  0
 23 24  1  0  0  0  0
 25 26  1  0  0  0  0
 25 29  1  0  0  0  0
 26 27  1  0  0  0  0
 26 30  1  0  0  0  0
 27 28  1  0  0  0  0
 28 29  1  0  0  0  0
 30 31  2  0  0  0  0
 30 32  1  0  0  0  0
 32 33  1  0  0  0  0
 33 34  1  0  0  0  0
 33 40  1  0  0  0  0
 33 46  1  0  0  0  0
 34 35  4  0  0  0  0
 34 39  4  0  0  0  0
 35 36  4  0  0  0  0
 36 37  4  0  0  0  0
 37 38  4  0  0  0  0
 38 39  4  0  0  0  0
 40 41  4  0  0  0  0
 40 45  4  0  0  0  0
 41 42  4  0  0  0  0
 42 43  4  0  0  0  0
 43 44  4  0  0  0  0
 44 45  4  0  0  0  0
 46 47  4  0  0  0  0
 46 51  4  0  0  0  0
 47 48  4  0  0  0  0
 48 49  4  0  0  0  0
 49 50  4  0  0  0  0
 50 51  4  0  0  0  0
M  END
>  <Name_Molregno>
293162

>  <Muscarinic acetylcholine receptor M1>
7.85

>  <Muscarinic acetylcholine receptor M2>
9.09

>  <Muscarinic acetylcholine receptor M3>
9.6

>  <Muscarinic acetylcholine receptor M4>
8.64

>  <Muscarinic acetylcholine receptor M5>
6.82

$$$$
293241
  Marvin  02231216192D 0   1.00000     0.00000     0

 49 54  0  0  1  0  0  0  0  0999 V2000
   -0.6578    0.0575    0.0000 O   0  0  0  0  0  0  0  0  0
   -0.6578    0.8825    0.0000 C   0  0  0  0  0  0  0  0  0
    0.0567    1.2950    0.0000 N   0  0  0  0  0  0  0  0  0
    0.7711    0.8825    0.0000 C   0  0  0  0  0  0  0  0  0
    1.4856    1.2950    0.0000 C   0  0  0  0  0  0  0  0  0
    2.2001    0.8825    0.0000 C   0  0  0  0  0  0  0  0  0
    2.2001    0.0575    0.0000 O   0  0  0  0  0  0  0  0  0
    2.9145    1.2950    0.0000 N   0  0  0  0  0  0  0  0  0
    3.6290    0.8825    0.0000 C   0  0  0  0  0  0  0  0  0
    4.3435    1.2950    0.0000 C   0  0  0  0  0  0  0  0  0
    4.3435    2.1200    0.0000 C   0  0  0  0  0  0  0  0  0
    5.0580    2.5325    0.0000 C   0  0  0  0  0  0  0  0  0
    5.7724    2.1200    0.0000 C   0  0  0  0  0  0  0  0  0
    5.7724    1.2950    0.0000 N   0  0  0  0  0  0  0  0  0
    5.0580    0.8825    0.0000 C   0  0  0  0  0  0  0  0  0
    6.4869    0.8825    0.0000 C   0  0  0  0  0  0  0  0  0
    7.2014    1.2950    0.0000 C   0  0  0  0  0  0  0  0  0
    7.2014    2.1200    0.0000 C   0  0  0  0  0  0  0  0  0
    7.9158    2.5325    0.0000 C   0  0  0  0  0  0  0  0  0
    8.6303    2.1200    0.0000 C   0  0  0  0  0  0  0  0  0
    8.6303    1.2950    0.0000 C   0  0  0  0  0  0  0  0  0
    7.9158    0.8825    0.0000 C   0  0  0  0  0  0  0  0  0
   -1.3723    1.2950    0.0000 C   0  0  0  0  0  0  0  0  0
   -2.1260    0.9595    0.0000 N   0  0  0  0  0  0  0  0  0
   -2.6780    1.5726    0.0000 C   0  0  0  0  0  0  0  0  0
   -2.2655    2.2870    0.0000 C   0  0  0  0  0  0  0  0  0
   -1.4585    2.1155    0.0000 C   0  0  0  0  0  0  0  0  0
   -2.2975    0.1525    0.0000 C   0  0  0  0  0  0  0  0  0
   -3.1225    0.1525    0.0000 O   0  0  0  0  0  0  0  0  0
   -1.6844   -0.3995    0.0000 C   0  0  0  0  0  0  0  0  0
   -1.8559   -1.2065    0.0000 C   0  0  0  0  0  0  0  0  0
   -2.0274   -2.0135    0.0000 C   0  0  0  0  0  0  0  0  0
   -1.4143   -2.5655    0.0000 C   0  0  0  0  0  0  0  0  0
   -1.5859   -3.3725    0.0000 C   0  0  0  0  0  0  0  0  0
   -2.3705   -3.6274    0.0000 C   0  0  0  0  0  0  0  0  0
   -2.9836   -3.0754    0.0000 C   0  0  0  0  0  0  0  0  0
   -2.8121   -2.2684    0.0000 C   0  0  0  0  0  0  0  0  0
   -2.6629   -1.0350    0.0000 C   0  0  0  0  0  0  0  0  0
   -3.2149   -1.6481    0.0000 C   0  0  0  0  0  0  0  0  0
   -4.0219   -1.4766    0.0000 C   0  0  0  0  0  0  0  0  0
   -4.2768   -0.6919    0.0000 C   0  0  0  0  0  0  0  0  0
   -3.7248   -0.0788    0.0000 C   0  0  0  0  0  0  0  0  0
   -2.9178   -0.2504    0.0000 C   0  0  0  0  0  0  0  0  0
   -1.0489   -1.3780    0.0000 C   0  0  0  0  0  0  0  0  0
   -0.4969   -0.7649    0.0000 C   0  0  0  0  0  0  0  0  0
    0.3101   -0.9365    0.0000 C   0  0  0  0  0  0  0  0  0
    0.5650   -1.7211    0.0000 C   0  0  0  0  0  0  0  0  0
    0.0130   -2.3342    0.0000 C   0  0  0  0  0  0  0  0  0
   -0.7940   -2.1627    0.0000 C   0  0  0  0  0  0  0  0  0
  1  2  2  0  0  0  0
  2  3  1  0  0  0  0
  2 23  1  0  0  0  0
  3  4  1  0  0  0  0
  4  5  1  0  0  0  0
  5  6  1  0  0  0  0
  6  7  2  0  0  0  0
  6  8  1  0  0  0  0
  8  9  1  0  0  0  0
  9 10  1  0  0  0  0
 10 11  1  0  0  0  0
 10 15  1  0  0  0  0
 11 12  1  0  0  0  0
 12 13  1  0  0  0  0
 13 14  1  0  0  0  0
 14 15  1  0  0  0  0
 14 16  1  0  0  0  0
 16 17  1  0  0  0  0
 17 18  1  0  0  0  0
 17 22  1  0  0  0  0
 18 19  1  0  0  0  0
 19 20  1  0  0  0  0
 20 21  1  0  0  0  0
 21 22  1  0  0  0  0
 23 24  1  0  0  0  0
 23 27  1  0  0  0  0
 24 25  1  0  0  0  0
 24 28  1  0  0  0  0
 25 26  1  0  0  0  0
 26 27  1  0  0  0  0
 28 29  2  0  0  0  0
 28 30  1  0  0  0  0
 30 31  1  0  0  0  0
 31 32  1  0  0  0  0
 31 38  1  0  0  0  0
 31 44  1  0  0  0  0
 32 33  4  0  0  0  0
 32 37  4  0  0  0  0
 33 34  4  0  0  0  0
 34 35  4  0  0  0  0
 35 36  4  0  0  0  0
 36 37  4  0  0  0  0
 38 39  4  0  0  0  0
 38 43  4  0  0  0  0
 39 40  4  0  0  0  0
 40 41  4  0  0  0  0
 41 42  4  0  0  0  0
 42 43  4  0  0  0  0
 44 45  4  0  0  0  0
 44 49  4  0  0  0  0
 45 46  4  0  0  0  0
 46 47  4  0  0  0  0
 47 48  4  0  0  0  0
 48 49  4  0  0  0  0
M  END
>  <Name_Molregno>
293241

>  <Muscarinic acetylcholine receptor M1>
6.82

>  <Muscarinic acetylcholine receptor M2>
7.92

>  <Muscarinic acetylcholine receptor M3>
9.33

>  <Muscarinic acetylcholine receptor M4>
7.96

>  <Muscarinic acetylcholine receptor M5>
7.24

$$$$
293242
  Marvin  02231216192D 0   1.00000     0.00000     0

 48 52  0  0  1  0  0  0  0  0999 V2000
    0.1654   -0.3216    0.0000 O   0  0  0  0  0  0  0  0  0
    0.4204    0.4630    0.0000 C   0  0  0  0  0  0  0  0  0
   -0.2941    0.8755    0.0000 N   0  0  0  0  0  0  0  0  0
   -1.0086    0.4630    0.0000 C   0  0  0  0  0  0  0  0  0
   -1.7230    0.8755    0.0000 C   0  0  0  0  0  0  0  0  0
   -2.4375    0.4630    0.0000 C   0  0  0  0  0  0  0  0  0
   -3.1520    0.8755    0.0000 C   0  0  0  0  0  0  0  0  0
   -3.1520    1.7005    0.0000 O   0  0  0  0  0  0  0  0  0
   -3.8664    0.4630    0.0000 N   0  0  0  0  0  0  0  0  0
   -4.5809    0.8755    0.0000 C   0  0  0  0  0  0  0  0  0
   -5.2954    0.4630    0.0000 C   0  0  0  0  0  0  0  0  0
   -6.0099    0.8755    0.0000 C   0  0  0  0  0  0  0  0  0
   -6.0099    1.7005    0.0000 O   0  0  0  0  0  0  0  0  0
   -6.7243    0.4630    0.0000 N   0  0  0  0  0  0  0  0  0
   -7.4388    0.8755    0.0000 C   0  0  0  0  0  0  0  0  0
   -8.1533    0.4630    0.0000 C   0  0  0  0  0  0  0  0  0
   -8.1533   -0.3620    0.0000 C   0  0  0  0  0  0  0  0  0
   -8.8677   -0.7745    0.0000 C   0  0  0  0  0  0  0  0  0
   -9.5822   -0.3620    0.0000 C   0  0  0  0  0  0  0  0  0
   -9.5822    0.4630    0.0000 N   0  0  0  0  0  0  0  0  0
   -8.8677    0.8755    0.0000 C   0  0  0  0  0  0  0  0  0
  -10.2967    0.8755    0.0000 C   0  0  0  0  0  0  0  0  0
  -11.0112    0.4630    0.0000 C   0  0  0  0  0  0  0  0  0
  -11.0112   -0.3620    0.0000 C   0  0  0  0  0  0  0  0  0
  -11.7256   -0.7745    0.0000 C   0  0  0  0  0  0  0  0  0
  -12.4401   -0.3620    0.0000 C   0  0  0  0  0  0  0  0  0
  -12.4401    0.4630    0.0000 C   0  0  0  0  0  0  0  0  0
  -11.7256    0.8755    0.0000 C   0  0  0  0  0  0  0  0  0
    1.1349    0.8755    0.0000 C   0  0  0  0  0  0  0  0  0
    1.8493    0.4630    0.0000 C   0  0  0  0  0  0  0  0  0
    2.5638    0.0505    0.0000 C   0  0  0  0  0  0  0  0  0
    3.2783    0.4630    0.0000 C   0  0  0  0  0  0  0  0  0
    3.9927    0.0505    0.0000 C   0  0  0  0  0  0  0  0  0
    3.9927   -0.7745    0.0000 C   0  0  0  0  0  0  0  0  0
    3.2783   -1.1870    0.0000 C   0  0  0  0  0  0  0  0  0
    2.5638   -0.7745    0.0000 C   0  0  0  0  0  0  0  0  0
    1.4368   -0.2515    0.0000 C   0  0  0  0  0  0  0  0  0
    1.8493   -0.9660    0.0000 C   0  0  0  0  0  0  0  0  0
    1.4368   -1.6804    0.0000 C   0  0  0  0  0  0  0  0  0
    0.6118   -1.6804    0.0000 C   0  0  0  0  0  0  0  0  0
    0.1993   -0.9660    0.0000 C   0  0  0  0  0  0  0  0  0
    0.6118   -0.2515    0.0000 C   0  0  0  0  0  0  0  0  0
    2.2618    1.1774    0.0000 C   0  0  0  0  0  0  0  0  0
    1.8493    1.8919    0.0000 C   0  0  0  0  0  0  0  0  0
    2.2618    2.6064    0.0000 C   0  0  0  0  0  0  0  0  0
    3.0868    2.6064    0.0000 C   0  0  0  0  0  0  0  0  0
    3.4993    1.8919    0.0000 C   0  0  0  0  0  0  0  0  0
    3.0868    1.1774    0.0000 C   0  0  0  0  0  0  0  0  0
  1  2  2  0  0  0  0
  2  3  1  0  0  0  0
  2 29  1  0  0  0  0
  3  4  1  0  0  0  0
  4  5  1  0  0  0  0
  5  6  1  0  0  0  0
  6  7  1  0  0  0  0
  7  8  2  0  0  0  0
  7  9  1  0  0  0  0
  9 10  1  0  0  0  0
 10 11  1  0  0  0  0
 11 12  1  0  0  0  0
 12 13  2  0  0  0  0
 12 14  1  0  0  0  0
 14 15  1  0  0  0  0
 15 16  1  0  0  0  0
 16 17  1  0  0  0  0
 16 21  1  0  0  0  0
 17 18  1  0  0  0  0
 18 19  1  0  0  0  0
 19 20  1  0  0  0  0
 20 21  1  0  0  0  0
 20 22  1  0  0  0  0
 22 23  1  0  0  0  0
 23 24  1  0  0  0  0
 23 28  1  0  0  0  0
 24 25  1  0  0  0  0
 25 26  1  0  0  0  0
 26 27  1  0  0  0  0
 27 28  1  0  0  0  0
 29 30  1  0  0  0  0
 30 31  1  0  0  0  0
 30 37  1  0  0  0  0
 30 43  1  0  0  0  0
 31 32  4  0  0  0  0
 31 36  4  0  0  0  0
 32 33  4  0  0  0  0
 33 34  4  0  0  0  0
 34 35  4  0  0  0  0
 35 36  4  0  0  0  0
 37 38  4  0  0  0  0
 37 42  4  0  0  0  0
 38 39  4  0  0  0  0
 39 40  4  0  0  0  0
 40 41  4  0  0  0  0
 41 42  4  0  0  0  0
 43 44  4  0  0  0  0
 43 48  4  0  0  0  0
 44 45  4  0  0  0  0
 45 46  4  0  0  0  0
 46 47  4  0  0  0  0
 47 48  4  0  0  0  0
M  END
>  <Name_Molregno>
293242

>  <Muscarinic acetylcholine receptor M1>
7.11

>  <Muscarinic acetylcholine receptor M2>
7.77

>  <Muscarinic acetylcholine receptor M3>
8.68

>  <Muscarinic acetylcholine receptor M4>
7.22

>  <Muscarinic acetylcholine receptor M5>
6.7

$$$$
293431
  Marvin  02231216192D 0   1.00000     0.00000     0

 47 51  0  0  1  0  0  0  0  0999 V2000
    6.4755   -2.0858    0.0000 O   0  0  0  0  0  0  0  0  0
    6.7304   -1.3012    0.0000 C   0  0  0  0  0  0  0  0  0
    6.0160   -0.8887    0.0000 N   0  0  0  0  0  0  0  0  0
    5.3015   -1.3012    0.0000 C   0  0  0  0  0  0  0  0  0
    4.5870   -0.8887    0.0000 C   0  0  0  0  0  0  0  0  0
    3.8725   -1.3012    0.0000 C   0  0  0  0  0  0  0  0  0
    3.8725   -2.1262    0.0000 O   0  0  0  0  0  0  0  0  0
    3.1581   -0.8887    0.0000 N   0  0  0  0  0  0  0  0  0
    2.4436   -1.3012    0.0000 C   0  0  0  0  0  0  0  0  0
    1.7291   -0.8887    0.0000 C   0  0  0  0  0  0  0  0  0
    1.0147   -1.3012    0.0000 C   0  0  0  0  0  0  0  0  0
    1.0147   -2.1262    0.0000 O   0  0  0  0  0  0  0  0  0
    0.3002   -0.8887    0.0000 N   0  0  0  0  0  0  0  0  0
   -0.4143   -1.3012    0.0000 C   0  0  0  0  0  0  0  0  0
   -1.1288   -0.8887    0.0000 C   0  0  0  0  0  0  0  0  0
   -1.8432   -1.3012    0.0000 C   0  0  0  0  0  0  0  0  0
   -2.5577   -0.8887    0.0000 C   0  0  0  0  0  0  0  0  0
   -2.5577   -0.0637    0.0000 C   0  0  0  0  0  0  0  0  0
   -1.8432    0.3488    0.0000 N   0  0  0  0  0  0  0  0  0
   -1.1288   -0.0637    0.0000 C   0  0  0  0  0  0  0  0  0
   -1.8432    1.1738    0.0000 C   0  0  0  0  0  0  0  0  0
   -2.5577    1.5863    0.0000 C   0  0  0  0  0  0  0  0  0
   -3.2722    1.1738    0.0000 C   0  0  0  0  0  0  0  0  0
   -3.9866    1.5863    0.0000 C   0  0  0  0  0  0  0  0  0
   -3.9866    2.4113    0.0000 C   0  0  0  0  0  0  0  0  0
   -3.2722    2.8238    0.0000 C   0  0  0  0  0  0  0  0  0
   -2.5577    2.4113    0.0000 C   0  0  0  0  0  0  0  0  0
    7.4449   -0.8887    0.0000 C   0  0  0  0  0  0  0  0  0
    8.1594   -1.3012    0.0000 C   0  0  0  0  0  0  0  0  0
    8.8738   -1.7137    0.0000 C   0  0  0  0  0  0  0  0  0
    9.5883   -1.3012    0.0000 C   0  0  0  0  0  0  0  0  0
   10.3028   -1.7137    0.0000 C   0  0  0  0  0  0  0  0  0
   10.3028   -2.5387    0.0000 C   0  0  0  0  0  0  0  0  0
    9.5883   -2.9512    0.0000 C   0  0  0  0  0  0  0  0  0
    8.8738   -2.5387    0.0000 C   0  0  0  0  0  0  0  0  0
    7.7469   -2.0156    0.0000 C   0  0  0  0  0  0  0  0  0
    8.1594   -2.7301    0.0000 C   0  0  0  0  0  0  0  0  0
    7.7469   -3.4446    0.0000 C   0  0  0  0  0  0  0  0  0
    6.9219   -3.4446    0.0000 C   0  0  0  0  0  0  0  0  0
    6.5094   -2.7301    0.0000 C   0  0  0  0  0  0  0  0  0
    6.9219   -2.0156    0.0000 C   0  0  0  0  0  0  0  0  0
    8.5719   -0.5867    0.0000 C   0  0  0  0  0  0  0  0  0
    8.1594    0.1278    0.0000 C   0  0  0  0  0  0  0  0  0
    8.5719    0.8422    0.0000 C   0  0  0  0  0  0  0  0  0
    9.3969    0.8422    0.0000 C   0  0  0  0  0  0  0  0  0
    9.8094    0.1278    0.0000 C   0  0  0  0  0  0  0  0  0
    9.3969   -0.5867    0.0000 C   0  0  0  0  0  0  0  0  0
  1  2  2  0  0  0  0
  2  3  1  0  0  0  0
  2 28  1  0  0  0  0
  3  4  1  0  0  0  0
  4  5  1  0  0  0  0
  5  6  1  0  0  0  0
  6  7  2  0  0  0  0
  6  8  1  0  0  0  0
  8  9  1  0  0  0  0
  9 10  1  0  0  0  0
 10 11  1  0  0  0  0
 11 12  2  0  0  0  0
 11 13  1  0  0  0  0
 13 14  1  0  0  0  0
 14 15  1  0  0  0  0
 15 16  1  0  0  0  0
 15 20  1  0  0  0  0
 16 17  1  0  0  0  0
 17 18  1  0  0  0  0
 18 19  1  0  0  0  0
 19 20  1  0  0  0  0
 19 21  1  0  0  0  0
 21 22  1  0  0  0  0
 22 23  1  0  0  0  0
 22 27  1  0  0  0  0
 23 24  1  0  0  0  0
 24 25  1  0  0  0  0
 25 26  1  0  0  0  0
 26 27  1  0  0  0  0
 28 29  1  0  0  0  0
 29 30  1  0  0  0  0
 29 36  1  0  0  0  0
 29 42  1  0  0  0  0
 30 31  4  0  0  0  0
 30 35  4  0  0  0  0
 31 32  4  0  0  0  0
 32 33  4  0  0  0  0
 33 34  4  0  0  0  0
 34 35  4  0  0  0  0
 36 37  4  0  0  0  0
 36 41  4  0  0  0  0
 37 38  4  0  0  0  0
 38 39  4  0  0  0  0
 39 40  4  0  0  0  0
 40 41  4  0  0  0  0
 42 43  4  0  0  0  0
 42 47  4  0  0  0  0
 43 44  4  0  0  0  0
 44 45  4  0  0  0  0
 45 46  4  0  0  0  0
 46 47  4  0  0  0  0
M  END
>  <Name_Molregno>
293431

>  <Muscarinic acetylcholine receptor M1>
7.44

>  <Muscarinic acetylcholine receptor M2>
7.36

>  <Muscarinic acetylcholine receptor M3>
9.12

>  <Muscarinic acetylcholine receptor M4>
7.51

>  <Muscarinic acetylcholine receptor M5>
7.52

$$$$
295069
  Marvin  02231216192D 0   1.00000     0.00000     0

 48 53  0  0  1  0  0  0  0  0999 V2000
    1.1729    0.0543    0.0000 O   0  0  0  0  0  0  0  0  0
    0.4585   -0.3582    0.0000 C   0  0  0  0  0  0  0  0  0
   -0.2560    0.0543    0.0000 N   0  0  0  0  0  0  0  0  0
   -0.2560    0.8793    0.0000 C   0  0  0  0  0  0  0  0  0
   -0.9705    1.2918    0.0000 C   0  0  0  0  0  0  0  0  0
   -1.6850    0.8793    0.0000 O   0  0  0  0  0  0  0  0  0
   -0.9705    2.1168    0.0000 N   0  0  0  0  0  0  0  0  0
   -1.6850    2.5293    0.0000 C   0  0  0  0  0  0  0  0  0
   -1.6850    3.3543    0.0000 C   0  0  0  0  0  0  0  0  0
   -2.3994    3.7668    0.0000 C   0  0  0  0  0  0  0  0  0
   -2.3994    4.5918    0.0000 C   0  0  0  0  0  0  0  0  0
   -1.6850    5.0043    0.0000 C   0  0  0  0  0  0  0  0  0
   -0.9705    4.5918    0.0000 N   0  0  0  0  0  0  0  0  0
   -0.9705    3.7668    0.0000 C   0  0  0  0  0  0  0  0  0
   -0.2560    5.0043    0.0000 C   0  0  0  0  0  0  0  0  0
   -0.2560    5.8293    0.0000 C   0  0  0  0  0  0  0  0  0
   -0.9705    6.2418    0.0000 C   0  0  0  0  0  0  0  0  0
   -0.9705    7.0668    0.0000 C   0  0  0  0  0  0  0  0  0
   -0.2560    7.4793    0.0000 C   0  0  0  0  0  0  0  0  0
    0.4585    7.0668    0.0000 C   0  0  0  0  0  0  0  0  0
    0.4585    6.2418    0.0000 C   0  0  0  0  0  0  0  0  0
    0.4585   -1.1832    0.0000 C   0  0  0  0  0  0  0  0  0
    1.1259   -1.6681    0.0000 N   0  0  0  0  0  0  0  0  0
    0.8710   -2.4527    0.0000 C   0  0  0  0  0  0  0  0  0
    0.0460   -2.4527    0.0000 C   0  0  0  0  0  0  0  0  0
   -0.2090   -1.6681    0.0000 C   0  0  0  0  0  0  0  0  0
    1.9105   -1.4131    0.0000 C   0  0  0  0  0  0  0  0  0
    2.3230   -2.1276    0.0000 O   0  0  0  0  0  0  0  0  0
    2.0820   -0.6062    0.0000 C   0  0  0  0  0  0  0  0  0
    2.8667   -0.3512    0.0000 C   0  0  0  0  0  0  0  0  0
    3.6513   -0.0963    0.0000 C   0  0  0  0  0  0  0  0  0
    3.8228    0.7107    0.0000 C   0  0  0  0  0  0  0  0  0
    4.6074    0.9656    0.0000 C   0  0  0  0  0  0  0  0  0
    5.2205    0.4136    0.0000 C   0  0  0  0  0  0  0  0  0
    5.0490   -0.3934    0.0000 C   0  0  0  0  0  0  0  0  0
    4.2644   -0.6483    0.0000 C   0  0  0  0  0  0  0  0  0
    3.1216   -1.1359    0.0000 C   0  0  0  0  0  0  0  0  0
    3.9286   -1.3074    0.0000 C   0  0  0  0  0  0  0  0  0
    4.1835   -2.0920    0.0000 C   0  0  0  0  0  0  0  0  0
    3.6315   -2.7051    0.0000 C   0  0  0  0  0  0  0  0  0
    2.8245   -2.5336    0.0000 C   0  0  0  0  0  0  0  0  0
    2.5696   -1.7489    0.0000 C   0  0  0  0  0  0  0  0  0
    2.6117    0.4334    0.0000 C   0  0  0  0  0  0  0  0  0
    1.8048    0.6049    0.0000 C   0  0  0  0  0  0  0  0  0
    1.5498    1.3895    0.0000 C   0  0  0  0  0  0  0  0  0
    2.1019    2.0026    0.0000 C   0  0  0  0  0  0  0  0  0
    2.9088    1.8311    0.0000 C   0  0  0  0  0  0  0  0  0
    3.1638    1.0465    0.0000 C   0  0  0  0  0  0  0  0  0
  1  2  2  0  0  0  0
  2  3  1  0  0  0  0
  2 22  1  0  0  0  0
  3  4  1  0  0  0  0
  4  5  1  0  0  0  0
  5  6  2  0  0  0  0
  5  7  1  0  0  0  0
  7  8  1  0  0  0  0
  8  9  1  0  0  0  0
  9 10  1  0  0  0  0
  9 14  1  0  0  0  0
 10 11  1  0  0  0  0
 11 12  1  0  0  0  0
 12 13  1  0  0  0  0
 13 14  1  0  0  0  0
 13 15  1  0  0  0  0
 15 16  1  0  0  0  0
 16 17  1  0  0  0  0
 16 21  1  0  0  0  0
 17 18  1  0  0  0  0
 18 19  1  0  0  0  0
 19 20  1  0  0  0  0
 20 21  1  0  0  0  0
 22 23  1  0  0  0  0
 22 26  1  0  0  0  0
 23 24  1  0  0  0  0
 23 27  1  0  0  0  0
 24 25  1  0  0  0  0
 25 26  1  0  0  0  0
 27 28  2  0  0  0  0
 27 29  1  0  0  0  0
 29 30  1  0  0  0  0
 30 31  1  0  0  0  0
 30 37  1  0  0  0  0
 30 43  1  0  0  0  0
 31 32  4  0  0  0  0
 31 36  4  0  0  0  0
 32 33  4  0  0  0  0
 33 34  4  0  0  0  0
 34 35  4  0  0  0  0
 35 36  4  0  0  0  0
 37 38  4  0  0  0  0
 37 42  4  0  0  0  0
 38 39  4  0  0  0  0
 39 40  4  0  0  0  0
 40 41  4  0  0  0  0
 41 42  4  0  0  0  0
 43 44  4  0  0  0  0
 43 48  4  0  0  0  0
 44 45  4  0  0  0  0
 45 46  4  0  0  0  0
 46 47  4  0  0  0  0
 47 48  4  0  0  0  0
M  END
>  <Name_Molregno>
295069

>  <Muscarinic acetylcholine receptor M1>
6.82

>  <Muscarinic acetylcholine receptor M2>
7.89

>  <Muscarinic acetylcholine receptor M3>
8.66

>  <Muscarinic acetylcholine receptor M4>
7.37

>  <Muscarinic acetylcholine receptor M5>
5.7

$$$$
327069
  Marvin  02231216192D 0   1.00000     0.00000     0

 31 34  0  0  0  0  0  0  0  0999 V2000
    4.9165    5.1026    0.0000 Cl  0  0  0  0  0  0  0  0  0
    4.9165    4.2776    0.0000 C   0  0  0  0  0  0  0  0  0
    5.6310    3.8651    0.0000 C   0  0  0  0  0  0  0  0  0
    5.6310    3.0401    0.0000 C   0  0  0  0  0  0  0  0  0
    4.9165    2.6276    0.0000 C   0  0  0  0  0  0  0  0  0
    4.9165    1.8026    0.0000 N   0  0  0  0  0  0  0  0  0
    5.6310    1.3901    0.0000 C   0  0  0  0  0  0  0  0  0
    5.6310    0.5651    0.0000 C   0  0  0  0  0  0  0  0  0
    4.9165    0.1526    0.0000 N   0  0  0  0  0  0  0  0  0
    4.2021    0.5651    0.0000 C   0  0  0  0  0  0  0  0  0
    4.2021    1.3901    0.0000 C   0  0  0  0  0  0  0  0  0
    4.9165   -0.6724    0.0000 C   0  0  0  0  0  0  0  0  0
    4.2021   -1.0849    0.0000 O   0  0  0  0  0  0  0  0  0
    5.6310   -1.0849    0.0000 N   0  0  0  0  0  0  0  0  0
    5.6310   -1.9099    0.0000 C   0  0  0  0  0  0  0  0  0
    6.3455   -2.3224    0.0000 C   0  0  0  0  0  0  0  0  0
    6.3455   -3.1474    0.0000 C   0  0  0  0  0  0  0  0  0
    7.0599   -3.5599    0.0000 N   0  0  0  0  0  0  0  0  0
    7.7744   -3.1474    0.0000 C   0  0  0  0  0  0  0  0  0
    8.4889   -3.5599    0.0000 C   0  0  0  0  0  0  0  0  0
    8.4889   -4.3849    0.0000 N   0  0  0  0  0  0  0  0  0
    7.7744   -4.7974    0.0000 C   0  0  0  0  0  0  0  0  0
    7.0599   -4.3849    0.0000 C   0  0  0  0  0  0  0  0  0
    9.2034   -4.7974    0.0000 C   0  0  0  0  0  0  0  0  0
    5.6310   -3.5599    0.0000 C   0  0  0  0  0  0  0  0  0
    5.6310   -4.3849    0.0000 O   0  0  0  0  0  0  0  0  0
    4.9165   -4.7974    0.0000 C   0  0  0  0  0  0  0  0  0
    4.9165   -3.1474    0.0000 C   0  0  0  0  0  0  0  0  0
    4.9165   -2.3224    0.0000 C   0  0  0  0  0  0  0  0  0
    4.2021    3.0401    0.0000 C   0  0  0  0  0  0  0  0  0
    4.2021    3.8651    0.0000 C   0  0  0  0  0  0  0  0  0
  1  2  1  0  0  0  0
  2  3  4  0  0  0  0
  2 31  4  0  0  0  0
  3  4  4  0  0  0  0
  4  5  4  0  0  0  0
  5  6  1  0  0  0  0
  5 30  4  0  0  0  0
  6  7  1  0  0  0  0
  6 11  1  0  0  0  0
  7  8  1  0  0  0  0
  8  9  1  0  0  0  0
  9 10  1  0  0  0  0
  9 12  1  0  0  0  0
 10 11  1  0  0  0  0
 12 13  2  0  0  0  0
 12 14  1  0  0  0  0
 14 15  1  0  0  0  0
 15 16  4  0  0  0  0
 15 29  4  0  0  0  0
 16 17  4  0  0  0  0
 17 18  1  0  0  0  0
 17 25  4  0  0  0  0
 18 19  1  0  0  0  0
 18 23  1  0  0  0  0
 19 20  1  0  0  0  0
 20 21  1  0  0  0  0
 21 22  1  0  0  0  0
 21 24  1  0  0  0  0
 22 23  1  0  0  0  0
 25 26  1  0  0  0  0
 25 28  4  0  0  0  0
 26 27  1  0  0  0  0
 28 29  4  0  0  0  0
 30 31  4  0  0  0  0
M  END
>  <Name_Molregno>
327069

>  <5-HT1A>
7.28

>  <5-HT1B>
8.74

>  <5-HT1D>
8.19

>  <5-HT2A>
6

>  <5-HT2C>
6.57

>  <5-HT6>
5.29

>  <5-HT7>
5

>  <DOPAMINE D1>
5

>  <DOPAMINE D2>
5

>  <DOPAMINE D3>
5

>  <DOPAMINE D4>
5

>  <DOPAMINE D5>
5

>  <HISTAMINE H1>
5

>  <Muscarinic acetylcholine receptor M1>
5

>  <Muscarinic acetylcholine receptor M2>
5

>  <Muscarinic acetylcholine receptor M3>
5

>  <Muscarinic acetylcholine receptor M4>
5

>  <Muscarinic acetylcholine receptor M5>
5

$$$$
327077
  Marvin  02231216192D 0   1.00000     0.00000     0

 31 34  0  0  0  0  0  0  0  0999 V2000
    4.9165    5.1026    0.0000 F   0  0  0  0  0  0  0  0  0
    4.9165    4.2776    0.0000 C   0  0  0  0  0  0  0  0  0
    5.6310    3.8651    0.0000 C   0  0  0  0  0  0  0  0  0
    5.6310    3.0401    0.0000 C   0  0  0  0  0  0  0  0  0
    4.9165    2.6276    0.0000 C   0  0  0  0  0  0  0  0  0
    4.9165    1.8026    0.0000 N   0  0  0  0  0  0  0  0  0
    5.6310    1.3901    0.0000 C   0  0  0  0  0  0  0  0  0
    5.6310    0.5651    0.0000 C   0  0  0  0  0  0  0  0  0
    4.9165    0.1526    0.0000 N   0  0  0  0  0  0  0  0  0
    4.2021    0.5651    0.0000 C   0  0  0  0  0  0  0  0  0
    4.2021    1.3901    0.0000 C   0  0  0  0  0  0  0  0  0
    4.9165   -0.6724    0.0000 C   0  0  0  0  0  0  0  0  0
    4.2021   -1.0849    0.0000 O   0  0  0  0  0  0  0  0  0
    5.6310   -1.0849    0.0000 N   0  0  0  0  0  0  0  0  0
    5.6310   -1.9099    0.0000 C   0  0  0  0  0  0  0  0  0
    6.3455   -2.3224    0.0000 C   0  0  0  0  0  0  0  0  0
    6.3455   -3.1474    0.0000 C   0  0  0  0  0  0  0  0  0
    7.0599   -3.5599    0.0000 N   0  0  0  0  0  0  0  0  0
    7.7744   -3.1474    0.0000 C   0  0  0  0  0  0  0  0  0
    8.4889   -3.5599    0.0000 C   0  0  0  0  0  0  0  0  0
    8.4889   -4.3849    0.0000 N   0  0  0  0  0  0  0  0  0
    7.7744   -4.7974    0.0000 C   0  0  0  0  0  0  0  0  0
    7.0599   -4.3849    0.0000 C   0  0  0  0  0  0  0  0  0
    9.2034   -4.7974    0.0000 C   0  0  0  0  0  0  0  0  0
    5.6310   -3.5599    0.0000 C   0  0  0  0  0  0  0  0  0
    5.6310   -4.3849    0.0000 O   0  0  0  0  0  0  0  0  0
    4.9165   -4.7974    0.0000 C   0  0  0  0  0  0  0  0  0
    4.9165   -3.1474    0.0000 C   0  0  0  0  0  0  0  0  0
    4.9165   -2.3224    0.0000 C   0  0  0  0  0  0  0  0  0
    4.2021    3.0401    0.0000 C   0  0  0  0  0  0  0  0  0
    4.2021    3.8651    0.0000 C   0  0  0  0  0  0  0  0  0
  1  2  1  0  0  0  0
  2  3  4  0  0  0  0
  2 31  4  0  0  0  0
  3  4  4  0  0  0  0
  4  5  4  0  0  0  0
  5  6  1  0  0  0  0
  5 30  4  0  0  0  0
  6  7  1  0  0  0  0
  6 11  1  0  0  0  0
  7  8  1  0  0  0  0
  8  9  1  0  0  0  0
  9 10  1  0  0  0  0
  9 12  1  0  0  0  0
 10 11  1  0  0  0  0
 12 13  2  0  0  0  0
 12 14  1  0  0  0  0
 14 15  1  0  0  0  0
 15 16  4  0  0  0  0
 15 29  4  0  0  0  0
 16 17  4  0  0  0  0
 17 18  1  0  0  0  0
 17 25  4  0  0  0  0
 18 19  1  0  0  0  0
 18 23  1  0  0  0  0
 19 20  1  0  0  0  0
 20 21  1  0  0  0  0
 21 22  1  0  0  0  0
 21 24  1  0  0  0  0
 22 23  1  0  0  0  0
 25 26  1  0  0  0  0
 25 28  4  0  0  0  0
 26 27  1  0  0  0  0
 28 29  4  0  0  0  0
 30 31  4  0  0  0  0
M  END
>  <Name_Molregno>
327077

>  <5-HT1A>
5.97

>  <5-HT1B>
7.42

>  <5-HT1D>
6.77

>  <5-HT2A>
5.35

>  <5-HT2C>
5

>  <5-HT6>
5

>  <5-HT7>
5

>  <DOPAMINE D1>
5

>  <DOPAMINE D2>
5

>  <DOPAMINE D3>
5

>  <DOPAMINE D4>
5

>  <DOPAMINE D5>
5

>  <HISTAMINE H1>
5

>  <Muscarinic acetylcholine receptor M1>
5

>  <Muscarinic acetylcholine receptor M2>
5

>  <Muscarinic acetylcholine receptor M3>
5

>  <Muscarinic acetylcholine receptor M4>
5

>  <Muscarinic acetylcholine receptor M5>
5

$$$$
327082
  Marvin  02231216192D 0   1.00000     0.00000     0

 36 40  0  0  0  0  0  0  0  0999 V2000
   -4.3490    4.5404    0.0000 O   0  0  0  0  0  0  0  0  0
   -5.0635    4.9529    0.0000 C   0  0  0  0  0  0  0  0  0
   -4.3490    3.7154    0.0000 C   0  0  0  0  0  0  0  0  0
   -3.6345    3.3029    0.0000 C   0  0  0  0  0  0  0  0  0
   -3.6345    2.4779    0.0000 C   0  0  0  0  0  0  0  0  0
   -4.3490    2.0654    0.0000 C   0  0  0  0  0  0  0  0  0
   -4.3490    1.2404    0.0000 N   0  0  0  0  0  0  0  0  0
   -3.6345    0.8279    0.0000 C   0  0  0  0  0  0  0  0  0
   -2.9201    1.2404    0.0000 O   0  0  0  0  0  0  0  0  0
   -3.6345    0.0029    0.0000 N   0  0  0  0  0  0  0  0  0
   -2.9201   -0.4096    0.0000 C   0  0  0  0  0  0  0  0  0
   -2.9201   -1.2346    0.0000 C   0  0  0  0  0  0  0  0  0
   -3.6345   -1.6471    0.0000 N   0  0  0  0  0  0  0  0  0
   -4.3490   -1.2346    0.0000 C   0  0  0  0  0  0  0  0  0
   -4.3490   -0.4096    0.0000 C   0  0  0  0  0  0  0  0  0
   -3.6345   -2.4721    0.0000 C   0  0  0  0  0  0  0  0  0
   -2.9201   -2.8846    0.0000 C   0  0  0  0  0  0  0  0  0
   -2.9201   -3.7096    0.0000 C   0  0  0  0  0  0  0  0  0
   -3.6345   -4.1221    0.0000 C   0  0  0  0  0  0  0  0  0
   -4.3490   -3.7096    0.0000 C   0  0  0  0  0  0  0  0  0
   -4.3490   -2.8846    0.0000 C   0  0  0  0  0  0  0  0  0
   -3.6345   -4.9471    0.0000 C   0  0  0  0  0  0  0  0  0
   -2.9201   -5.3596    0.0000 C   0  0  0  0  0  0  0  0  0
   -2.9201   -6.1846    0.0000 C   0  0  0  0  0  0  0  0  0
   -3.6345   -6.5971    0.0000 C   0  0  0  0  0  0  0  0  0
   -4.3490   -6.1846    0.0000 C   0  0  0  0  0  0  0  0  0
   -4.3490   -5.3596    0.0000 C   0  0  0  0  0  0  0  0  0
   -5.0635    2.4779    0.0000 C   0  0  0  0  0  0  0  0  0
   -5.0635    3.3029    0.0000 C   0  0  0  0  0  0  0  0  0
   -5.7779    3.7154    0.0000 N   0  0  0  0  0  0  0  0  0
   -6.4924    3.3029    0.0000 C   0  0  0  0  0  0  0  0  0
   -7.2069    3.7154    0.0000 C   0  0  0  0  0  0  0  0  0
   -7.2069    4.5404    0.0000 N   0  0  0  0  0  0  0  0  0
   -6.4924    4.9529    0.0000 C   0  0  0  0  0  0  0  0  0
   -5.7779    4.5404    0.0000 C   0  0  0  0  0  0  0  0  0
   -7.9214    4.9529    0.0000 C   0  0  0  0  0  0  0  0  0
  1  2  1  0  0  0  0
  1  3  1  0  0  0  0
  3  4  4  0  0  0  0
  3 29  4  0  0  0  0
  4  5  4  0  0  0  0
  5  6  4  0  0  0  0
  6  7  1  0  0  0  0
  6 28  4  0  0  0  0
  7  8  1  0  0  0  0
  8  9  2  0  0  0  0
  8 10  1  0  0  0  0
 10 11  1  0  0  0  0
 10 15  1  0  0  0  0
 11 12  1  0  0  0  0
 12 13  1  0  0  0  0
 13 14  1  0  0  0  0
 13 16  1  0  0  0  0
 14 15  1  0  0  0  0
 16 17  4  0  0  0  0
 16 21  4  0  0  0  0
 17 18  4  0  0  0  0
 18 19  4  0  0  0  0
 19 20  4  0  0  0  0
 19 22  1  0  0  0  0
 20 21  4  0  0  0  0
 22 23  4  0  0  0  0
 22 27  4  0  0  0  0
 23 24  4  0  0  0  0
 24 25  4  0  0  0  0
 25 26  4  0  0  0  0
 26 27  4  0  0  0  0
 28 29  4  0  0  0  0
 29 30  1  0  0  0  0
 30 31  1  0  0  0  0
 30 35  1  0  0  0  0
 31 32  1  0  0  0  0
 32 33  1  0  0  0  0
 33 34  1  0  0  0  0
 33 36  1  0  0  0  0
 34 35  1  0  0  0  0
M  END
>  <Name_Molregno>
327082

>  <5-HT1A>
6.39

>  <5-HT1B>
7.86

>  <5-HT1D>
6.68

>  <5-HT2A>
6.77

>  <5-HT2C>
8.19

>  <5-HT6>
5.84

>  <5-HT7>
5

>  <DOPAMINE D1>
5

>  <DOPAMINE D2>
5

>  <DOPAMINE D3>
5

>  <DOPAMINE D4>
5

>  <DOPAMINE D5>
5

>  <HISTAMINE H1>
5

>  <Muscarinic acetylcholine receptor M1>
5

>  <Muscarinic acetylcholine receptor M2>
5

>  <Muscarinic acetylcholine receptor M3>
5

>  <Muscarinic acetylcholine receptor M4>
5

>  <Muscarinic acetylcholine receptor M5>
5

$$$$
327083
  Marvin  02231216192D 0   1.00000     0.00000     0

 34 37  0  0  0  0  0  0  0  0999 V2000
    5.2566    5.4075    0.0000 F   0  0  0  0  0  0  0  0  0
    5.2566    4.5825    0.0000 C   0  0  0  0  0  0  0  0  0
    4.4316    4.5825    0.0000 F   0  0  0  0  0  0  0  0  0
    6.0816    4.5825    0.0000 F   0  0  0  0  0  0  0  0  0
    5.2566    3.7575    0.0000 C   0  0  0  0  0  0  0  0  0
    5.9711    3.3450    0.0000 C   0  0  0  0  0  0  0  0  0
    5.9711    2.5200    0.0000 C   0  0  0  0  0  0  0  0  0
    5.2566    2.1075    0.0000 C   0  0  0  0  0  0  0  0  0
    5.2566    1.2825    0.0000 N   0  0  0  0  0  0  0  0  0
    5.9711    0.8700    0.0000 C   0  0  0  0  0  0  0  0  0
    5.9711    0.0450    0.0000 C   0  0  0  0  0  0  0  0  0
    5.2566   -0.3675    0.0000 N   0  0  0  0  0  0  0  0  0
    4.5421    0.0450    0.0000 C   0  0  0  0  0  0  0  0  0
    4.5421    0.8700    0.0000 C   0  0  0  0  0  0  0  0  0
    5.2566   -1.1925    0.0000 C   0  0  0  0  0  0  0  0  0
    4.5421   -1.6050    0.0000 O   0  0  0  0  0  0  0  0  0
    5.9711   -1.6050    0.0000 N   0  0  0  0  0  0  0  0  0
    5.9711   -2.4300    0.0000 C   0  0  0  0  0  0  0  0  0
    6.6855   -2.8425    0.0000 C   0  0  0  0  0  0  0  0  0
    6.6855   -3.6675    0.0000 C   0  0  0  0  0  0  0  0  0
    7.4000   -4.0800    0.0000 N   0  0  0  0  0  0  0  0  0
    8.1145   -3.6675    0.0000 C   0  0  0  0  0  0  0  0  0
    8.8289   -4.0800    0.0000 C   0  0  0  0  0  0  0  0  0
    8.8289   -4.9050    0.0000 N   0  0  0  0  0  0  0  0  0
    8.1145   -5.3175    0.0000 C   0  0  0  0  0  0  0  0  0
    7.4000   -4.9050    0.0000 C   0  0  0  0  0  0  0  0  0
    9.5434   -5.3175    0.0000 C   0  0  0  0  0  0  0  0  0
    5.9711   -4.0800    0.0000 C   0  0  0  0  0  0  0  0  0
    5.9711   -4.9050    0.0000 O   0  0  0  0  0  0  0  0  0
    5.2566   -5.3175    0.0000 C   0  0  0  0  0  0  0  0  0
    5.2566   -3.6675    0.0000 C   0  0  0  0  0  0  0  0  0
    5.2566   -2.8425    0.0000 C   0  0  0  0  0  0  0  0  0
    4.5421    2.5200    0.0000 C   0  0  0  0  0  0  0  0  0
    4.5421    3.3450    0.0000 C   0  0  0  0  0  0  0  0  0
  1  2  1  0  0  0  0
  2  3  1  0  0  0  0
  2  4  1  0  0  0  0
  2  5  1  0  0  0  0
  5  6  4  0  0  0  0
  5 34  4  0  0  0  0
  6  7  4  0  0  0  0
  7  8  4  0  0  0  0
  8  9  1  0  0  0  0
  8 33  4  0  0  0  0
  9 10  1  0  0  0  0
  9 14  1  0  0  0  0
 10 11  1  0  0  0  0
 11 12  1  0  0  0  0
 12 13  1  0  0  0  0
 12 15  1  0  0  0  0
 13 14  1  0  0  0  0
 15 16  2  0  0  0  0
 15 17  1  0  0  0  0
 17 18  1  0  0  0  0
 18 19  4  0  0  0  0
 18 32  4  0  0  0  0
 19 20  4  0  0  0  0
 20 21  1  0  0  0  0
 20 28  4  0  0  0  0
 21 22  1  0  0  0  0
 21 26  1  0  0  0  0
 22 23  1  0  0  0  0
 23 24  1  0  0  0  0
 24 25  1  0  0  0  0
 24 27  1  0  0  0  0
 25 26  1  0  0  0  0
 28 29  1  0  0  0  0
 28 31  4  0  0  0  0
 29 30  1  0  0  0  0
 31 32  4  0  0  0  0
 33 34  4  0  0  0  0
M  END
>  <Name_Molregno>
327083

>  <5-HT1A>
6.42

>  <5-HT1B>
7.55

>  <5-HT1D>
6.46

>  <5-HT2A>
6.21

>  <5-HT2C>
5.55

>  <5-HT6>
5.54

>  <5-HT7>
5

>  <DOPAMINE D1>
5

>  <DOPAMINE D2>
5

>  <DOPAMINE D3>
5

>  <DOPAMINE D4>
5

>  <DOPAMINE D5>
5

>  <HISTAMINE H1>
5

>  <Muscarinic acetylcholine receptor M1>
5

>  <Muscarinic acetylcholine receptor M2>
5

>  <Muscarinic acetylcholine receptor M3>
5

>  <Muscarinic acetylcholine receptor M4>
5

>  <Muscarinic acetylcholine receptor M5>
5

$$$$
327090
  Marvin  02231216192D 0   1.00000     0.00000     0

 32 35  0  0  0  0  0  0  0  0999 V2000
   -6.3746    6.5338    0.0000 S   0  0  0  0  0  0  0  0  0
   -7.0891    6.9463    0.0000 C   0  0  0  0  0  0  0  0  0
   -6.3746    5.7088    0.0000 C   0  0  0  0  0  0  0  0  0
   -5.6602    5.2963    0.0000 C   0  0  0  0  0  0  0  0  0
   -5.6602    4.4713    0.0000 C   0  0  0  0  0  0  0  0  0
   -6.3746    4.0588    0.0000 C   0  0  0  0  0  0  0  0  0
   -6.3746    3.2338    0.0000 N   0  0  0  0  0  0  0  0  0
   -5.6602    2.8213    0.0000 C   0  0  0  0  0  0  0  0  0
   -5.6602    1.9963    0.0000 C   0  0  0  0  0  0  0  0  0
   -6.3746    1.5838    0.0000 N   0  0  0  0  0  0  0  0  0
   -7.0891    1.9963    0.0000 C   0  0  0  0  0  0  0  0  0
   -7.0891    2.8213    0.0000 C   0  0  0  0  0  0  0  0  0
   -6.3746    0.7588    0.0000 C   0  0  0  0  0  0  0  0  0
   -7.0891    0.3463    0.0000 O   0  0  0  0  0  0  0  0  0
   -5.6602    0.3463    0.0000 N   0  0  0  0  0  0  0  0  0
   -5.6602   -0.4787    0.0000 C   0  0  0  0  0  0  0  0  0
   -4.9457   -0.8912    0.0000 C   0  0  0  0  0  0  0  0  0
   -4.9457   -1.7162    0.0000 C   0  0  0  0  0  0  0  0  0
   -4.2312   -2.1287    0.0000 N   0  0  0  0  0  0  0  0  0
   -3.5167   -1.7162    0.0000 C   0  0  0  0  0  0  0  0  0
   -2.8023   -2.1287    0.0000 C   0  0  0  0  0  0  0  0  0
   -2.8023   -2.9537    0.0000 N   0  0  0  0  0  0  0  0  0
   -3.5167   -3.3662    0.0000 C   0  0  0  0  0  0  0  0  0
   -4.2312   -2.9537    0.0000 C   0  0  0  0  0  0  0  0  0
   -2.0878   -3.3662    0.0000 C   0  0  0  0  0  0  0  0  0
   -5.6602   -2.1287    0.0000 C   0  0  0  0  0  0  0  0  0
   -5.6602   -2.9537    0.0000 O   0  0  0  0  0  0  0  0  0
   -6.3746   -3.3662    0.0000 C   0  0  0  0  0  0  0  0  0
   -6.3746   -1.7162    0.0000 C   0  0  0  0  0  0  0  0  0
   -6.3746   -0.8912    0.0000 C   0  0  0  0  0  0  0  0  0
   -7.0891    4.4713    0.0000 C   0  0  0  0  0  0  0  0  0
   -7.0891    5.2963    0.0000 C   0  0  0  0  0  0  0  0  0
  1  2  1  0  0  0  0
  1  3  1  0  0  0  0
  3  4  4  0  0  0  0
  3 32  4  0  0  0  0
  4  5  4  0  0  0  0
  5  6  4  0  0  0  0
  6  7  1  0  0  0  0
  6 31  4  0  0  0  0
  7  8  1  0  0  0  0
  7 12  1  0  0  0  0
  8  9  1  0  0  0  0
  9 10  1  0  0  0  0
 10 11  1  0  0  0  0
 10 13  1  0  0  0  0
 11 12  1  0  0  0  0
 13 14  2  0  0  0  0
 13 15  1  0  0  0  0
 15 16  1  0  0  0  0
 16 17  4  0  0  0  0
 16 30  4  0  0  0  0
 17 18  4  0  0  0  0
 18 19  1  0  0  0  0
 18 26  4  0  0  0  0
 19 20  1  0  0  0  0
 19 24  1  0  0  0  0
 20 21  1  0  0  0  0
 21 22  1  0  0  0  0
 22 23  1  0  0  0  0
 22 25  1  0  0  0  0
 23 24  1  0  0  0  0
 26 27  1  0  0  0  0
 26 29  4  0  0  0  0
 27 28  1  0  0  0  0
 29 30  4  0  0  0  0
 31 32  4  0  0  0  0
M  END
>  <Name_Molregno>
327090

>  <5-HT1A>
6.05

>  <5-HT1B>
7.78

>  <5-HT1D>
6.48

>  <5-HT2A>
5.87

>  <5-HT2C>
5.94

>  <5-HT6>
5

>  <5-HT7>
5

>  <DOPAMINE D1>
5

>  <DOPAMINE D2>
5

>  <DOPAMINE D3>
5

>  <DOPAMINE D4>
5

>  <DOPAMINE D5>
5

>  <HISTAMINE H1>
5

>  <Muscarinic acetylcholine receptor M1>
5

>  <Muscarinic acetylcholine receptor M2>
5

>  <Muscarinic acetylcholine receptor M3>
5

>  <Muscarinic acetylcholine receptor M4>
5

>  <Muscarinic acetylcholine receptor M5>
5

$$$$
327091
  Marvin  02231216192D 0   1.00000     0.00000     0

 32 35  0  0  0  0  0  0  0  0999 V2000
    3.7835    3.5848    0.0000 O   0  0  0  0  0  0  0  0  0
    3.0690    3.9973    0.0000 C   0  0  0  0  0  0  0  0  0
    3.7835    2.7598    0.0000 C   0  0  0  0  0  0  0  0  0
    4.4980    2.3473    0.0000 C   0  0  0  0  0  0  0  0  0
    4.4980    1.5223    0.0000 C   0  0  0  0  0  0  0  0  0
    3.7835    1.1098    0.0000 C   0  0  0  0  0  0  0  0  0
    3.7835    0.2848    0.0000 N   0  0  0  0  0  0  0  0  0
    4.4980   -0.1277    0.0000 C   0  0  0  0  0  0  0  0  0
    5.2124    0.2848    0.0000 O   0  0  0  0  0  0  0  0  0
    4.4980   -0.9527    0.0000 C   0  0  0  0  0  0  0  0  0
    5.2124   -1.3652    0.0000 C   0  0  0  0  0  0  0  0  0
    5.2124   -2.1902    0.0000 C   0  0  0  0  0  0  0  0  0
    4.4980   -2.6027    0.0000 N   0  0  0  0  0  0  0  0  0
    3.7835   -2.1902    0.0000 C   0  0  0  0  0  0  0  0  0
    3.7835   -1.3652    0.0000 C   0  0  0  0  0  0  0  0  0
    4.4980   -3.4277    0.0000 C   0  0  0  0  0  0  0  0  0
    5.2124   -3.8402    0.0000 C   0  0  0  0  0  0  0  0  0
    5.2124   -4.6652    0.0000 C   0  0  0  0  0  0  0  0  0
    4.4980   -5.0777    0.0000 C   0  0  0  0  0  0  0  0  0
    3.7835   -4.6652    0.0000 C   0  0  0  0  0  0  0  0  0
    3.7835   -3.8402    0.0000 C   0  0  0  0  0  0  0  0  0
    3.0690   -3.4277    0.0000 O   0  0  0  0  0  0  0  0  0
    2.3546   -3.8402    0.0000 C   0  0  0  0  0  0  0  0  0
    3.0690    1.5223    0.0000 C   0  0  0  0  0  0  0  0  0
    3.0690    2.3473    0.0000 C   0  0  0  0  0  0  0  0  0
    2.3546    2.7598    0.0000 N   0  0  0  0  0  0  0  0  0
    1.6401    2.3473    0.0000 C   0  0  0  0  0  0  0  0  0
    0.9256    2.7598    0.0000 C   0  0  0  0  0  0  0  0  0
    0.9256    3.5848    0.0000 N   0  0  0  0  0  0  0  0  0
    1.6401    3.9973    0.0000 C   0  0  0  0  0  0  0  0  0
    2.3546    3.5848    0.0000 C   0  0  0  0  0  0  0  0  0
    0.2111    3.9973    0.0000 C   0  0  0  0  0  0  0  0  0
  1  2  1  0  0  0  0
  1  3  1  0  0  0  0
  3  4  4  0  0  0  0
  3 25  4  0  0  0  0
  4  5  4  0  0  0  0
  5  6  4  0  0  0  0
  6  7  1  0  0  0  0
  6 24  4  0  0  0  0
  7  8  1  0  0  0  0
  8  9  2  0  0  0  0
  8 10  1  0  0  0  0
 10 11  1  0  0  0  0
 10 15  1  0  0  0  0
 11 12  1  0  0  0  0
 12 13  1  0  0  0  0
 13 14  1  0  0  0  0
 13 16  1  0  0  0  0
 14 15  1  0  0  0  0
 16 17  4  0  0  0  0
 16 21  4  0  0  0  0
 17 18  4  0  0  0  0
 18 19  4  0  0  0  0
 19 20  4  0  0  0  0
 20 21  4  0  0  0  0
 21 22  1  0  0  0  0
 22 23  1  0  0  0  0
 24 25  4  0  0  0  0
 25 26  1  0  0  0  0
 26 27  1  0  0  0  0
 26 31  1  0  0  0  0
 27 28  1  0  0  0  0
 28 29  1  0  0  0  0
 29 30  1  0  0  0  0
 29 32  1  0  0  0  0
 30 31  1  0  0  0  0
M  END
>  <Name_Molregno>
327091

>  <5-HT1A>
7.81

>  <5-HT1B>
8.01

>  <5-HT1D>
7.81

>  <5-HT2A>
5

>  <5-HT2C>
5

>  <DOPAMINE D1>
5

>  <DOPAMINE D2>
5

>  <DOPAMINE D3>
5

>  <DOPAMINE D4>
5

>  <DOPAMINE D5>
5

>  <HISTAMINE H1>
5

>  <Muscarinic acetylcholine receptor M1>
5

>  <Muscarinic acetylcholine receptor M2>
5

>  <Muscarinic acetylcholine receptor M3>
5

>  <Muscarinic acetylcholine receptor M4>
5

>  <Muscarinic acetylcholine receptor M5>
5

$$$$
330283
  Marvin  02231216192D 0   1.00000     0.00000     0

 31 34  0  0  0  0  0  0  0  0999 V2000
    0.1076    0.0239    0.0000 Cl  0  0  0  0  0  0  0  0  0
    0.1076   -0.8011    0.0000 C   0  0  0  0  0  0  0  0  0
    0.8221   -1.2136    0.0000 C   0  0  0  0  0  0  0  0  0
    0.8221   -2.0386    0.0000 C   0  0  0  0  0  0  0  0  0
    0.1076   -2.4511    0.0000 C   0  0  0  0  0  0  0  0  0
   -0.6069   -2.0386    0.0000 C   0  0  0  0  0  0  0  0  0
   -0.6069   -1.2136    0.0000 C   0  0  0  0  0  0  0  0  0
   -1.3213   -0.8011    0.0000 N   0  0  0  0  0  0  0  0  0
   -2.0358   -1.2136    0.0000 C   0  0  0  0  0  0  0  0  0
   -2.7503   -0.8011    0.0000 C   0  0  0  0  0  0  0  0  0
   -2.7503    0.0239    0.0000 N   0  0  0  0  0  0  0  0  0
   -2.0358    0.4364    0.0000 C   0  0  0  0  0  0  0  0  0
   -1.3213    0.0239    0.0000 C   0  0  0  0  0  0  0  0  0
   -3.4647    0.4364    0.0000 C   0  0  0  0  0  0  0  0  0
   -3.4647    1.2614    0.0000 O   0  0  0  0  0  0  0  0  0
   -4.1792    0.0239    0.0000 N   0  0  0  0  0  0  0  0  0
   -4.8937    0.4364    0.0000 C   0  0  0  0  0  0  0  0  0
   -5.6082    0.0239    0.0000 C   0  0  0  0  0  0  0  0  0
   -6.3226    0.4364    0.0000 C   0  0  0  0  0  0  0  0  0
   -7.0371    0.0239    0.0000 N   0  0  0  0  0  0  0  0  0
   -7.0371   -0.8011    0.0000 C   0  0  0  0  0  0  0  0  0
   -7.7516   -1.2136    0.0000 C   0  0  0  0  0  0  0  0  0
   -8.4660   -0.8011    0.0000 N   0  0  0  0  0  0  0  0  0
   -8.4660    0.0239    0.0000 C   0  0  0  0  0  0  0  0  0
   -7.7516    0.4364    0.0000 C   0  0  0  0  0  0  0  0  0
   -9.1805   -1.2136    0.0000 C   0  0  0  0  0  0  0  0  0
   -6.3226    1.2614    0.0000 C   0  0  0  0  0  0  0  0  0
   -7.0371    1.6739    0.0000 O   0  0  0  0  0  0  0  0  0
   -7.0371    2.4989    0.0000 C   0  0  0  0  0  0  0  0  0
   -5.6082    1.6739    0.0000 C   0  0  0  0  0  0  0  0  0
   -4.8937    1.2614    0.0000 C   0  0  0  0  0  0  0  0  0
  1  2  1  0  0  0  0
  2  3  4  0  0  0  0
  2  7  4  0  0  0  0
  3  4  4  0  0  0  0
  4  5  4  0  0  0  0
  5  6  4  0  0  0  0
  6  7  4  0  0  0  0
  7  8  1  0  0  0  0
  8  9  1  0  0  0  0
  8 13  1  0  0  0  0
  9 10  1  0  0  0  0
 10 11  1  0  0  0  0
 11 12  1  0  0  0  0
 11 14  1  0  0  0  0
 12 13  1  0  0  0  0
 14 15  2  0  0  0  0
 14 16  1  0  0  0  0
 16 17  1  0  0  0  0
 17 18  4  0  0  0  0
 17 31  4  0  0  0  0
 18 19  4  0  0  0  0
 19 20  1  0  0  0  0
 19 27  4  0  0  0  0
 20 21  1  0  0  0  0
 20 25  1  0  0  0  0
 21 22  1  0  0  0  0
 22 23  1  0  0  0  0
 23 24  1  0  0  0  0
 23 26  1  0  0  0  0
 24 25  1  0  0  0  0
 27 28  1  0  0  0  0
 27 30  4  0  0  0  0
 28 29  1  0  0  0  0
 30 31  4  0  0  0  0
M  END
>  <Name_Molregno>
330283

>  <5-HT1A>
6.47

>  <5-HT1B>
7.95

>  <5-HT1D>
7.46

>  <5-HT2A>
5.22

>  <5-HT2C>
5.91

>  <5-HT6>
6.33

>  <5-HT7>
6.47

>  <DOPAMINE D1>
5

>  <DOPAMINE D2>
5

>  <DOPAMINE D3>
5

>  <DOPAMINE D4>
5

>  <DOPAMINE D5>
5

>  <HISTAMINE H1>
5

>  <Muscarinic acetylcholine receptor M1>
5

>  <Muscarinic acetylcholine receptor M2>
5

>  <Muscarinic acetylcholine receptor M3>
5

>  <Muscarinic acetylcholine receptor M4>
5

>  <Muscarinic acetylcholine receptor M5>
5

$$$$
330287
  Marvin  02231216192D 0   1.00000     0.00000     0

 31 34  0  0  0  0  0  0  0  0999 V2000
    0.1076    0.0239    0.0000 F   0  0  0  0  0  0  0  0  0
    0.1076   -0.8011    0.0000 C   0  0  0  0  0  0  0  0  0
    0.8221   -1.2136    0.0000 C   0  0  0  0  0  0  0  0  0
    0.8221   -2.0386    0.0000 C   0  0  0  0  0  0  0  0  0
    0.1076   -2.4511    0.0000 C   0  0  0  0  0  0  0  0  0
   -0.6069   -2.0386    0.0000 C   0  0  0  0  0  0  0  0  0
   -0.6069   -1.2136    0.0000 C   0  0  0  0  0  0  0  0  0
   -1.3213   -0.8011    0.0000 N   0  0  0  0  0  0  0  0  0
   -2.0358   -1.2136    0.0000 C   0  0  0  0  0  0  0  0  0
   -2.7503   -0.8011    0.0000 C   0  0  0  0  0  0  0  0  0
   -2.7503    0.0239    0.0000 N   0  0  0  0  0  0  0  0  0
   -2.0358    0.4364    0.0000 C   0  0  0  0  0  0  0  0  0
   -1.3213    0.0239    0.0000 C   0  0  0  0  0  0  0  0  0
   -3.4647    0.4364    0.0000 C   0  0  0  0  0  0  0  0  0
   -3.4647    1.2614    0.0000 O   0  0  0  0  0  0  0  0  0
   -4.1792    0.0239    0.0000 N   0  0  0  0  0  0  0  0  0
   -4.8937    0.4364    0.0000 C   0  0  0  0  0  0  0  0  0
   -5.6082    0.0239    0.0000 C   0  0  0  0  0  0  0  0  0
   -6.3226    0.4364    0.0000 C   0  0  0  0  0  0  0  0  0
   -7.0371    0.0239    0.0000 N   0  0  0  0  0  0  0  0  0
   -7.0371   -0.8011    0.0000 C   0  0  0  0  0  0  0  0  0
   -7.7516   -1.2136    0.0000 C   0  0  0  0  0  0  0  0  0
   -8.4660   -0.8011    0.0000 N   0  0  0  0  0  0  0  0  0
   -8.4660    0.0239    0.0000 C   0  0  0  0  0  0  0  0  0
   -7.7516    0.4364    0.0000 C   0  0  0  0  0  0  0  0  0
   -9.1805   -1.2136    0.0000 C   0  0  0  0  0  0  0  0  0
   -6.3226    1.2614    0.0000 C   0  0  0  0  0  0  0  0  0
   -7.0371    1.6739    0.0000 O   0  0  0  0  0  0  0  0  0
   -7.0371    2.4989    0.0000 C   0  0  0  0  0  0  0  0  0
   -5.6082    1.6739    0.0000 C   0  0  0  0  0  0  0  0  0
   -4.8937    1.2614    0.0000 C   0  0  0  0  0  0  0  0  0
  1  2  1  0  0  0  0
  2  3  4  0  0  0  0
  2  7  4  0  0  0  0
  3  4  4  0  0  0  0
  4  5  4  0  0  0  0
  5  6  4  0  0  0  0
  6  7  4  0  0  0  0
  7  8  1  0  0  0  0
  8  9  1  0  0  0  0
  8 13  1  0  0  0  0
  9 10  1  0  0  0  0
 10 11  1  0  0  0  0
 11 12  1  0  0  0  0
 11 14  1  0  0  0  0
 12 13  1  0  0  0  0
 14 15  2  0  0  0  0
 14 16  1  0  0  0  0
 16 17  1  0  0  0  0
 17 18  4  0  0  0  0
 17 31  4  0  0  0  0
 18 19  4  0  0  0  0
 19 20  1  0  0  0  0
 19 27  4  0  0  0  0
 20 21  1  0  0  0  0
 20 25  1  0  0  0  0
 21 22  1  0  0  0  0
 22 23  1  0  0  0  0
 23 24  1  0  0  0  0
 23 26  1  0  0  0  0
 24 25  1  0  0  0  0
 27 28  1  0  0  0  0
 27 30  4  0  0  0  0
 28 29  1  0  0  0  0
 30 31  4  0  0  0  0
M  END
>  <Name_Molregno>
330287

>  <5-HT1A>
6.5

>  <5-HT1B>
7.74

>  <5-HT1D>
6.99

>  <5-HT2A>
5

>  <5-HT2C>
5.97

>  <5-HT6>
6.08

>  <5-HT7>
5

>  <DOPAMINE D1>
5

>  <DOPAMINE D2>
5

>  <DOPAMINE D3>
5

>  <DOPAMINE D4>
5

>  <DOPAMINE D5>
5

>  <HISTAMINE H1>
5

>  <Muscarinic acetylcholine receptor M1>
5

>  <Muscarinic acetylcholine receptor M2>
5

>  <Muscarinic acetylcholine receptor M3>
5

>  <Muscarinic acetylcholine receptor M4>
5

>  <Muscarinic acetylcholine receptor M5>
5

$$$$
341194
  Marvin  02231216192D 0   1.00000     0.00000     0

 19 19  0  0  0  0  0  0  0  0999 V2000
    0.0901    1.2219    0.0000 Cl  0  0  0  0  0  0  0  0  0
    0.8045    0.8094    0.0000 C   0  0  0  0  0  0  0  0  0
    1.5190    1.2219    0.0000 C   0  0  0  0  0  0  0  0  0
    2.2335    0.8094    0.0000 C   0  0  0  0  0  0  0  0  0
    2.2335   -0.0156    0.0000 C   0  0  0  0  0  0  0  0  0
    2.9480   -0.4281    0.0000 N   0  0  0  0  0  0  0  0  0
    3.6624   -0.0156    0.0000 C   0  0  0  0  0  0  0  0  0
    4.3769   -0.4281    0.0000 O   0  0  0  0  0  0  0  0  0
    5.0914   -0.0156    0.0000 C   0  0  0  0  0  0  0  0  0
    5.8058   -0.4281    0.0000 C   0  0  0  0  0  0  0  0  0
    6.5203   -0.8406    0.0000 C   0  0  0  0  0  0  0  0  0
    7.2348   -1.2531    0.0000 C   0  0  0  0  0  0  0  0  0
    7.9493   -0.8406    0.0000 N   0  3  0  0  0  0  0  0  0
    8.6637   -0.4281    0.0000 C   0  0  0  0  0  0  0  0  0
    8.3618   -1.5551    0.0000 C   0  0  0  0  0  0  0  0  0
    7.5368   -0.1261    0.0000 C   0  0  0  0  0  0  0  0  0
    3.6624    0.8094    0.0000 O   0  0  0  0  0  0  0  0  0
    1.5190   -0.4281    0.0000 C   0  0  0  0  0  0  0  0  0
    0.8045   -0.0156    0.0000 C   0  0  0  0  0  0  0  0  0
  1  2  1  0  0  0  0
  2  3  4  0  0  0  0
  2 19  4  0  0  0  0
  3  4  4  0  0  0  0
  4  5  4  0  0  0  0
  5  6  1  0  0  0  0
  5 18  4  0  0  0  0
  6  7  1  0  0  0  0
  7  8  1  0  0  0  0
  7 17  2  0  0  0  0
  8  9  1  0  0  0  0
  9 10  1  0  0  0  0
 10 11  3  0  0  0  0
 11 12  1  0  0  0  0
 12 13  1  0  0  0  0
 13 14  1  0  0  0  0
 13 15  1  0  0  0  0
 13 16  1  0  0  0  0
 18 19  4  0  0  0  0
M  CHG  1  13   1
M  END
>  <Name_Molregno>
341194

>  <Muscarinic acetylcholine receptor M1>
5.71

>  <Muscarinic acetylcholine receptor M2>
5.49

>  <Muscarinic acetylcholine receptor M3>
5.62

>  <Muscarinic acetylcholine receptor M4>
5.04

>  <Muscarinic acetylcholine receptor M5>
5.42

$$$$
343850
  Marvin  02231216192D 0   1.00000     0.00000     0

 21 24  0  0  0  0  0  0  0  0999 V2000
    0.4016    0.6662    0.0000 N   0  0  0  0  0  0  0  0  0
    0.4016   -0.1588    0.0000 C   0  0  0  0  0  0  0  0  0
   -0.3129   -0.5713    0.0000 N   0  0  0  0  0  0  0  0  0
   -1.0274   -0.1588    0.0000 C   0  0  0  0  0  0  0  0  0
   -1.7418   -0.5713    0.0000 N   0  0  0  0  0  0  0  0  0
   -1.7418   -1.3963    0.0000 C   0  0  0  0  0  0  0  0  0
   -1.3293   -2.1108    0.0000 C   0  0  0  0  0  0  0  0  0
   -2.1543   -2.1108    0.0000 C   0  0  0  0  0  0  0  0  0
   -1.0274    0.6662    0.0000 C   0  0  0  0  0  0  0  0  0
   -1.7418    1.0787    0.0000 C   0  0  0  0  0  0  0  0  0
   -0.3129    1.0787    0.0000 C   0  0  0  0  0  0  0  0  0
   -0.3129    1.9037    0.0000 N   0  0  0  0  0  0  0  0  0
   -1.0562    2.2616    0.0000 C   0  0  0  0  0  0  0  0  0
   -1.2398    3.0659    0.0000 C   0  0  0  0  0  0  0  0  0
   -0.7254    3.7109    0.0000 C   0  0  0  0  0  0  0  0  0
    0.0996    3.7109    0.0000 C   0  0  0  0  0  0  0  0  0
    0.6140    3.0659    0.0000 C   0  0  0  0  0  0  0  0  0
    0.4304    2.2616    0.0000 C   0  0  0  0  0  0  0  0  0
    1.1161   -0.5713    0.0000 C   0  0  0  0  0  0  0  0  0
    1.9411   -0.5713    0.0000 C   0  0  0  0  0  0  0  0  0
    1.5286   -1.2858    0.0000 C   0  0  0  0  0  0  0  0  0
  1  2  4  0  0  0  0
  1 11  4  0  0  0  0
  2  3  4  0  0  0  0
  2 19  1  0  0  0  0
  3  4  4  0  0  0  0
  4  5  1  0  0  0  0
  4  9  4  0  0  0  0
  5  6  1  0  0  0  0
  6  7  1  0  0  0  0
  6  8  1  0  0  0  0
  7  8  1  0  0  0  0
  9 10  1  0  0  0  0
  9 11  4  0  0  0  0
 11 12  1  0  0  0  0
 12 13  1  0  0  0  0
 12 18  1  0  0  0  0
 13 14  1  0  0  0  0
 14 15  1  0  0  0  0
 15 16  1  0  0  0  0
 16 17  1  0  0  0  0
 17 18  1  0  0  0  0
 19 20  1  0  0  0  0
 19 21  1  0  0  0  0
 20 21  1  0  0  0  0
M  END
>  <Name_Molregno>
343850

>  <Muscarinic acetylcholine receptor M1>
7.7

>  <Muscarinic acetylcholine receptor M2>
7.2

>  <Muscarinic acetylcholine receptor M3>
8.49

>  <Muscarinic acetylcholine receptor M4>
8

>  <Muscarinic acetylcholine receptor M5>
7.2

$$$$
349376
  Marvin  02231216192D 0   1.00000     0.00000     0

 41 45  0  0  0  0  0  0  0  0999 V2000
   -2.4600    1.8818    0.0000 O   0  0  0  0  0  0  0  0  0
   -2.7149    1.0971    0.0000 C   0  0  0  0  0  0  0  0  0
   -3.5399    1.0971    0.0000 C   0  0  0  0  0  0  0  0  0
   -3.7949    1.8818    0.0000 C   0  0  0  0  0  0  0  0  0
   -3.1274    2.3667    0.0000 C   0  0  0  0  0  0  0  0  0
   -3.1274    3.1917    0.0000 O   0  0  0  0  0  0  0  0  0
   -3.8419    3.6042    0.0000 C   0  0  0  0  0  0  0  0  0
   -4.5564    3.1917    0.0000 C   0  0  0  0  0  0  0  0  0
   -5.2709    3.6042    0.0000 C   0  0  0  0  0  0  0  0  0
   -5.2709    4.4292    0.0000 C   0  0  0  0  0  0  0  0  0
   -4.5564    4.8417    0.0000 C   0  0  0  0  0  0  0  0  0
   -3.8419    4.4292    0.0000 C   0  0  0  0  0  0  0  0  0
   -3.1274    4.8417    0.0000 C   0  0  0  0  0  0  0  0  0
   -6.0555    4.6841    0.0000 C   0  0  0  0  0  0  0  0  0
   -6.5404    4.0167    0.0000 C   0  0  0  0  0  0  0  0  0
   -6.0555    3.3492    0.0000 C   0  0  0  0  0  0  0  0  0
   -5.8924    2.5405    0.0000 C   0  0  0  0  0  0  0  0  0
   -6.6628    2.7908    0.0000 C   0  0  0  0  0  0  0  0  0
   -2.2300    0.4297    0.0000 C   0  0  0  0  0  0  0  0  0
   -2.5656   -0.3240    0.0000 O   0  0  0  0  0  0  0  0  0
   -1.4095    0.5159    0.0000 N   0  0  0  0  0  0  0  0  0
   -0.9246   -0.1515    0.0000 C   0  0  0  0  0  0  0  0  0
   -0.1041   -0.0653    0.0000 C   0  0  0  0  0  0  0  0  0
    0.2314    0.6884    0.0000 O   0  0  0  0  0  0  0  0  0
    1.0519    0.7746    0.0000 C   0  0  0  0  0  0  0  0  0
    0.3808   -0.7327    0.0000 N   0  0  0  0  0  0  0  0  0
    0.0452   -1.4864    0.0000 C   0  0  0  0  0  0  0  0  0
   -0.7753   -1.5726    0.0000 N   0  0  0  0  0  0  0  0  0
   -1.2602   -0.9052    0.0000 C   0  0  0  0  0  0  0  0  0
   -2.0807   -0.9914    0.0000 O   0  0  0  0  0  0  0  0  0
   -2.4162   -1.7451    0.0000 C   0  0  0  0  0  0  0  0  0
    0.5302   -2.1538    0.0000 N   0  0  0  0  0  0  0  0  0
    1.3506   -2.0676    0.0000 C   0  0  0  0  0  0  0  0  0
    1.8356   -2.7350    0.0000 C   0  0  0  0  0  0  0  0  0
    2.6560   -2.6488    0.0000 C   0  0  0  0  0  0  0  0  0
    3.1410   -3.3162    0.0000 N   0  0  0  0  0  0  0  0  0
    3.9614   -3.2300    0.0000 C   0  0  0  0  0  0  0  0  0
    4.4464   -3.8974    0.0000 C   0  0  0  0  0  0  0  0  0
    4.1108   -4.6511    0.0000 O   0  0  0  0  0  0  0  0  0
    3.2903   -4.7373    0.0000 C   0  0  0  0  0  0  0  0  0
    2.8054   -4.0699    0.0000 C   0  0  0  0  0  0  0  0  0
  1  2  4  0  0  0  0
  1  5  4  0  0  0  0
  2  3  4  0  0  0  0
  2 19  1  0  0  0  0
  3  4  4  0  0  0  0
  4  5  4  0  0  0  0
  5  6  1  0  0  0  0
  6  7  1  0  0  0  0
  7  8  4  0  0  0  0
  7 12  4  0  0  0  0
  8  9  4  0  0  0  0
  9 10  4  0  0  0  0
  9 16  1  0  0  0  0
 10 11  4  0  0  0  0
 10 14  1  0  0  0  0
 11 12  4  0  0  0  0
 12 13  1  0  0  0  0
 14 15  1  0  0  0  0
 15 16  1  0  0  0  0
 16 17  1  0  0  0  0
 16 18  1  0  0  0  0
 19 20  2  0  0  0  0
 19 21  1  0  0  0  0
 21 22  1  0  0  0  0
 22 23  4  0  0  0  0
 22 29  4  0  0  0  0
 23 24  1  0  0  0  0
 23 26  4  0  0  0  0
 24 25  1  0  0  0  0
 26 27  4  0  0  0  0
 27 28  4  0  0  0  0
 27 32  1  0  0  0  0
 28 29  4  0  0  0  0
 29 30  1  0  0  0  0
 30 31  1  0  0  0  0
 32 33  1  0  0  0  0
 33 34  1  0  0  0  0
 34 35  1  0  0  0  0
 35 36  1  0  0  0  0
 36 37  1  0  0  0  0
 36 41  1  0  0  0  0
 37 38  1  0  0  0  0
 38 39  1  0  0  0  0
 39 40  1  0  0  0  0
 40 41  1  0  0  0  0
M  END
>  <Name_Molregno>
349376

>  <5-HT2A>
6.23

>  <5-HT2C>
6.02

>  <5-HT7>
5.76

>  <DOPAMINE D1>
5.79

>  <DOPAMINE D3>
5.93

>  <DOPAMINE D4>
5.6

>  <Dopamine transporter>
5.74

>  <HISTAMINE H2>
5.91

>  <Muscarinic acetylcholine receptor M1>
5.39

>  <Muscarinic acetylcholine receptor M4>
5.43

>  <Norepinephrine transporter>
5.29

>  <Serotonin transporter>
5.84

$$$$
357269
  Marvin  02231216192D 0   1.00000     0.00000     0

 49 54  0  0  1  0  0  0  0  0999 V2000
    5.2631    5.9023    0.0000 F   0  0  0  0  0  0  0  0  0
    5.2631    5.0773    0.0000 C   0  0  0  0  0  0  0  0  0
    5.9776    4.6648    0.0000 C   0  0  0  0  0  0  0  0  0
    5.9776    3.8398    0.0000 C   0  0  0  0  0  0  0  0  0
    5.2631    3.4273    0.0000 C   0  0  0  0  0  0  0  0  0
    4.5487    3.8398    0.0000 C   0  0  0  0  0  0  0  0  0
    4.5487    4.6648    0.0000 C   0  0  0  0  0  0  0  0  0
    5.2631    2.6023    0.0000 C   0  0  0  0  0  0  0  0  0
    5.2631    1.7773    0.0000 C   0  0  0  0  0  0  0  0  0
    4.5487    1.3648    0.0000 C   0  0  0  0  0  0  0  0  0
    3.7417    1.5364    0.0000 O   0  0  0  0  0  0  0  0  0
    4.5487    0.5398    0.0000 N   0  0  0  0  0  0  0  0  0
    5.2161    0.0549    0.0000 C   0  0  0  0  0  0  0  0  0
    4.9612   -0.7297    0.0000 C   0  0  0  0  0  0  0  0  0
    5.4461   -1.3972    0.0000 O   0  0  0  0  0  0  0  0  0
    4.1362   -0.7297    0.0000 C   0  0  0  0  0  0  0  0  0
    3.8812    0.0549    0.0000 C   0  0  0  0  0  0  0  0  0
    3.0966    0.3098    0.0000 C   0  0  0  0  0  0  0  0  0
    2.9251    1.1168    0.0000 O   0  0  0  0  0  0  0  0  0
    2.4835   -0.2422    0.0000 N   0  0  0  0  0  0  0  0  0
    2.5697   -1.0627    0.0000 C   0  0  0  0  0  0  0  0  0
    1.8161   -1.3982    0.0000 C   0  0  0  0  0  0  0  0  0
    1.2640   -0.7851    0.0000 C   0  0  0  0  0  0  0  0  0
    1.6765   -0.0707    0.0000 C   0  0  0  0  0  0  0  0  0
    1.3410    0.6830    0.0000 C   0  0  0  0  0  0  0  0  0
    0.5205    0.7692    0.0000 O   0  0  0  0  0  0  0  0  0
    1.8259    1.3504    0.0000 N   0  0  0  0  0  0  0  0  0
    1.4903    2.1041    0.0000 C   0  0  0  0  0  0  0  0  0
    0.6699    2.1904    0.0000 C   0  0  0  0  0  0  0  0  0
    0.1849    1.5229    0.0000 C   0  0  0  0  0  0  0  0  0
   -0.6355    1.6092    0.0000 C   0  0  0  0  0  0  0  0  0
   -0.9711    2.3628    0.0000 N   0  0  0  0  0  0  0  0  0
   -0.4862    3.0303    0.0000 C   0  0  0  0  0  0  0  0  0
    0.3343    2.9440    0.0000 C   0  0  0  0  0  0  0  0  0
   -1.7916    2.4491    0.0000 C   0  0  0  0  0  0  0  0  0
    4.4381    2.6023    0.0000 C   0  0  0  0  0  0  0  0  0
    4.0256    1.8879    0.0000 C   0  0  0  0  0  0  0  0  0
    3.2006    1.8879    0.0000 C   0  0  0  0  0  0  0  0  0
    2.7881    2.6023    0.0000 C   0  0  0  0  0  0  0  0  0
    1.9631    2.6023    0.0000 F   0  0  0  0  0  0  0  0  0
    3.2006    3.3168    0.0000 C   0  0  0  0  0  0  0  0  0
    4.0256    3.3168    0.0000 C   0  0  0  0  0  0  0  0  0
    6.0881    2.6023    0.0000 C   0  0  0  0  0  0  0  0  0
    6.5006    3.3168    0.0000 C   0  0  0  0  0  0  0  0  0
    7.3256    3.3168    0.0000 C   0  0  0  0  0  0  0  0  0
    7.7381    2.6023    0.0000 C   0  0  0  0  0  0  0  0  0
    8.5631    2.6023    0.0000 F   0  0  0  0  0  0  0  0  0
    7.3256    1.8879    0.0000 C   0  0  0  0  0  0  0  0  0
    6.5006    1.8879    0.0000 C   0  0  0  0  0  0  0  0  0
  1  2  1  0  0  0  0
  2  3  4  0  0  0  0
  2  7  4  0  0  0  0
  3  4  4  0  0  0  0
  4  5  4  0  0  0  0
  5  6  4  0  0  0  0
  5  8  1  0  0  0  0
  6  7  4  0  0  0  0
  8  9  1  0  0  0  0
  8 36  1  0  0  0  0
  8 43  1  0  0  0  0
  9 10  1  0  0  0  0
 10 11  2  0  0  0  0
 10 12  1  0  0  0  0
 12 13  1  0  0  0  0
 12 17  1  0  0  0  0
 13 14  1  0  0  0  0
 14 15  1  0  0  0  0
 14 16  1  0  0  0  0
 16 17  1  0  0  0  0
 17 18  1  0  0  0  0
 18 19  2  0  0  0  0
 18 20  1  0  0  0  0
 20 21  1  0  0  0  0
 20 24  1  0  0  0  0
 21 22  1  0  0  0  0
 22 23  1  0  0  0  0
 23 24  1  0  0  0  0
 24 25  1  0  0  0  0
 25 26  2  0  0  0  0
 25 27  1  0  0  0  0
 27 28  1  0  0  0  0
 28 29  1  0  0  0  0
 29 30  1  0  0  0  0
 29 34  1  0  0  0  0
 30 31  1  0  0  0  0
 31 32  1  0  0  0  0
 32 33  1  0  0  0  0
 32 35  1  0  0  0  0
 33 34  1  0  0  0  0
 36 37  4  0  0  0  0
 36 42  4  0  0  0  0
 37 38  4  0  0  0  0
 38 39  4  0  0  0  0
 39 40  1  0  0  0  0
 39 41  4  0  0  0  0
 41 42  4  0  0  0  0
 43 44  4  0  0  0  0
 43 49  4  0  0  0  0
 44 45  4  0  0  0  0
 45 46  4  0  0  0  0
 46 47  1  0  0  0  0
 46 48  4  0  0  0  0
 48 49  4  0  0  0  0
M  END
>  <Name_Molregno>
357269

>  <Muscarinic acetylcholine receptor M1>
6.57

>  <Muscarinic acetylcholine receptor M2>
6.14

>  <Muscarinic acetylcholine receptor M3>
9.29

>  <Muscarinic acetylcholine receptor M4>
7.39

>  <Muscarinic acetylcholine receptor M5>
5.8

$$$$
357270
  Marvin  02231216192D 0   1.00000     0.00000     0

 50 55  0  0  1  0  0  0  0  0999 V2000
   -2.0623    6.1821    0.0000 F   0  0  0  0  0  0  0  0  0
   -2.0623    5.3571    0.0000 C   0  0  0  0  0  0  0  0  0
   -1.3478    4.9446    0.0000 C   0  0  0  0  0  0  0  0  0
   -1.3478    4.1196    0.0000 C   0  0  0  0  0  0  0  0  0
   -2.0623    3.7071    0.0000 C   0  0  0  0  0  0  0  0  0
   -2.7767    4.1196    0.0000 C   0  0  0  0  0  0  0  0  0
   -2.7767    4.9446    0.0000 C   0  0  0  0  0  0  0  0  0
   -2.0623    2.8821    0.0000 C   0  0  0  0  0  0  0  0  0
   -2.0623    2.0571    0.0000 C   0  0  0  0  0  0  0  0  0
   -2.7767    1.6446    0.0000 C   0  0  0  0  0  0  0  0  0
   -3.5837    1.8162    0.0000 O   0  0  0  0  0  0  0  0  0
   -2.7767    0.8196    0.0000 N   0  0  0  0  0  0  0  0  0
   -2.1093    0.3347    0.0000 C   0  0  0  0  0  0  0  0  0
   -2.3642   -0.4499    0.0000 C   0  0  0  0  0  0  0  0  0
   -1.8793   -1.1173    0.0000 O   0  0  0  0  0  0  0  0  0
   -3.1892   -0.4499    0.0000 C   0  0  0  0  0  0  0  0  0
   -3.4442    0.3347    0.0000 C   0  0  0  0  0  0  0  0  0
   -4.2288    0.5897    0.0000 C   0  0  0  0  0  0  0  0  0
   -4.4003    1.3966    0.0000 O   0  0  0  0  0  0  0  0  0
   -4.8419    0.0376    0.0000 N   0  0  0  0  0  0  0  0  0
   -4.7557   -0.7829    0.0000 C   0  0  0  0  0  0  0  0  0
   -5.5093   -1.1184    0.0000 C   0  0  0  0  0  0  0  0  0
   -6.0614   -0.5053    0.0000 C   0  0  0  0  0  0  0  0  0
   -5.6489    0.2092    0.0000 C   0  0  0  0  0  0  0  0  0
   -5.9844    0.9628    0.0000 C   0  0  0  0  0  0  0  0  0
   -6.8049    1.0491    0.0000 O   0  0  0  0  0  0  0  0  0
   -5.4995    1.6303    0.0000 N   0  0  0  0  0  0  0  0  0
   -5.8351    2.3839    0.0000 C   0  0  0  0  0  0  0  0  0
   -6.6555    2.4702    0.0000 C   0  0  0  0  0  0  0  0  0
   -7.1405    1.8027    0.0000 C   0  0  0  0  0  0  0  0  0
   -7.9609    1.8890    0.0000 C   0  0  0  0  0  0  0  0  0
   -8.2965    2.6426    0.0000 N   0  0  0  0  0  0  0  0  0
   -7.8116    3.3101    0.0000 C   0  0  0  0  0  0  0  0  0
   -6.9911    3.2239    0.0000 C   0  0  0  0  0  0  0  0  0
   -9.1170    2.7289    0.0000 C   0  0  0  0  0  0  0  0  0
   -9.6019    2.0614    0.0000 C   0  0  0  0  0  0  0  0  0
   -2.8873    2.8821    0.0000 C   0  0  0  0  0  0  0  0  0
   -3.2998    2.1677    0.0000 C   0  0  0  0  0  0  0  0  0
   -4.1248    2.1677    0.0000 C   0  0  0  0  0  0  0  0  0
   -4.5373    2.8821    0.0000 C   0  0  0  0  0  0  0  0  0
   -5.3623    2.8821    0.0000 F   0  0  0  0  0  0  0  0  0
   -4.1248    3.5966    0.0000 C   0  0  0  0  0  0  0  0  0
   -3.2998    3.5966    0.0000 C   0  0  0  0  0  0  0  0  0
   -1.2373    2.8821    0.0000 C   0  0  0  0  0  0  0  0  0
   -0.8248    3.5966    0.0000 C   0  0  0  0  0  0  0  0  0
    0.0002    3.5966    0.0000 C   0  0  0  0  0  0  0  0  0
    0.4127    2.8821    0.0000 C   0  0  0  0  0  0  0  0  0
    1.2377    2.8821    0.0000 F   0  0  0  0  0  0  0  0  0
    0.0002    2.1677    0.0000 C   0  0  0  0  0  0  0  0  0
   -0.8248    2.1677    0.0000 C   0  0  0  0  0  0  0  0  0
  1  2  1  0  0  0  0
  2  3  4  0  0  0  0
  2  7  4  0  0  0  0
  3  4  4  0  0  0  0
  4  5  4  0  0  0  0
  5  6  4  0  0  0  0
  5  8  1  0  0  0  0
  6  7  4  0  0  0  0
  8  9  1  0  0  0  0
  8 37  1  0  0  0  0
  8 44  1  0  0  0  0
  9 10  1  0  0  0  0
 10 11  2  0  0  0  0
 10 12  1  0  0  0  0
 12 13  1  0  0  0  0
 12 17  1  0  0  0  0
 13 14  1  0  0  0  0
 14 15  1  0  0  0  0
 14 16  1  0  0  0  0
 16 17  1  0  0  0  0
 17 18  1  0  0  0  0
 18 19  2  0  0  0  0
 18 20  1  0  0  0  0
 20 21  1  0  0  0  0
 20 24  1  0  0  0  0
 21 22  1  0  0  0  0
 22 23  1  0  0  0  0
 23 24  1  0  0  0  0
 24 25  1  0  0  0  0
 25 26  2  0  0  0  0
 25 27  1  0  0  0  0
 27 28  1  0  0  0  0
 28 29  1  0  0  0  0
 29 30  1  0  0  0  0
 29 34  1  0  0  0  0
 30 31  1  0  0  0  0
 31 32  1  0  0  0  0
 32 33  1  0  0  0  0
 32 35  1  0  0  0  0
 33 34  1  0  0  0  0
 35 36  1  0  0  0  0
 37 38  4  0  0  0  0
 37 43  4  0  0  0  0
 38 39  4  0  0  0  0
 39 40  4  0  0  0  0
 40 41  1  0  0  0  0
 40 42  4  0  0  0  0
 42 43  4  0  0  0  0
 44 45  4  0  0  0  0
 44 50  4  0  0  0  0
 45 46  4  0  0  0  0
 46 47  4  0  0  0  0
 47 48  1  0  0  0  0
 47 49  4  0  0  0  0
 49 50  4  0  0  0  0
M  END
>  <Name_Molregno>
357270

>  <Muscarinic acetylcholine receptor M1>
6.24

>  <Muscarinic acetylcholine receptor M2>
5.89

>  <Muscarinic acetylcholine receptor M3>
9.04

>  <Muscarinic acetylcholine receptor M4>
7.04

>  <Muscarinic acetylcholine receptor M5>
5.55

$$$$
357271
  Marvin  02231216192D 0   1.00000     0.00000     0

 52 58  0  0  1  0  0  0  0  0999 V2000
   -1.5224    2.4413    0.0000 F   0  0  0  0  0  0  0  0  0
   -1.0375    1.7739    0.0000 C   0  0  0  0  0  0  0  0  0
   -0.2170    1.8601    0.0000 C   0  0  0  0  0  0  0  0  0
    0.2679    1.1927    0.0000 C   0  0  0  0  0  0  0  0  0
   -0.0676    0.4390    0.0000 C   0  0  0  0  0  0  0  0  0
   -0.8881    0.3528    0.0000 C   0  0  0  0  0  0  0  0  0
   -1.3730    1.0202    0.0000 C   0  0  0  0  0  0  0  0  0
    0.4173   -0.2284    0.0000 C   0  0  0  0  0  0  0  0  0
    0.9022   -0.8959    0.0000 C   0  0  0  0  0  0  0  0  0
    0.5667   -1.6495    0.0000 C   0  0  0  0  0  0  0  0  0
   -0.1870   -1.9851    0.0000 O   0  0  0  0  0  0  0  0  0
    1.0516   -2.3170    0.0000 N   0  0  0  0  0  0  0  0  0
    1.8766   -2.3170    0.0000 C   0  0  0  0  0  0  0  0  0
    2.1315   -3.1016    0.0000 C   0  0  0  0  0  0  0  0  0
    2.9161   -3.3565    0.0000 O   0  0  0  0  0  0  0  0  0
    1.4641   -3.5865    0.0000 C   0  0  0  0  0  0  0  0  0
    0.7966   -3.1016    0.0000 C   0  0  0  0  0  0  0  0  0
    0.0120   -3.3565    0.0000 C   0  0  0  0  0  0  0  0  0
   -0.6011   -2.8045    0.0000 O   0  0  0  0  0  0  0  0  0
   -0.1595   -4.1635    0.0000 N   0  0  0  0  0  0  0  0  0
    0.3925   -4.7766    0.0000 C   0  0  0  0  0  0  0  0  0
   -0.0200   -5.4911    0.0000 C   0  0  0  0  0  0  0  0  0
   -0.8269   -5.3196    0.0000 C   0  0  0  0  0  0  0  0  0
   -0.9132   -4.4991    0.0000 C   0  0  0  0  0  0  0  0  0
   -1.6276   -4.0866    0.0000 C   0  0  0  0  0  0  0  0  0
   -2.3421   -4.4991    0.0000 O   0  0  0  0  0  0  0  0  0
   -1.6276   -3.2616    0.0000 N   0  0  0  0  0  0  0  0  0
   -2.3421   -2.8491    0.0000 C   0  0  0  0  0  0  0  0  0
   -3.0566   -3.2616    0.0000 C   0  0  0  0  0  0  0  0  0
   -3.0566   -4.0866    0.0000 C   0  0  0  0  0  0  0  0  0
   -3.7711   -4.4991    0.0000 C   0  0  0  0  0  0  0  0  0
   -4.4855   -4.0866    0.0000 N   0  0  0  0  0  0  0  0  0
   -4.4855   -3.2616    0.0000 C   0  0  0  0  0  0  0  0  0
   -3.7711   -2.8491    0.0000 C   0  0  0  0  0  0  0  0  0
   -5.2000   -4.4991    0.0000 C   0  0  0  0  0  0  0  0  0
   -5.2000   -5.3241    0.0000 C   0  0  0  0  0  0  0  0  0
   -4.7875   -6.0385    0.0000 C   0  0  0  0  0  0  0  0  0
   -5.6125   -6.0385    0.0000 C   0  0  0  0  0  0  0  0  0
   -0.2501   -0.7134    0.0000 C   0  0  0  0  0  0  0  0  0
   -0.1639   -1.5338    0.0000 C   0  0  0  0  0  0  0  0  0
   -0.8313   -2.0188    0.0000 C   0  0  0  0  0  0  0  0  0
   -1.5850   -1.6832    0.0000 C   0  0  0  0  0  0  0  0  0
   -2.2525   -2.1681    0.0000 F   0  0  0  0  0  0  0  0  0
   -1.6713   -0.8627    0.0000 C   0  0  0  0  0  0  0  0  0
   -1.0038   -0.3778    0.0000 C   0  0  0  0  0  0  0  0  0
    1.0847    0.2565    0.0000 C   0  0  0  0  0  0  0  0  0
    0.9985    1.0770    0.0000 C   0  0  0  0  0  0  0  0  0
    1.6659    1.5619    0.0000 C   0  0  0  0  0  0  0  0  0
    2.4196    1.2263    0.0000 C   0  0  0  0  0  0  0  0  0
    3.0871    1.7113    0.0000 F   0  0  0  0  0  0  0  0  0
    2.5059    0.4059    0.0000 C   0  0  0  0  0  0  0  0  0
    1.8384   -0.0791    0.0000 C   0  0  0  0  0  0  0  0  0
  1  2  1  0  0  0  0
  2  3  4  0  0  0  0
  2  7  4  0  0  0  0
  3  4  4  0  0  0  0
  4  5  4  0  0  0  0
  5  6  4  0  0  0  0
  5  8  1  0  0  0  0
  6  7  4  0  0  0  0
  8  9  1  0  0  0  0
  8 39  1  0  0  0  0
  8 46  1  0  0  0  0
  9 10  1  0  0  0  0
 10 11  2  0  0  0  0
 10 12  1  0  0  0  0
 12 13  1  0  0  0  0
 12 17  1  0  0  0  0
 13 14  1  0  0  0  0
 14 15  1  0  0  0  0
 14 16  1  0  0  0  0
 16 17  1  0  0  0  0
 17 18  1  0  0  0  0
 18 19  2  0  0  0  0
 18 20  1  0  0  0  0
 20 21  1  0  0  0  0
 20 24  1  0  0  0  0
 21 22  1  0  0  0  0
 22 23  1  0  0  0  0
 23 24  1  0  0  0  0
 24 25  1  0  0  0  0
 25 26  2  0  0  0  0
 25 27  1  0  0  0  0
 27 28  1  0  0  0  0
 28 29  1  0  0  0  0
 29 30  1  0  0  0  0
 29 34  1  0  0  0  0
 30 31  1  0  0  0  0
 31 32  1  0  0  0  0
 32 33  1  0  0  0  0
 32 35  1  0  0  0  0
 33 34  1  0  0  0  0
 35 36  1  0  0  0  0
 36 37  1  0  0  0  0
 36 38  1  0  0  0  0
 37 38  1  0  0  0  0
 39 40  4  0  0  0  0
 39 45  4  0  0  0  0
 40 41  4  0  0  0  0
 41 42  4  0  0  0  0
 42 43  1  0  0  0  0
 42 44  4  0  0  0  0
 44 45  4  0  0  0  0
 46 47  4  0  0  0  0
 46 52  4  0  0  0  0
 47 48  4  0  0  0  0
 48 49  4  0  0  0  0
 49 50  1  0  0  0  0
 49 51  4  0  0  0  0
 51 52  4  0  0  0  0
M  END
>  <Name_Molregno>
357271

>  <Muscarinic acetylcholine receptor M1>
7.19

>  <Muscarinic acetylcholine receptor M2>
7.14

>  <Muscarinic acetylcholine receptor M3>
9.77

>  <Muscarinic acetylcholine receptor M4>
7.7

>  <Muscarinic acetylcholine receptor M5>
5.8

$$$$
357743
  Marvin  02231216192D 0   1.00000     0.00000     0

 53 59  0  0  1  0  0  0  0  0999 V2000
   -1.5562    2.5810    0.0000 F   0  0  0  0  0  0  0  0  0
   -1.0713    1.9136    0.0000 C   0  0  0  0  0  0  0  0  0
   -0.2508    1.9998    0.0000 C   0  0  0  0  0  0  0  0  0
    0.2341    1.3324    0.0000 C   0  0  0  0  0  0  0  0  0
   -0.1014    0.5787    0.0000 C   0  0  0  0  0  0  0  0  0
   -0.9219    0.4925    0.0000 C   0  0  0  0  0  0  0  0  0
   -1.4068    1.1599    0.0000 C   0  0  0  0  0  0  0  0  0
    0.3835   -0.0887    0.0000 C   0  0  0  0  0  0  0  0  0
    0.8684   -0.7562    0.0000 C   0  0  0  0  0  0  0  0  0
    0.5329   -1.5099    0.0000 C   0  0  0  0  0  0  0  0  0
   -0.2208   -1.8454    0.0000 O   0  0  0  0  0  0  0  0  0
    1.0178   -2.1773    0.0000 N   0  0  0  0  0  0  0  0  0
    1.8428   -2.1773    0.0000 C   0  0  0  0  0  0  0  0  0
    2.0977   -2.9619    0.0000 C   0  0  0  0  0  0  0  0  0
    2.8824   -3.2169    0.0000 O   0  0  0  0  0  0  0  0  0
    1.4303   -3.4468    0.0000 C   0  0  0  0  0  0  0  0  0
    0.7629   -2.9619    0.0000 C   0  0  0  0  0  0  0  0  0
   -0.0218   -3.2169    0.0000 C   0  0  0  0  0  0  0  0  0
   -0.6349   -2.6648    0.0000 O   0  0  0  0  0  0  0  0  0
   -0.1933   -4.0238    0.0000 N   0  0  0  0  0  0  0  0  0
    0.3587   -4.6369    0.0000 C   0  0  0  0  0  0  0  0  0
   -0.0538   -5.3514    0.0000 C   0  0  0  0  0  0  0  0  0
   -0.8607   -5.1799    0.0000 C   0  0  0  0  0  0  0  0  0
   -0.9470   -4.3594    0.0000 C   0  0  0  0  0  0  0  0  0
   -1.6614   -3.9469    0.0000 C   0  0  0  0  0  0  0  0  0
   -2.3759   -4.3594    0.0000 O   0  0  0  0  0  0  0  0  0
   -1.6614   -3.1219    0.0000 N   0  0  0  0  0  0  0  0  0
   -2.3759   -2.7094    0.0000 C   0  0  0  0  0  0  0  0  0
   -3.0904   -3.1219    0.0000 C   0  0  0  0  0  0  0  0  0
   -3.0904   -3.9469    0.0000 C   0  0  0  0  0  0  0  0  0
   -3.8048   -4.3594    0.0000 C   0  0  0  0  0  0  0  0  0
   -4.5193   -3.9469    0.0000 N   0  0  0  0  0  0  0  0  0
   -4.5193   -3.1219    0.0000 C   0  0  0  0  0  0  0  0  0
   -3.8048   -2.7094    0.0000 C   0  0  0  0  0  0  0  0  0
   -5.2338   -4.3594    0.0000 C   0  0  0  0  0  0  0  0  0
   -5.2338   -5.1844    0.0000 C   0  0  0  0  0  0  0  0  0
   -4.6504   -5.7677    0.0000 C   0  0  0  0  0  0  0  0  0
   -5.2338   -6.3511    0.0000 C   0  0  0  0  0  0  0  0  0
   -5.8171   -5.7677    0.0000 C   0  0  0  0  0  0  0  0  0
   -0.2839   -0.5737    0.0000 C   0  0  0  0  0  0  0  0  0
   -0.1977   -1.3941    0.0000 C   0  0  0  0  0  0  0  0  0
   -0.8651   -1.8791    0.0000 C   0  0  0  0  0  0  0  0  0
   -1.6188   -1.5435    0.0000 C   0  0  0  0  0  0  0  0  0
   -2.2862   -2.0284    0.0000 F   0  0  0  0  0  0  0  0  0
   -1.7050   -0.7230    0.0000 C   0  0  0  0  0  0  0  0  0
   -1.0376   -0.2381    0.0000 C   0  0  0  0  0  0  0  0  0
    1.0510    0.3962    0.0000 C   0  0  0  0  0  0  0  0  0
    0.9647    1.2167    0.0000 C   0  0  0  0  0  0  0  0  0
    1.6322    1.7016    0.0000 C   0  0  0  0  0  0  0  0  0
    2.3858    1.3660    0.0000 C   0  0  0  0  0  0  0  0  0
    3.0533    1.8510    0.0000 F   0  0  0  0  0  0  0  0  0
    2.4721    0.5456    0.0000 C   0  0  0  0  0  0  0  0  0
    1.8046    0.0606    0.0000 C   0  0  0  0  0  0  0  0  0
  1  2  1  0  0  0  0
  2  3  4  0  0  0  0
  2  7  4  0  0  0  0
  3  4  4  0  0  0  0
  4  5  4  0  0  0  0
  5  6  4  0  0  0  0
  5  8  1  0  0  0  0
  6  7  4  0  0  0  0
  8  9  1  0  0  0  0
  8 40  1  0  0  0  0
  8 47  1  0  0  0  0
  9 10  1  0  0  0  0
 10 11  2  0  0  0  0
 10 12  1  0  0  0  0
 12 13  1  0  0  0  0
 12 17  1  0  0  0  0
 13 14  1  0  0  0  0
 14 15  1  0  0  0  0
 14 16  1  0  0  0  0
 16 17  1  0  0  0  0
 17 18  1  0  0  0  0
 18 19  2  0  0  0  0
 18 20  1  0  0  0  0
 20 21  1  0  0  0  0
 20 24  1  0  0  0  0
 21 22  1  0  0  0  0
 22 23  1  0  0  0  0
 23 24  1  0  0  0  0
 24 25  1  0  0  0  0
 25 26  2  0  0  0  0
 25 27  1  0  0  0  0
 27 28  1  0  0  0  0
 28 29  1  0  0  0  0
 29 30  1  0  0  0  0
 29 34  1  0  0  0  0
 30 31  1  0  0  0  0
 31 32  1  0  0  0  0
 32 33  1  0  0  0  0
 32 35  1  0  0  0  0
 33 34  1  0  0  0  0
 35 36  1  0  0  0  0
 36 37  1  0  0  0  0
 36 39  1  0  0  0  0
 37 38  1  0  0  0  0
 38 39  1  0  0  0  0
 40 41  4  0  0  0  0
 40 46  4  0  0  0  0
 41 42  4  0  0  0  0
 42 43  4  0  0  0  0
 43 44  1  0  0  0  0
 43 45  4  0  0  0  0
 45 46  4  0  0  0  0
 47 48  4  0  0  0  0
 47 53  4  0  0  0  0
 48 49  4  0  0  0  0
 49 50  4  0  0  0  0
 50 51  1  0  0  0  0
 50 52  4  0  0  0  0
 52 53  4  0  0  0  0
M  END
>  <Name_Molregno>
357743

>  <Muscarinic acetylcholine receptor M1>
6.66

>  <Muscarinic acetylcholine receptor M2>
7.17

>  <Muscarinic acetylcholine receptor M3>
9.28

>  <Muscarinic acetylcholine receptor M4>
7.51

>  <Muscarinic acetylcholine receptor M5>
5.51

$$$$
357744
  Marvin  02231216192D 0   1.00000     0.00000     0

 54 60  0  0  1  0  0  0  0  0999 V2000
    1.2363    2.1764    0.0000 F   0  0  0  0  0  0  0  0  0
    1.2363    1.3514    0.0000 C   0  0  0  0  0  0  0  0  0
    1.9507    0.9389    0.0000 C   0  0  0  0  0  0  0  0  0
    1.9507    0.1139    0.0000 C   0  0  0  0  0  0  0  0  0
    1.2363   -0.2986    0.0000 C   0  0  0  0  0  0  0  0  0
    0.5218    0.1139    0.0000 C   0  0  0  0  0  0  0  0  0
    0.5218    0.9389    0.0000 C   0  0  0  0  0  0  0  0  0
    1.2363   -1.1236    0.0000 C   0  0  0  0  0  0  0  0  0
    1.2363   -1.9486    0.0000 C   0  0  0  0  0  0  0  0  0
    0.5218   -2.3611    0.0000 C   0  0  0  0  0  0  0  0  0
   -0.2852   -2.1895    0.0000 O   0  0  0  0  0  0  0  0  0
    0.5218   -3.1861    0.0000 N   0  0  0  0  0  0  0  0  0
    1.1892   -3.6710    0.0000 C   0  0  0  0  0  0  0  0  0
    0.9343   -4.4556    0.0000 C   0  0  0  0  0  0  0  0  0
    1.4192   -5.1230    0.0000 O   0  0  0  0  0  0  0  0  0
    0.1093   -4.4556    0.0000 C   0  0  0  0  0  0  0  0  0
   -0.1456   -3.6710    0.0000 C   0  0  0  0  0  0  0  0  0
   -0.9303   -3.4160    0.0000 C   0  0  0  0  0  0  0  0  0
   -1.1018   -2.6091    0.0000 O   0  0  0  0  0  0  0  0  0
   -1.5433   -3.9681    0.0000 N   0  0  0  0  0  0  0  0  0
   -1.4571   -4.7886    0.0000 C   0  0  0  0  0  0  0  0  0
   -2.2108   -5.1241    0.0000 C   0  0  0  0  0  0  0  0  0
   -2.7628   -4.5110    0.0000 C   0  0  0  0  0  0  0  0  0
   -2.3503   -3.7966    0.0000 C   0  0  0  0  0  0  0  0  0
   -2.6859   -3.0429    0.0000 C   0  0  0  0  0  0  0  0  0
   -3.5064   -2.9566    0.0000 O   0  0  0  0  0  0  0  0  0
   -2.2010   -2.3754    0.0000 N   0  0  0  0  0  0  0  0  0
   -2.5365   -1.6218    0.0000 C   0  0  0  0  0  0  0  0  0
   -3.3570   -1.5355    0.0000 C   0  0  0  0  0  0  0  0  0
   -3.8419   -2.2030    0.0000 C   0  0  0  0  0  0  0  0  0
   -4.6624   -2.1167    0.0000 C   0  0  0  0  0  0  0  0  0
   -4.9980   -1.3631    0.0000 N   0  0  0  0  0  0  0  0  0
   -4.5130   -0.6956    0.0000 C   0  0  0  0  0  0  0  0  0
   -3.6926   -0.7819    0.0000 C   0  0  0  0  0  0  0  0  0
   -5.8184   -1.2768    0.0000 C   0  0  0  0  0  0  0  0  0
   -6.3034   -1.9443    0.0000 C   0  0  0  0  0  0  0  0  0
   -6.0484   -2.7289    0.0000 C   0  0  0  0  0  0  0  0  0
   -6.7159   -3.2138    0.0000 C   0  0  0  0  0  0  0  0  0
   -7.3833   -2.7289    0.0000 C   0  0  0  0  0  0  0  0  0
   -7.1284   -1.9443    0.0000 C   0  0  0  0  0  0  0  0  0
    0.4113   -1.1236    0.0000 C   0  0  0  0  0  0  0  0  0
   -0.0012   -1.8380    0.0000 C   0  0  0  0  0  0  0  0  0
   -0.8262   -1.8380    0.0000 C   0  0  0  0  0  0  0  0  0
   -1.2387   -1.1236    0.0000 C   0  0  0  0  0  0  0  0  0
   -2.0637   -1.1236    0.0000 F   0  0  0  0  0  0  0  0  0
   -0.8262   -0.4091    0.0000 C   0  0  0  0  0  0  0  0  0
   -0.0012   -0.4091    0.0000 C   0  0  0  0  0  0  0  0  0
    2.0613   -1.1236    0.0000 C   0  0  0  0  0  0  0  0  0
    2.4738   -0.4091    0.0000 C   0  0  0  0  0  0  0  0  0
    3.2988   -0.4091    0.0000 C   0  0  0  0  0  0  0  0  0
    3.7113   -1.1236    0.0000 C   0  0  0  0  0  0  0  0  0
    4.5363   -1.1236    0.0000 F   0  0  0  0  0  0  0  0  0
    3.2988   -1.8380    0.0000 C   0  0  0  0  0  0  0  0  0
    2.4738   -1.8380    0.0000 C   0  0  0  0  0  0  0  0  0
  1  2  1  0  0  0  0
  2  3  4  0  0  0  0
  2  7  4  0  0  0  0
  3  4  4  0  0  0  0
  4  5  4  0  0  0  0
  5  6  4  0  0  0  0
  5  8  1  0  0  0  0
  6  7  4  0  0  0  0
  8  9  1  0  0  0  0
  8 41  1  0  0  0  0
  8 48  1  0  0  0  0
  9 10  1  0  0  0  0
 10 11  2  0  0  0  0
 10 12  1  0  0  0  0
 12 13  1  0  0  0  0
 12 17  1  0  0  0  0
 13 14  1  0  0  0  0
 14 15  1  0  0  0  0
 14 16  1  0  0  0  0
 16 17  1  0  0  0  0
 17 18  1  0  0  0  0
 18 19  2  0  0  0  0
 18 20  1  0  0  0  0
 20 21  1  0  0  0  0
 20 24  1  0  0  0  0
 21 22  1  0  0  0  0
 22 23  1  0  0  0  0
 23 24  1  0  0  0  0
 24 25  1  0  0  0  0
 25 26  2  0  0  0  0
 25 27  1  0  0  0  0
 27 28  1  0  0  0  0
 28 29  1  0  0  0  0
 29 30  1  0  0  0  0
 29 34  1  0  0  0  0
 30 31  1  0  0  0  0
 31 32  1  0  0  0  0
 32 33  1  0  0  0  0
 32 35  1  0  0  0  0
 33 34  1  0  0  0  0
 35 36  1  0  0  0  0
 36 37  1  0  0  0  0
 36 40  1  0  0  0  0
 37 38  1  0  0  0  0
 38 39  1  0  0  0  0
 39 40  1  0  0  0  0
 41 42  4  0  0  0  0
 41 47  4  0  0  0  0
 42 43  4  0  0  0  0
 43 44  4  0  0  0  0
 44 45  1  0  0  0  0
 44 46  4  0  0  0  0
 46 47  4  0  0  0  0
 48 49  4  0  0  0  0
 48 54  4  0  0  0  0
 49 50  4  0  0  0  0
 50 51  4  0  0  0  0
 51 52  1  0  0  0  0
 51 53  4  0  0  0  0
 53 54  4  0  0  0  0
M  END
>  <Name_Molregno>
357744

>  <Muscarinic acetylcholine receptor M1>
7.15

>  <Muscarinic acetylcholine receptor M2>
7.72

>  <Muscarinic acetylcholine receptor M3>
9.72

>  <Muscarinic acetylcholine receptor M4>
7.96

>  <Muscarinic acetylcholine receptor M5>
6.03

$$$$
357745
  Marvin  02231216192D 0   1.00000     0.00000     0

 44 48  0  0  1  0  0  0  0  0999 V2000
    4.2374    0.9845    0.0000 F   0  0  0  0  0  0  0  0  0
    4.2374    0.1595    0.0000 C   0  0  0  0  0  0  0  0  0
    4.9519   -0.2530    0.0000 C   0  0  0  0  0  0  0  0  0
    4.9519   -1.0780    0.0000 C   0  0  0  0  0  0  0  0  0
    4.2374   -1.4905    0.0000 C   0  0  0  0  0  0  0  0  0
    3.5230   -1.0780    0.0000 C   0  0  0  0  0  0  0  0  0
    3.5230   -0.2530    0.0000 C   0  0  0  0  0  0  0  0  0
    4.2374   -2.3155    0.0000 C   0  0  0  0  0  0  0  0  0
    4.2374   -3.1405    0.0000 C   0  0  0  0  0  0  0  0  0
    3.5230   -3.5530    0.0000 C   0  0  0  0  0  0  0  0  0
    2.7160   -3.3815    0.0000 O   0  0  0  0  0  0  0  0  0
    3.5230   -4.3780    0.0000 N   0  0  0  0  0  0  0  0  0
    4.1904   -4.8629    0.0000 C   0  0  0  0  0  0  0  0  0
    3.9355   -5.6475    0.0000 C   0  0  0  0  0  0  0  0  0
    4.4204   -6.3150    0.0000 O   0  0  0  0  0  0  0  0  0
    3.1105   -5.6475    0.0000 C   0  0  0  0  0  0  0  0  0
    2.8555   -4.8629    0.0000 C   0  0  0  0  0  0  0  0  0
    2.0709   -4.6080    0.0000 C   0  0  0  0  0  0  0  0  0
    1.8994   -3.8010    0.0000 O   0  0  0  0  0  0  0  0  0
    1.4578   -5.1600    0.0000 N   0  0  0  0  0  0  0  0  0
    1.5441   -5.9805    0.0000 C   0  0  0  0  0  0  0  0  0
    0.7904   -6.3161    0.0000 C   0  0  0  0  0  0  0  0  0
    0.2383   -5.7030    0.0000 C   0  0  0  0  0  0  0  0  0
    0.6508   -4.9885    0.0000 C   0  0  0  0  0  0  0  0  0
    0.3153   -4.2348    0.0000 C   0  0  0  0  0  0  0  0  0
    0.8002   -3.5674    0.0000 O   0  0  0  0  0  0  0  0  0
   -0.5052   -4.1486    0.0000 N   0  0  0  0  0  0  0  0  0
   -0.8407   -3.3949    0.0000 C   0  0  0  0  0  0  0  0  0
   -1.6612   -3.3087    0.0000 C   0  0  0  0  0  0  0  0  0
   -0.3558   -2.7275    0.0000 C   0  0  0  0  0  0  0  0  0
    3.4124   -2.3155    0.0000 C   0  0  0  0  0  0  0  0  0
    2.9999   -3.0300    0.0000 C   0  0  0  0  0  0  0  0  0
    2.1749   -3.0300    0.0000 C   0  0  0  0  0  0  0  0  0
    1.7624   -2.3155    0.0000 C   0  0  0  0  0  0  0  0  0
    0.9374   -2.3155    0.0000 F   0  0  0  0  0  0  0  0  0
    2.1749   -1.6010    0.0000 C   0  0  0  0  0  0  0  0  0
    2.9999   -1.6010    0.0000 C   0  0  0  0  0  0  0  0  0
    5.0624   -2.3155    0.0000 C   0  0  0  0  0  0  0  0  0
    5.4749   -1.6010    0.0000 C   0  0  0  0  0  0  0  0  0
    6.2999   -1.6010    0.0000 C   0  0  0  0  0  0  0  0  0
    6.7124   -2.3155    0.0000 C   0  0  0  0  0  0  0  0  0
    7.5374   -2.3155    0.0000 F   0  0  0  0  0  0  0  0  0
    6.2999   -3.0300    0.0000 C   0  0  0  0  0  0  0  0  0
    5.4749   -3.0300    0.0000 C   0  0  0  0  0  0  0  0  0
  1  2  1  0  0  0  0
  2  3  4  0  0  0  0
  2  7  4  0  0  0  0
  3  4  4  0  0  0  0
  4  5  4  0  0  0  0
  5  6  4  0  0  0  0
  5  8  1  0  0  0  0
  6  7  4  0  0  0  0
  8  9  1  0  0  0  0
  8 31  1  0  0  0  0
  8 38  1  0  0  0  0
  9 10  1  0  0  0  0
 10 11  2  0  0  0  0
 10 12  1  0  0  0  0
 12 13  1  0  0  0  0
 12 17  1  0  0  0  0
 13 14  1  0  0  0  0
 14 15  1  0  0  0  0
 14 16  1  0  0  0  0
 16 17  1  0  0  0  0
 17 18  1  0  0  0  0
 18 19  2  0  0  0  0
 18 20  1  0  0  0  0
 20 21  1  0  0  0  0
 20 24  1  0  0  0  0
 21 22  1  0  0  0  0
 22 23  1  0  0  0  0
 23 24  1  0  0  0  0
 24 25  1  0  0  0  0
 25 26  2  0  0  0  0
 25 27  1  0  0  0  0
 27 28  1  0  0  0  0
 28 29  1  0  0  0  0
 28 30  1  0  0  0  0
 31 32  4  0  0  0  0
 31 37  4  0  0  0  0
 32 33  4  0  0  0  0
 33 34  4  0  0  0  0
 34 35  1  0  0  0  0
 34 36  4  0  0  0  0
 36 37  4  0  0  0  0
 38 39  4  0  0  0  0
 38 44  4  0  0  0  0
 39 40  4  0  0  0  0
 40 41  4  0  0  0  0
 41 42  1  0  0  0  0
 41 43  4  0  0  0  0
 43 44  4  0  0  0  0
M  END
>  <Name_Molregno>
357745

>  <Muscarinic acetylcholine receptor M1>
6.1

>  <Muscarinic acetylcholine receptor M2>
5.82

>  <Muscarinic acetylcholine receptor M3>
8.62

>  <Muscarinic acetylcholine receptor M4>
6.74

>  <Muscarinic acetylcholine receptor M5>
5.27

$$$$
357747
  Marvin  02231216192D 0   1.00000     0.00000     0

 53 59  0  0  1  0  0  0  0  0999 V2000
    1.3225    2.0674    0.0000 F   0  0  0  0  0  0  0  0  0
    1.3225    1.2424    0.0000 C   0  0  0  0  0  0  0  0  0
    2.0370    0.8299    0.0000 C   0  0  0  0  0  0  0  0  0
    2.0370    0.0049    0.0000 C   0  0  0  0  0  0  0  0  0
    1.3225   -0.4076    0.0000 C   0  0  0  0  0  0  0  0  0
    0.6081    0.0049    0.0000 C   0  0  0  0  0  0  0  0  0
    0.6081    0.8299    0.0000 C   0  0  0  0  0  0  0  0  0
    1.3225   -1.2326    0.0000 C   0  0  0  0  0  0  0  0  0
    1.3225   -2.0576    0.0000 C   0  0  0  0  0  0  0  0  0
    0.6081   -2.4701    0.0000 C   0  0  0  0  0  0  0  0  0
   -0.1989   -2.2986    0.0000 O   0  0  0  0  0  0  0  0  0
    0.6081   -3.2951    0.0000 N   0  0  0  0  0  0  0  0  0
    1.2755   -3.7800    0.0000 C   0  0  0  0  0  0  0  0  0
    1.0206   -4.5646    0.0000 C   0  0  0  0  0  0  0  0  0
    1.5055   -5.2321    0.0000 O   0  0  0  0  0  0  0  0  0
    0.1956   -4.5646    0.0000 C   0  0  0  0  0  0  0  0  0
   -0.0594   -3.7800    0.0000 C   0  0  0  0  0  0  0  0  0
   -0.8440   -3.5251    0.0000 C   0  0  0  0  0  0  0  0  0
   -1.0155   -2.7181    0.0000 O   0  0  0  0  0  0  0  0  0
   -1.4571   -4.0771    0.0000 N   0  0  0  0  0  0  0  0  0
   -1.3708   -4.8976    0.0000 C   0  0  0  0  0  0  0  0  0
   -2.1245   -5.2331    0.0000 C   0  0  0  0  0  0  0  0  0
   -2.6766   -4.6201    0.0000 C   0  0  0  0  0  0  0  0  0
   -2.2641   -3.9056    0.0000 C   0  0  0  0  0  0  0  0  0
   -2.5996   -3.1519    0.0000 C   0  0  0  0  0  0  0  0  0
   -3.4201   -3.0657    0.0000 O   0  0  0  0  0  0  0  0  0
   -2.1147   -2.4845    0.0000 N   0  0  0  0  0  0  0  0  0
   -2.4502   -1.7308    0.0000 C   0  0  0  0  0  0  0  0  0
   -3.2707   -1.6446    0.0000 C   0  0  0  0  0  0  0  0  0
   -3.7556   -2.3120    0.0000 C   0  0  0  0  0  0  0  0  0
   -4.5761   -2.2258    0.0000 C   0  0  0  0  0  0  0  0  0
   -4.9117   -1.4721    0.0000 N   0  0  0  0  0  0  0  0  0
   -4.4268   -0.8046    0.0000 C   0  0  0  0  0  0  0  0  0
   -3.6063   -0.8909    0.0000 C   0  0  0  0  0  0  0  0  0
   -5.7322   -1.3858    0.0000 C   0  0  0  0  0  0  0  0  0
   -6.2842   -1.9989    0.0000 C   0  0  0  0  0  0  0  0  0
   -7.0379   -1.6634    0.0000 C   0  0  0  0  0  0  0  0  0
   -6.9516   -0.8429    0.0000 C   0  0  0  0  0  0  0  0  0
   -6.1447   -0.6714    0.0000 C   0  0  0  0  0  0  0  0  0
    0.4975   -1.2326    0.0000 C   0  0  0  0  0  0  0  0  0
    0.0850   -1.9471    0.0000 C   0  0  0  0  0  0  0  0  0
   -0.7400   -1.9471    0.0000 C   0  0  0  0  0  0  0  0  0
   -1.1525   -1.2326    0.0000 C   0  0  0  0  0  0  0  0  0
   -1.9775   -1.2326    0.0000 F   0  0  0  0  0  0  0  0  0
   -0.7400   -0.5181    0.0000 C   0  0  0  0  0  0  0  0  0
    0.0850   -0.5181    0.0000 C   0  0  0  0  0  0  0  0  0
    2.1475   -1.2326    0.0000 C   0  0  0  0  0  0  0  0  0
    2.5600   -0.5181    0.0000 C   0  0  0  0  0  0  0  0  0
    3.3850   -0.5181    0.0000 C   0  0  0  0  0  0  0  0  0
    3.7975   -1.2326    0.0000 C   0  0  0  0  0  0  0  0  0
    4.6225   -1.2326    0.0000 F   0  0  0  0  0  0  0  0  0
    3.3850   -1.9471    0.0000 C   0  0  0  0  0  0  0  0  0
    2.5600   -1.9471    0.0000 C   0  0  0  0  0  0  0  0  0
  1  2  1  0  0  0  0
  2  3  4  0  0  0  0
  2  7  4  0  0  0  0
  3  4  4  0  0  0  0
  4  5  4  0  0  0  0
  5  6  4  0  0  0  0
  5  8  1  0  0  0  0
  6  7  4  0  0  0  0
  8  9  1  0  0  0  0
  8 40  1  0  0  0  0
  8 47  1  0  0  0  0
  9 10  1  0  0  0  0
 10 11  2  0  0  0  0
 10 12  1  0  0  0  0
 12 13  1  0  0  0  0
 12 17  1  0  0  0  0
 13 14  1  0  0  0  0
 14 15  1  0  0  0  0
 14 16  1  0  0  0  0
 16 17  1  0  0  0  0
 17 18  1  0  0  0  0
 18 19  2  0  0  0  0
 18 20  1  0  0  0  0
 20 21  1  0  0  0  0
 20 24  1  0  0  0  0
 21 22  1  0  0  0  0
 22 23  1  0  0  0  0
 23 24  1  0  0  0  0
 24 25  1  0  0  0  0
 25 26  2  0  0  0  0
 25 27  1  0  0  0  0
 27 28  1  0  0  0  0
 28 29  1  0  0  0  0
 29 30  1  0  0  0  0
 29 34  1  0  0  0  0
 30 31  1  0  0  0  0
 31 32  1  0  0  0  0
 32 33  1  0  0  0  0
 32 35  1  0  0  0  0
 33 34  1  0  0  0  0
 35 36  1  0  0  0  0
 35 39  1  0  0  0  0
 36 37  1  0  0  0  0
 37 38  1  0  0  0  0
 38 39  1  0  0  0  0
 40 41  4  0  0  0  0
 40 46  4  0  0  0  0
 41 42  4  0  0  0  0
 42 43  4  0  0  0  0
 43 44  1  0  0  0  0
 43 45  4  0  0  0  0
 45 46  4  0  0  0  0
 47 48  4  0  0  0  0
 47 53  4  0  0  0  0
 48 49  4  0  0  0  0
 49 50  4  0  0  0  0
 50 51  1  0  0  0  0
 50 52  4  0  0  0  0
 52 53  4  0  0  0  0
M  END
>  <Name_Molregno>
357747

>  <Muscarinic acetylcholine receptor M1>
6.68

>  <Muscarinic acetylcholine receptor M2>
6.96

>  <Muscarinic acetylcholine receptor M3>
9.29

>  <Muscarinic acetylcholine receptor M4>
7.32

>  <Muscarinic acetylcholine receptor M5>
5.49

$$$$
357763
  Marvin  02231216192D 0   1.00000     0.00000     0

 44 49  0  0  1  0  0  0  0  0999 V2000
    1.0986    0.3216    0.0000 O   0  0  0  0  0  0  0  0  0
    1.8131   -0.0909    0.0000 C   0  0  0  0  0  0  0  0  0
    1.8131   -0.9159    0.0000 N   0  0  0  0  0  0  0  0  0
    2.4805   -1.4009    0.0000 C   0  0  0  0  0  0  0  0  0
    2.2256   -2.1855    0.0000 C   0  0  0  0  0  0  0  0  0
    1.4006   -2.1855    0.0000 C   0  0  0  0  0  0  0  0  0
    1.1456   -1.4009    0.0000 C   0  0  0  0  0  0  0  0  0
    0.3610   -1.1459    0.0000 C   0  0  0  0  0  0  0  0  0
    0.1895   -0.3390    0.0000 O   0  0  0  0  0  0  0  0  0
   -0.2521   -1.6980    0.0000 N   0  0  0  0  0  0  0  0  0
   -1.0367   -1.4430    0.0000 C   0  0  0  0  0  0  0  0  0
   -1.6498   -1.9950    0.0000 C   0  0  0  0  0  0  0  0  0
   -1.4783   -2.8020    0.0000 C   0  0  0  0  0  0  0  0  0
   -2.0914   -3.3541    0.0000 C   0  0  0  0  0  0  0  0  0
   -2.8760   -3.0991    0.0000 C   0  0  0  0  0  0  0  0  0
   -3.0475   -2.2921    0.0000 N   0  0  0  0  0  0  0  0  0
   -2.4344   -1.7401    0.0000 C   0  0  0  0  0  0  0  0  0
    2.5275    0.3216    0.0000 C   0  0  0  0  0  0  0  0  0
    2.6138    1.1420    0.0000 N   0  0  0  0  0  0  0  0  0
    3.4207    1.3136    0.0000 C   0  0  0  0  0  0  0  0  0
    3.8332    0.5991    0.0000 C   0  0  0  0  0  0  0  0  0
    3.2812   -0.0140    0.0000 C   0  0  0  0  0  0  0  0  0
    2.0007    1.6941    0.0000 C   0  0  0  0  0  0  0  0  0
    2.4132    2.4085    0.0000 O   0  0  0  0  0  0  0  0  0
    1.2161    1.4391    0.0000 C   0  0  0  0  0  0  0  0  0
    0.6030    1.9912    0.0000 C   0  0  0  0  0  0  0  0  0
   -0.0101    2.5432    0.0000 C   0  0  0  0  0  0  0  0  0
   -0.7948    2.2883    0.0000 C   0  0  0  0  0  0  0  0  0
   -1.4078    2.8403    0.0000 C   0  0  0  0  0  0  0  0  0
   -1.2363    3.6473    0.0000 C   0  0  0  0  0  0  0  0  0
   -0.4517    3.9022    0.0000 C   0  0  0  0  0  0  0  0  0
    0.1614    3.3502    0.0000 C   0  0  0  0  0  0  0  0  0
    1.1550    2.6043    0.0000 C   0  0  0  0  0  0  0  0  0
    0.9001    3.3889    0.0000 C   0  0  0  0  0  0  0  0  0
    1.4521    4.0020    0.0000 C   0  0  0  0  0  0  0  0  0
    2.2591    3.8305    0.0000 C   0  0  0  0  0  0  0  0  0
    2.5140    3.0458    0.0000 C   0  0  0  0  0  0  0  0  0
    1.9620    2.4327    0.0000 C   0  0  0  0  0  0  0  0  0
    0.0509    1.3781    0.0000 C   0  0  0  0  0  0  0  0  0
    0.3059    0.5935    0.0000 C   0  0  0  0  0  0  0  0  0
   -0.2462   -0.0196    0.0000 C   0  0  0  0  0  0  0  0  0
   -1.0531    0.1519    0.0000 C   0  0  0  0  0  0  0  0  0
   -1.3081    0.9365    0.0000 C   0  0  0  0  0  0  0  0  0
   -0.7560    1.5496    0.0000 C   0  0  0  0  0  0  0  0  0
  1  2  2  0  0  0  0
  2  3  1  0  0  0  0
  2 18  1  0  0  0  0
  3  4  1  0  0  0  0
  3  7  1  0  0  0  0
  4  5  1  0  0  0  0
  5  6  1  0  0  0  0
  6  7  1  0  0  0  0
  7  8  1  0  0  0  0
  8  9  2  0  0  0  0
  8 10  1  0  0  0  0
 10 11  1  0  0  0  0
 11 12  1  0  0  0  0
 12 13  1  0  0  0  0
 12 17  1  0  0  0  0
 13 14  1  0  0  0  0
 14 15  1  0  0  0  0
 15 16  1  0  0  0  0
 16 17  1  0  0  0  0
 18 19  1  0  0  0  0
 18 22  1  0  0  0  0
 19 20  1  0  0  0  0
 19 23  1  0  0  0  0
 20 21  1  0  0  0  0
 21 22  1  0  0  0  0
 23 24  2  0  0  0  0
 23 25  1  0  0  0  0
 25 26  1  0  0  0  0
 26 27  1  0  0  0  0
 26 33  1  0  0  0  0
 26 39  1  0  0  0  0
 27 28  4  0  0  0  0
 27 32  4  0  0  0  0
 28 29  4  0  0  0  0
 29 30  4  0  0  0  0
 30 31  4  0  0  0  0
 31 32  4  0  0  0  0
 33 34  4  0  0  0  0
 33 38  4  0  0  0  0
 34 35  4  0  0  0  0
 35 36  4  0  0  0  0
 36 37  4  0  0  0  0
 37 38  4  0  0  0  0
 39 40  4  0  0  0  0
 39 44  4  0  0  0  0
 40 41  4  0  0  0  0
 41 42  4  0  0  0  0
 42 43  4  0  0  0  0
 43 44  4  0  0  0  0
M  END
>  <Name_Molregno>
357763

>  <Muscarinic acetylcholine receptor M1>
5.6

>  <Muscarinic acetylcholine receptor M2>
5.51

>  <Muscarinic acetylcholine receptor M3>
7.32

>  <Muscarinic acetylcholine receptor M4>
5.77

>  <Muscarinic acetylcholine receptor M5>
5.3

$$$$
358046
  Marvin  02231216192D 0   1.00000     0.00000     0

 48 53  0  0  1  0  0  0  0  0999 V2000
    6.7257    4.4856    0.0000 Cl  0  0  0  0  0  0  0  0  0
    6.7257    3.6606    0.0000 C   0  0  0  0  0  0  0  0  0
    7.4402    3.2481    0.0000 C   0  0  0  0  0  0  0  0  0
    7.4402    2.4231    0.0000 C   0  0  0  0  0  0  0  0  0
    6.7257    2.0106    0.0000 C   0  0  0  0  0  0  0  0  0
    6.0113    2.4231    0.0000 C   0  0  0  0  0  0  0  0  0
    6.0113    3.2481    0.0000 C   0  0  0  0  0  0  0  0  0
    6.7257    1.1856    0.0000 C   0  0  0  0  0  0  0  0  0
    6.7257    0.3606    0.0000 C   0  0  0  0  0  0  0  0  0
    6.0113   -0.0519    0.0000 C   0  0  0  0  0  0  0  0  0
    5.2043    0.1196    0.0000 O   0  0  0  0  0  0  0  0  0
    6.0113   -0.8769    0.0000 N   0  0  0  0  0  0  0  0  0
    6.6787   -1.3618    0.0000 C   0  0  0  0  0  0  0  0  0
    6.4238   -2.1464    0.0000 C   0  0  0  0  0  0  0  0  0
    6.9087   -2.8139    0.0000 O   0  0  0  0  0  0  0  0  0
    5.5988   -2.1464    0.0000 C   0  0  0  0  0  0  0  0  0
    5.3438   -1.3618    0.0000 C   0  0  0  0  0  0  0  0  0
    4.5592   -1.1069    0.0000 C   0  0  0  0  0  0  0  0  0
    4.3877   -0.2999    0.0000 O   0  0  0  0  0  0  0  0  0
    3.9461   -1.6589    0.0000 N   0  0  0  0  0  0  0  0  0
    4.0323   -2.4794    0.0000 C   0  0  0  0  0  0  0  0  0
    3.2787   -2.8150    0.0000 C   0  0  0  0  0  0  0  0  0
    2.7266   -2.2019    0.0000 C   0  0  0  0  0  0  0  0  0
    3.1391   -1.4874    0.0000 C   0  0  0  0  0  0  0  0  0
    2.8036   -0.7337    0.0000 C   0  0  0  0  0  0  0  0  0
    1.9831   -0.6475    0.0000 O   0  0  0  0  0  0  0  0  0
    3.2885   -0.0663    0.0000 N   0  0  0  0  0  0  0  0  0
    2.9529    0.6874    0.0000 C   0  0  0  0  0  0  0  0  0
    2.1325    0.7736    0.0000 C   0  0  0  0  0  0  0  0  0
    1.6475    0.1062    0.0000 C   0  0  0  0  0  0  0  0  0
    0.8271    0.1924    0.0000 C   0  0  0  0  0  0  0  0  0
    0.4915    0.9461    0.0000 C   0  0  0  0  0  0  0  0  0
    0.9764    1.6135    0.0000 N   0  0  0  0  0  0  0  0  0
    1.7969    1.5273    0.0000 C   0  0  0  0  0  0  0  0  0
    5.9007    1.1856    0.0000 C   0  0  0  0  0  0  0  0  0
    5.4882    0.4711    0.0000 C   0  0  0  0  0  0  0  0  0
    4.6632    0.4711    0.0000 C   0  0  0  0  0  0  0  0  0
    4.2507    1.1856    0.0000 C   0  0  0  0  0  0  0  0  0
    3.4257    1.1856    0.0000 Cl  0  0  0  0  0  0  0  0  0
    4.6632    1.9001    0.0000 C   0  0  0  0  0  0  0  0  0
    5.4882    1.9001    0.0000 C   0  0  0  0  0  0  0  0  0
    7.5507    1.1856    0.0000 C   0  0  0  0  0  0  0  0  0
    7.9632    1.9001    0.0000 C   0  0  0  0  0  0  0  0  0
    8.7882    1.9001    0.0000 C   0  0  0  0  0  0  0  0  0
    9.2007    1.1856    0.0000 C   0  0  0  0  0  0  0  0  0
   10.0257    1.1856    0.0000 Cl  0  0  0  0  0  0  0  0  0
    8.7882    0.4711    0.0000 C   0  0  0  0  0  0  0  0  0
    7.9632    0.4711    0.0000 C   0  0  0  0  0  0  0  0  0
  1  2  1  0  0  0  0
  2  3  4  0  0  0  0
  2  7  4  0  0  0  0
  3  4  4  0  0  0  0
  4  5  4  0  0  0  0
  5  6  4  0  0  0  0
  5  8  1  0  0  0  0
  6  7  4  0  0  0  0
  8  9  1  0  0  0  0
  8 35  1  0  0  0  0
  8 42  1  0  0  0  0
  9 10  1  0  0  0  0
 10 11  2  0  0  0  0
 10 12  1  0  0  0  0
 12 13  1  0  0  0  0
 12 17  1  0  0  0  0
 13 14  1  0  0  0  0
 14 15  1  0  0  0  0
 14 16  1  0  0  0  0
 16 17  1  0  0  0  0
 17 18  1  0  0  0  0
 18 19  2  0  0  0  0
 18 20  1  0  0  0  0
 20 21  1  0  0  0  0
 20 24  1  0  0  0  0
 21 22  1  0  0  0  0
 22 23  1  0  0  0  0
 23 24  1  0  0  0  0
 24 25  1  0  0  0  0
 25 26  2  0  0  0  0
 25 27  1  0  0  0  0
 27 28  1  0  0  0  0
 28 29  1  0  0  0  0
 29 30  1  0  0  0  0
 29 34  1  0  0  0  0
 30 31  1  0  0  0  0
 31 32  1  0  0  0  0
 32 33  1  0  0  0  0
 33 34  1  0  0  0  0
 35 36  4  0  0  0  0
 35 41  4  0  0  0  0
 36 37  4  0  0  0  0
 37 38  4  0  0  0  0
 38 39  1  0  0  0  0
 38 40  4  0  0  0  0
 40 41  4  0  0  0  0
 42 43  4  0  0  0  0
 42 48  4  0  0  0  0
 43 44  4  0  0  0  0
 44 45  4  0  0  0  0
 45 46  1  0  0  0  0
 45 47  4  0  0  0  0
 47 48  4  0  0  0  0
M  END
>  <Name_Molregno>
358046

>  <Muscarinic acetylcholine receptor M1>
6.34

>  <Muscarinic acetylcholine receptor M2>
7

>  <Muscarinic acetylcholine receptor M3>
8.8

>  <Muscarinic acetylcholine receptor M4>
6.92

>  <Muscarinic acetylcholine receptor M5>
5.57

$$$$
358047
  Marvin  02231216192D 0   1.00000     0.00000     0

 48 53  0  0  1  0  0  0  0  0999 V2000
    6.7257    4.4856    0.0000 F   0  0  0  0  0  0  0  0  0
    6.7257    3.6606    0.0000 C   0  0  0  0  0  0  0  0  0
    7.4402    3.2481    0.0000 C   0  0  0  0  0  0  0  0  0
    7.4402    2.4231    0.0000 C   0  0  0  0  0  0  0  0  0
    6.7257    2.0106    0.0000 C   0  0  0  0  0  0  0  0  0
    6.0113    2.4231    0.0000 C   0  0  0  0  0  0  0  0  0
    6.0113    3.2481    0.0000 C   0  0  0  0  0  0  0  0  0
    6.7257    1.1856    0.0000 C   0  0  0  0  0  0  0  0  0
    6.7257    0.3606    0.0000 C   0  0  0  0  0  0  0  0  0
    6.0113   -0.0519    0.0000 C   0  0  0  0  0  0  0  0  0
    5.2043    0.1196    0.0000 O   0  0  0  0  0  0  0  0  0
    6.0113   -0.8769    0.0000 N   0  0  0  0  0  0  0  0  0
    6.6787   -1.3618    0.0000 C   0  0  0  0  0  0  0  0  0
    6.4238   -2.1464    0.0000 C   0  0  0  0  0  0  0  0  0
    6.9087   -2.8139    0.0000 O   0  0  0  0  0  0  0  0  0
    5.5988   -2.1464    0.0000 C   0  0  0  0  0  0  0  0  0
    5.3438   -1.3618    0.0000 C   0  0  0  0  0  0  0  0  0
    4.5592   -1.1069    0.0000 C   0  0  0  0  0  0  0  0  0
    4.3877   -0.2999    0.0000 O   0  0  0  0  0  0  0  0  0
    3.9461   -1.6589    0.0000 N   0  0  0  0  0  0  0  0  0
    4.0323   -2.4794    0.0000 C   0  0  0  0  0  0  0  0  0
    3.2787   -2.8150    0.0000 C   0  0  0  0  0  0  0  0  0
    2.7266   -2.2019    0.0000 C   0  0  0  0  0  0  0  0  0
    3.1391   -1.4874    0.0000 C   0  0  0  0  0  0  0  0  0
    2.8036   -0.7337    0.0000 C   0  0  0  0  0  0  0  0  0
    1.9831   -0.6475    0.0000 O   0  0  0  0  0  0  0  0  0
    3.2885   -0.0663    0.0000 N   0  0  0  0  0  0  0  0  0
    2.9529    0.6874    0.0000 C   0  0  0  0  0  0  0  0  0
    2.1325    0.7736    0.0000 C   0  0  0  0  0  0  0  0  0
    1.6475    0.1062    0.0000 C   0  0  0  0  0  0  0  0  0
    0.8271    0.1924    0.0000 C   0  0  0  0  0  0  0  0  0
    0.4915    0.9461    0.0000 N   0  0  0  0  0  0  0  0  0
    0.9764    1.6135    0.0000 C   0  0  0  0  0  0  0  0  0
    1.7969    1.5273    0.0000 C   0  0  0  0  0  0  0  0  0
    5.9007    1.1856    0.0000 C   0  0  0  0  0  0  0  0  0
    5.4882    0.4711    0.0000 C   0  0  0  0  0  0  0  0  0
    4.6632    0.4711    0.0000 C   0  0  0  0  0  0  0  0  0
    4.2507    1.1856    0.0000 C   0  0  0  0  0  0  0  0  0
    3.4257    1.1856    0.0000 F   0  0  0  0  0  0  0  0  0
    4.6632    1.9001    0.0000 C   0  0  0  0  0  0  0  0  0
    5.4882    1.9001    0.0000 C   0  0  0  0  0  0  0  0  0
    7.5507    1.1856    0.0000 C   0  0  0  0  0  0  0  0  0
    7.9632    1.9001    0.0000 C   0  0  0  0  0  0  0  0  0
    8.7882    1.9001    0.0000 C   0  0  0  0  0  0  0  0  0
    9.2007    1.1856    0.0000 C   0  0  0  0  0  0  0  0  0
   10.0257    1.1856    0.0000 F   0  0  0  0  0  0  0  0  0
    8.7882    0.4711    0.0000 C   0  0  0  0  0  0  0  0  0
    7.9632    0.4711    0.0000 C   0  0  0  0  0  0  0  0  0
  1  2  1  0  0  0  0
  2  3  4  0  0  0  0
  2  7  4  0  0  0  0
  3  4  4  0  0  0  0
  4  5  4  0  0  0  0
  5  6  4  0  0  0  0
  5  8  1  0  0  0  0
  6  7  4  0  0  0  0
  8  9  1  0  0  0  0
  8 35  1  0  0  0  0
  8 42  1  0  0  0  0
  9 10  1  0  0  0  0
 10 11  2  0  0  0  0
 10 12  1  0  0  0  0
 12 13  1  0  0  0  0
 12 17  1  0  0  0  0
 13 14  1  0  0  0  0
 14 15  1  0  0  0  0
 14 16  1  0  0  0  0
 16 17  1  0  0  0  0
 17 18  1  0  0  0  0
 18 19  2  0  0  0  0
 18 20  1  0  0  0  0
 20 21  1  0  0  0  0
 20 24  1  0  0  0  0
 21 22  1  0  0  0  0
 22 23  1  0  0  0  0
 23 24  1  0  0  0  0
 24 25  1  0  0  0  0
 25 26  2  0  0  0  0
 25 27  1  0  0  0  0
 27 28  1  0  0  0  0
 28 29  1  0  0  0  0
 29 30  1  0  0  0  0
 29 34  1  0  0  0  0
 30 31  1  0  0  0  0
 31 32  1  0  0  0  0
 32 33  1  0  0  0  0
 33 34  1  0  0  0  0
 35 36  4  0  0  0  0
 35 41  4  0  0  0  0
 36 37  4  0  0  0  0
 37 38  4  0  0  0  0
 38 39  1  0  0  0  0
 38 40  4  0  0  0  0
 40 41  4  0  0  0  0
 42 43  4  0  0  0  0
 42 48  4  0  0  0  0
 43 44  4  0  0  0  0
 44 45  4  0  0  0  0
 45 46  1  0  0  0  0
 45 47  4  0  0  0  0
 47 48  4  0  0  0  0
M  END
>  <Name_Molregno>
358047

>  <Muscarinic acetylcholine receptor M1>
6.77

>  <Muscarinic acetylcholine receptor M2>
6.31

>  <Muscarinic acetylcholine receptor M3>
9.51

>  <Muscarinic acetylcholine receptor M4>
7.38

>  <Muscarinic acetylcholine receptor M5>
5.46

$$$$
358048
  Marvin  02231216192D 0   1.00000     0.00000     0

 49 54  0  0  1  0  0  0  0  0999 V2000
    5.3535    6.2368    0.0000 F   0  0  0  0  0  0  0  0  0
    5.3535    5.4118    0.0000 C   0  0  0  0  0  0  0  0  0
    6.0680    4.9993    0.0000 C   0  0  0  0  0  0  0  0  0
    6.0680    4.1743    0.0000 C   0  0  0  0  0  0  0  0  0
    5.3535    3.7618    0.0000 C   0  0  0  0  0  0  0  0  0
    4.6391    4.1743    0.0000 C   0  0  0  0  0  0  0  0  0
    4.6391    4.9993    0.0000 C   0  0  0  0  0  0  0  0  0
    5.3535    2.9368    0.0000 C   0  0  0  0  0  0  0  0  0
    5.3535    2.1118    0.0000 C   0  0  0  0  0  0  0  0  0
    4.6391    1.6993    0.0000 C   0  0  0  0  0  0  0  0  0
    3.8321    1.8708    0.0000 O   0  0  0  0  0  0  0  0  0
    4.6391    0.8743    0.0000 N   0  0  0  0  0  0  0  0  0
    5.3065    0.3894    0.0000 C   0  0  0  0  0  0  0  0  0
    5.0516   -0.3952    0.0000 C   0  0  0  0  0  0  0  0  0
    5.5365   -1.0627    0.0000 O   0  0  0  0  0  0  0  0  0
    4.2266   -0.3952    0.0000 C   0  0  0  0  0  0  0  0  0
    3.9716    0.3894    0.0000 C   0  0  0  0  0  0  0  0  0
    3.1870    0.6443    0.0000 C   0  0  0  0  0  0  0  0  0
    3.0155    1.4513    0.0000 O   0  0  0  0  0  0  0  0  0
    2.5739    0.0923    0.0000 N   0  0  0  0  0  0  0  0  0
    2.6601   -0.7282    0.0000 C   0  0  0  0  0  0  0  0  0
    1.9065   -1.0638    0.0000 C   0  0  0  0  0  0  0  0  0
    1.3544   -0.4507    0.0000 C   0  0  0  0  0  0  0  0  0
    1.7669    0.2638    0.0000 C   0  0  0  0  0  0  0  0  0
    1.4314    1.0175    0.0000 C   0  0  0  0  0  0  0  0  0
    1.9163    1.6849    0.0000 O   0  0  0  0  0  0  0  0  0
    0.6109    1.1037    0.0000 N   0  0  0  0  0  0  0  0  0
    0.2753    1.8574    0.0000 C   0  0  0  0  0  0  0  0  0
   -0.5451    1.9436    0.0000 C   0  0  0  0  0  0  0  0  0
   -0.8807    2.6973    0.0000 C   0  0  0  0  0  0  0  0  0
   -1.7012    2.7835    0.0000 C   0  0  0  0  0  0  0  0  0
   -2.0367    3.5372    0.0000 C   0  0  0  0  0  0  0  0  0
   -1.5518    4.2047    0.0000 N   0  0  0  0  0  0  0  0  0
   -0.7313    4.1184    0.0000 C   0  0  0  0  0  0  0  0  0
   -0.3958    3.3648    0.0000 C   0  0  0  0  0  0  0  0  0
    4.5285    2.9368    0.0000 C   0  0  0  0  0  0  0  0  0
    4.1160    2.2223    0.0000 C   0  0  0  0  0  0  0  0  0
    3.2910    2.2223    0.0000 C   0  0  0  0  0  0  0  0  0
    2.8785    2.9368    0.0000 C   0  0  0  0  0  0  0  0  0
    2.0535    2.9368    0.0000 F   0  0  0  0  0  0  0  0  0
    3.2910    3.6513    0.0000 C   0  0  0  0  0  0  0  0  0
    4.1160    3.6513    0.0000 C   0  0  0  0  0  0  0  0  0
    6.1785    2.9368    0.0000 C   0  0  0  0  0  0  0  0  0
    6.5910    3.6513    0.0000 C   0  0  0  0  0  0  0  0  0
    7.4160    3.6513    0.0000 C   0  0  0  0  0  0  0  0  0
    7.8285    2.9368    0.0000 C   0  0  0  0  0  0  0  0  0
    8.6535    2.9368    0.0000 F   0  0  0  0  0  0  0  0  0
    7.4160    2.2223    0.0000 C   0  0  0  0  0  0  0  0  0
    6.5910    2.2223    0.0000 C   0  0  0  0  0  0  0  0  0
  1  2  1  0  0  0  0
  2  3  4  0  0  0  0
  2  7  4  0  0  0  0
  3  4  4  0  0  0  0
  4  5  4  0  0  0  0
  5  6  4  0  0  0  0
  5  8  1  0  0  0  0
  6  7  4  0  0  0  0
  8  9  1  0  0  0  0
  8 36  1  0  0  0  0
  8 43  1  0  0  0  0
  9 10  1  0  0  0  0
 10 11  2  0  0  0  0
 10 12  1  0  0  0  0
 12 13  1  0  0  0  0
 12 17  1  0  0  0  0
 13 14  1  0  0  0  0
 14 15  1  0  0  0  0
 14 16  1  0  0  0  0
 16 17  1  0  0  0  0
 17 18  1  0  0  0  0
 18 19  2  0  0  0  0
 18 20  1  0  0  0  0
 20 21  1  0  0  0  0
 20 24  1  0  0  0  0
 21 22  1  0  0  0  0
 22 23  1  0  0  0  0
 23 24  1  0  0  0  0
 24 25  1  0  0  0  0
 25 26  2  0  0  0  0
 25 27  1  0  0  0  0
 27 28  1  0  0  0  0
 28 29  1  0  0  0  0
 29 30  1  0  0  0  0
 30 31  1  0  0  0  0
 30 35  1  0  0  0  0
 31 32  1  0  0  0  0
 32 33  1  0  0  0  0
 33 34  1  0  0  0  0
 34 35  1  0  0  0  0
 36 37  4  0  0  0  0
 36 42  4  0  0  0  0
 37 38  4  0  0  0  0
 38 39  4  0  0  0  0
 39 40  1  0  0  0  0
 39 41  4  0  0  0  0
 41 42  4  0  0  0  0
 43 44  4  0  0  0  0
 43 49  4  0  0  0  0
 44 45  4  0  0  0  0
 45 46  4  0  0  0  0
 46 47  1  0  0  0  0
 46 48  4  0  0  0  0
 48 49  4  0  0  0  0
M  END
>  <Name_Molregno>
358048

>  <Muscarinic acetylcholine receptor M1>
6.52

>  <Muscarinic acetylcholine receptor M2>
6.66

>  <Muscarinic acetylcholine receptor M3>
9.32

>  <Muscarinic acetylcholine receptor M4>
7.54

>  <Muscarinic acetylcholine receptor M5>
5.77

$$$$
358049
  Marvin  02231216192D 0   1.00000     0.00000     0

 48 53  0  0  1  0  0  0  0  0999 V2000
    6.7257    4.4856    0.0000 F   0  0  0  0  0  0  0  0  0
    6.7257    3.6606    0.0000 C   0  0  0  0  0  0  0  0  0
    7.4402    3.2481    0.0000 C   0  0  0  0  0  0  0  0  0
    7.4402    2.4231    0.0000 C   0  0  0  0  0  0  0  0  0
    6.7257    2.0106    0.0000 C   0  0  0  0  0  0  0  0  0
    6.0113    2.4231    0.0000 C   0  0  0  0  0  0  0  0  0
    6.0113    3.2481    0.0000 C   0  0  0  0  0  0  0  0  0
    6.7257    1.1856    0.0000 C   0  0  0  0  0  0  0  0  0
    6.7257    0.3606    0.0000 C   0  0  0  0  0  0  0  0  0
    6.0113   -0.0519    0.0000 C   0  0  0  0  0  0  0  0  0
    5.2043    0.1196    0.0000 O   0  0  0  0  0  0  0  0  0
    6.0113   -0.8769    0.0000 N   0  0  0  0  0  0  0  0  0
    6.6787   -1.3618    0.0000 C   0  0  0  0  0  0  0  0  0
    6.4238   -2.1464    0.0000 C   0  0  0  0  0  0  0  0  0
    6.9087   -2.8139    0.0000 O   0  0  0  0  0  0  0  0  0
    5.5988   -2.1464    0.0000 C   0  0  0  0  0  0  0  0  0
    5.3438   -1.3618    0.0000 C   0  0  0  0  0  0  0  0  0
    4.5592   -1.1069    0.0000 C   0  0  0  0  0  0  0  0  0
    4.3877   -0.2999    0.0000 O   0  0  0  0  0  0  0  0  0
    3.9461   -1.6589    0.0000 N   0  0  0  0  0  0  0  0  0
    4.0323   -2.4794    0.0000 C   0  0  0  0  0  0  0  0  0
    3.2787   -2.8150    0.0000 C   0  0  0  0  0  0  0  0  0
    2.7266   -2.2019    0.0000 C   0  0  0  0  0  0  0  0  0
    3.1391   -1.4874    0.0000 C   0  0  0  0  0  0  0  0  0
    2.8036   -0.7337    0.0000 C   0  0  0  0  0  0  0  0  0
    1.9831   -0.6475    0.0000 O   0  0  0  0  0  0  0  0  0
    3.2885   -0.0663    0.0000 N   0  0  0  0  0  0  0  0  0
    2.9529    0.6874    0.0000 C   0  0  0  0  0  0  0  0  0
    2.1325    0.7736    0.0000 C   0  0  0  0  0  0  0  0  0
    1.6475    0.1062    0.0000 C   0  0  0  0  0  0  0  0  0
    0.8271    0.1924    0.0000 C   0  0  0  0  0  0  0  0  0
    0.4915    0.9461    0.0000 C   0  0  0  0  0  0  0  0  0
    0.9764    1.6135    0.0000 N   0  0  0  0  0  0  0  0  0
    1.7969    1.5273    0.0000 C   0  0  0  0  0  0  0  0  0
    5.9007    1.1856    0.0000 C   0  0  0  0  0  0  0  0  0
    5.4882    0.4711    0.0000 C   0  0  0  0  0  0  0  0  0
    4.6632    0.4711    0.0000 C   0  0  0  0  0  0  0  0  0
    4.2507    1.1856    0.0000 C   0  0  0  0  0  0  0  0  0
    3.4257    1.1856    0.0000 F   0  0  0  0  0  0  0  0  0
    4.6632    1.9001    0.0000 C   0  0  0  0  0  0  0  0  0
    5.4882    1.9001    0.0000 C   0  0  0  0  0  0  0  0  0
    7.5507    1.1856    0.0000 C   0  0  0  0  0  0  0  0  0
    7.9632    1.9001    0.0000 C   0  0  0  0  0  0  0  0  0
    8.7882    1.9001    0.0000 C   0  0  0  0  0  0  0  0  0
    9.2007    1.1856    0.0000 C   0  0  0  0  0  0  0  0  0
   10.0257    1.1856    0.0000 F   0  0  0  0  0  0  0  0  0
    8.7882    0.4711    0.0000 C   0  0  0  0  0  0  0  0  0
    7.9632    0.4711    0.0000 C   0  0  0  0  0  0  0  0  0
  1  2  1  0  0  0  0
  2  3  4  0  0  0  0
  2  7  4  0  0  0  0
  3  4  4  0  0  0  0
  4  5  4  0  0  0  0
  5  6  4  0  0  0  0
  5  8  1  0  0  0  0
  6  7  4  0  0  0  0
  8  9  1  0  0  0  0
  8 35  1  0  0  0  0
  8 42  1  0  0  0  0
  9 10  1  0  0  0  0
 10 11  2  0  0  0  0
 10 12  1  0  0  0  0
 12 13  1  0  0  0  0
 12 17  1  0  0  0  0
 13 14  1  0  0  0  0
 14 15  1  0  0  0  0
 14 16  1  0  0  0  0
 16 17  1  0  0  0  0
 17 18  1  0  0  0  0
 18 19  2  0  0  0  0
 18 20  1  0  0  0  0
 20 21  1  0  0  0  0
 20 24  1  0  0  0  0
 21 22  1  0  0  0  0
 22 23  1  0  0  0  0
 23 24  1  0  0  0  0
 24 25  1  0  0  0  0
 25 26  2  0  0  0  0
 25 27  1  0  0  0  0
 27 28  1  0  0  0  0
 28 29  1  0  0  0  0
 29 30  1  0  0  0  0
 29 34  1  0  0  0  0
 30 31  1  0  0  0  0
 31 32  1  0  0  0  0
 32 33  1  0  0  0  0
 33 34  1  0  0  0  0
 35 36  4  0  0  0  0
 35 41  4  0  0  0  0
 36 37  4  0  0  0  0
 37 38  4  0  0  0  0
 38 39  1  0  0  0  0
 38 40  4  0  0  0  0
 40 41  4  0  0  0  0
 42 43  4  0  0  0  0
 42 48  4  0  0  0  0
 43 44  4  0  0  0  0
 44 45  4  0  0  0  0
 45 46  1  0  0  0  0
 45 47  4  0  0  0  0
 47 48  4  0  0  0  0
M  END
>  <Name_Molregno>
358049

>  <Muscarinic acetylcholine receptor M1>
6.52

>  <Muscarinic acetylcholine receptor M2>
6.35

>  <Muscarinic acetylcholine receptor M3>
9.41

>  <Muscarinic acetylcholine receptor M4>
7.41

>  <Muscarinic acetylcholine receptor M5>
5.77

$$$$
358126
  Marvin  02231216192D 0   1.00000     0.00000     0

 45 50  0  0  1  0  0  0  0  0999 V2000
   -0.2490    7.1754    0.0000 O   0  0  0  0  0  0  0  0  0
   -0.2490    6.3504    0.0000 C   0  0  0  0  0  0  0  0  0
   -0.9164    5.8655    0.0000 C   0  0  0  0  0  0  0  0  0
   -0.6615    5.0808    0.0000 C   0  0  0  0  0  0  0  0  0
    0.1635    5.0808    0.0000 N   0  0  0  0  0  0  0  0  0
    0.4184    5.8655    0.0000 C   0  0  0  0  0  0  0  0  0
    0.6484    4.4134    0.0000 C   0  0  0  0  0  0  0  0  0
    0.0964    3.8003    0.0000 O   0  0  0  0  0  0  0  0  0
    1.4689    4.4996    0.0000 C   0  0  0  0  0  0  0  0  0
    1.9538    3.8322    0.0000 C   0  0  0  0  0  0  0  0  0
    2.4387    3.1648    0.0000 C   0  0  0  0  0  0  0  0  0
    3.2592    3.2510    0.0000 C   0  0  0  0  0  0  0  0  0
    3.7441    2.5836    0.0000 C   0  0  0  0  0  0  0  0  0
    3.4086    1.8299    0.0000 C   0  0  0  0  0  0  0  0  0
    2.5881    1.7436    0.0000 C   0  0  0  0  0  0  0  0  0
    2.1032    2.4111    0.0000 C   0  0  0  0  0  0  0  0  0
    1.2864    3.3473    0.0000 C   0  0  0  0  0  0  0  0  0
    1.3726    2.5268    0.0000 C   0  0  0  0  0  0  0  0  0
    0.7052    2.0419    0.0000 C   0  0  0  0  0  0  0  0  0
   -0.0485    2.3774    0.0000 C   0  0  0  0  0  0  0  0  0
   -0.1347    3.1979    0.0000 C   0  0  0  0  0  0  0  0  0
    0.5327    3.6828    0.0000 C   0  0  0  0  0  0  0  0  0
    2.6213    4.3171    0.0000 C   0  0  0  0  0  0  0  0  0
    2.5350    5.1376    0.0000 C   0  0  0  0  0  0  0  0  0
    3.2025    5.6225    0.0000 C   0  0  0  0  0  0  0  0  0
    3.9561    5.2870    0.0000 C   0  0  0  0  0  0  0  0  0
    4.0424    4.4665    0.0000 C   0  0  0  0  0  0  0  0  0
    3.3749    3.9816    0.0000 C   0  0  0  0  0  0  0  0  0
   -1.1464    4.4134    0.0000 C   0  0  0  0  0  0  0  0  0
   -0.8109    3.6597    0.0000 O   0  0  0  0  0  0  0  0  0
   -1.9669    4.4996    0.0000 N   0  0  0  0  0  0  0  0  0
   -2.3794    5.2141    0.0000 C   0  0  0  0  0  0  0  0  0
   -3.1864    5.0426    0.0000 C   0  0  0  0  0  0  0  0  0
   -3.2726    4.2221    0.0000 C   0  0  0  0  0  0  0  0  0
   -2.5189    3.8865    0.0000 C   0  0  0  0  0  0  0  0  0
   -2.3474    3.0796    0.0000 C   0  0  0  0  0  0  0  0  0
   -1.5628    2.8246    0.0000 O   0  0  0  0  0  0  0  0  0
   -2.9605    2.5275    0.0000 N   0  0  0  0  0  0  0  0  0
   -2.7890    1.7206    0.0000 C   0  0  0  0  0  0  0  0  0
   -3.4021    1.1685    0.0000 C   0  0  0  0  0  0  0  0  0
   -3.2306    0.3616    0.0000 C   0  0  0  0  0  0  0  0  0
   -3.8436   -0.1905    0.0000 C   0  0  0  0  0  0  0  0  0
   -4.6283    0.0645    0.0000 N   0  0  0  0  0  0  0  0  0
   -4.7998    0.8714    0.0000 C   0  0  0  0  0  0  0  0  0
   -4.1867    1.4235    0.0000 C   0  0  0  0  0  0  0  0  0
  1  2  1  0  0  0  0
  2  3  1  0  0  0  0
  2  6  1  0  0  0  0
  3  4  1  0  0  0  0
  4  5  1  0  0  0  0
  4 29  1  0  0  0  0
  5  6  1  0  0  0  0
  5  7  1  0  0  0  0
  7  8  2  0  0  0  0
  7  9  1  0  0  0  0
  9 10  1  0  0  0  0
 10 11  1  0  0  0  0
 10 17  1  0  0  0  0
 10 23  1  0  0  0  0
 11 12  4  0  0  0  0
 11 16  4  0  0  0  0
 12 13  4  0  0  0  0
 13 14  4  0  0  0  0
 14 15  4  0  0  0  0
 15 16  4  0  0  0  0
 17 18  4  0  0  0  0
 17 22  4  0  0  0  0
 18 19  4  0  0  0  0
 19 20  4  0  0  0  0
 20 21  4  0  0  0  0
 21 22  4  0  0  0  0
 23 24  4  0  0  0  0
 23 28  4  0  0  0  0
 24 25  4  0  0  0  0
 25 26  4  0  0  0  0
 26 27  4  0  0  0  0
 27 28  4  0  0  0  0
 29 30  2  0  0  0  0
 29 31  1  0  0  0  0
 31 32  1  0  0  0  0
 31 35  1  0  0  0  0
 32 33  1  0  0  0  0
 33 34  1  0  0  0  0
 34 35  1  0  0  0  0
 35 36  1  0  0  0  0
 36 37  2  0  0  0  0
 36 38  1  0  0  0  0
 38 39  1  0  0  0  0
 39 40  1  0  0  0  0
 40 41  1  0  0  0  0
 40 45  1  0  0  0  0
 41 42  1  0  0  0  0
 42 43  1  0  0  0  0
 43 44  1  0  0  0  0
 44 45  1  0  0  0  0
M  END
>  <Name_Molregno>
358126

>  <Muscarinic acetylcholine receptor M1>
5.74

>  <Muscarinic acetylcholine receptor M2>
5.52

>  <Muscarinic acetylcholine receptor M3>
8.38

>  <Muscarinic acetylcholine receptor M4>
6.32

>  <Muscarinic acetylcholine receptor M5>
5.29

$$$$
358156
  Marvin  02231216192D 0   1.00000     0.00000     0

 46 51  0  0  1  0  0  0  0  0999 V2000
    1.0283    7.4582    0.0000 O   0  0  0  0  0  0  0  0  0
    1.0283    6.6332    0.0000 C   0  0  0  0  0  0  0  0  0
    1.6957    6.1483    0.0000 C   0  0  0  0  0  0  0  0  0
    1.4408    5.3636    0.0000 C   0  0  0  0  0  0  0  0  0
    0.6158    5.3636    0.0000 N   0  0  0  0  0  0  0  0  0
    0.3609    6.1483    0.0000 C   0  0  0  0  0  0  0  0  0
    0.1309    4.6962    0.0000 C   0  0  0  0  0  0  0  0  0
    0.6829    4.0831    0.0000 O   0  0  0  0  0  0  0  0  0
   -0.6896    4.7824    0.0000 C   0  0  0  0  0  0  0  0  0
   -1.1745    4.1150    0.0000 C   0  0  0  0  0  0  0  0  0
   -1.6594    3.4476    0.0000 C   0  0  0  0  0  0  0  0  0
   -1.3239    2.6939    0.0000 C   0  0  0  0  0  0  0  0  0
   -1.8088    2.0264    0.0000 C   0  0  0  0  0  0  0  0  0
   -2.6293    2.1127    0.0000 C   0  0  0  0  0  0  0  0  0
   -2.9649    2.8664    0.0000 C   0  0  0  0  0  0  0  0  0
   -2.4799    3.5338    0.0000 C   0  0  0  0  0  0  0  0  0
   -0.5071    3.6301    0.0000 C   0  0  0  0  0  0  0  0  0
    0.2466    3.9656    0.0000 C   0  0  0  0  0  0  0  0  0
    0.9140    3.4807    0.0000 C   0  0  0  0  0  0  0  0  0
    0.8278    2.6602    0.0000 C   0  0  0  0  0  0  0  0  0
    0.0741    2.3247    0.0000 C   0  0  0  0  0  0  0  0  0
   -0.5933    2.8096    0.0000 C   0  0  0  0  0  0  0  0  0
   -1.8420    4.5999    0.0000 C   0  0  0  0  0  0  0  0  0
   -2.5956    4.2644    0.0000 C   0  0  0  0  0  0  0  0  0
   -3.2631    4.7493    0.0000 C   0  0  0  0  0  0  0  0  0
   -3.1768    5.5698    0.0000 C   0  0  0  0  0  0  0  0  0
   -2.4232    5.9053    0.0000 C   0  0  0  0  0  0  0  0  0
   -1.7557    5.4204    0.0000 C   0  0  0  0  0  0  0  0  0
    1.9257    4.6962    0.0000 C   0  0  0  0  0  0  0  0  0
    1.5902    3.9425    0.0000 O   0  0  0  0  0  0  0  0  0
    2.7462    4.7824    0.0000 N   0  0  0  0  0  0  0  0  0
    3.1587    5.4969    0.0000 C   0  0  0  0  0  0  0  0  0
    3.9657    5.3254    0.0000 C   0  0  0  0  0  0  0  0  0
    4.0519    4.5049    0.0000 C   0  0  0  0  0  0  0  0  0
    3.2982    4.1693    0.0000 C   0  0  0  0  0  0  0  0  0
    3.1267    3.3624    0.0000 C   0  0  0  0  0  0  0  0  0
    2.3421    3.1074    0.0000 O   0  0  0  0  0  0  0  0  0
    3.7398    2.8103    0.0000 N   0  0  0  0  0  0  0  0  0
    3.5683    2.0034    0.0000 C   0  0  0  0  0  0  0  0  0
    4.1814    1.4513    0.0000 C   0  0  0  0  0  0  0  0  0
    4.0098    0.6444    0.0000 C   0  0  0  0  0  0  0  0  0
    4.6229    0.0923    0.0000 C   0  0  0  0  0  0  0  0  0
    4.4514   -0.7146    0.0000 C   0  0  0  0  0  0  0  0  0
    3.6668   -0.9696    0.0000 N   0  0  0  0  0  0  0  0  0
    3.0537   -0.4176    0.0000 C   0  0  0  0  0  0  0  0  0
    3.2252    0.3894    0.0000 C   0  0  0  0  0  0  0  0  0
  1  2  1  0  0  0  0
  2  3  1  0  0  0  0
  2  6  1  0  0  0  0
  3  4  1  0  0  0  0
  4  5  1  0  0  0  0
  4 29  1  0  0  0  0
  5  6  1  0  0  0  0
  5  7  1  0  0  0  0
  7  8  2  0  0  0  0
  7  9  1  0  0  0  0
  9 10  1  0  0  0  0
 10 11  1  0  0  0  0
 10 17  1  0  0  0  0
 10 23  1  0  0  0  0
 11 12  4  0  0  0  0
 11 16  4  0  0  0  0
 12 13  4  0  0  0  0
 13 14  4  0  0  0  0
 14 15  4  0  0  0  0
 15 16  4  0  0  0  0
 17 18  4  0  0  0  0
 17 22  4  0  0  0  0
 18 19  4  0  0  0  0
 19 20  4  0  0  0  0
 20 21  4  0  0  0  0
 21 22  4  0  0  0  0
 23 24  4  0  0  0  0
 23 28  4  0  0  0  0
 24 25  4  0  0  0  0
 25 26  4  0  0  0  0
 26 27  4  0  0  0  0
 27 28  4  0  0  0  0
 29 30  2  0  0  0  0
 29 31  1  0  0  0  0
 31 32  1  0  0  0  0
 31 35  1  0  0  0  0
 32 33  1  0  0  0  0
 33 34  1  0  0  0  0
 34 35  1  0  0  0  0
 35 36  1  0  0  0  0
 36 37  2  0  0  0  0
 36 38  1  0  0  0  0
 38 39  1  0  0  0  0
 39 40  1  0  0  0  0
 40 41  1  0  0  0  0
 41 42  1  0  0  0  0
 41 46  1  0  0  0  0
 42 43  1  0  0  0  0
 43 44  1  0  0  0  0
 44 45  1  0  0  0  0
 45 46  1  0  0  0  0
M  END
>  <Name_Molregno>
358156

>  <Muscarinic acetylcholine receptor M1>
5.7

>  <Muscarinic acetylcholine receptor M2>
5.92

>  <Muscarinic acetylcholine receptor M3>
8.55

>  <Muscarinic acetylcholine receptor M4>
6.82

>  <Muscarinic acetylcholine receptor M5>
5.29

$$$$
358157
  Marvin  02231216192D 0   1.00000     0.00000     0

 45 50  0  0  1  0  0  0  0  0999 V2000
   -0.2490    7.1754    0.0000 O   0  0  0  0  0  0  0  0  0
   -0.2490    6.3504    0.0000 C   0  0  0  0  0  0  0  0  0
   -0.9164    5.8655    0.0000 C   0  0  0  0  0  0  0  0  0
   -0.6615    5.0808    0.0000 C   0  0  0  0  0  0  0  0  0
    0.1635    5.0808    0.0000 N   0  0  0  0  0  0  0  0  0
    0.4184    5.8655    0.0000 C   0  0  0  0  0  0  0  0  0
    0.6484    4.4134    0.0000 C   0  0  0  0  0  0  0  0  0
    0.0964    3.8003    0.0000 O   0  0  0  0  0  0  0  0  0
    1.4689    4.4996    0.0000 C   0  0  0  0  0  0  0  0  0
    1.9538    3.8322    0.0000 C   0  0  0  0  0  0  0  0  0
    2.4387    3.1648    0.0000 C   0  0  0  0  0  0  0  0  0
    3.2592    3.2510    0.0000 C   0  0  0  0  0  0  0  0  0
    3.7441    2.5836    0.0000 C   0  0  0  0  0  0  0  0  0
    3.4086    1.8299    0.0000 C   0  0  0  0  0  0  0  0  0
    2.5881    1.7436    0.0000 C   0  0  0  0  0  0  0  0  0
    2.1032    2.4111    0.0000 C   0  0  0  0  0  0  0  0  0
    1.2864    3.3473    0.0000 C   0  0  0  0  0  0  0  0  0
    1.3726    2.5268    0.0000 C   0  0  0  0  0  0  0  0  0
    0.7052    2.0419    0.0000 C   0  0  0  0  0  0  0  0  0
   -0.0485    2.3774    0.0000 C   0  0  0  0  0  0  0  0  0
   -0.1347    3.1979    0.0000 C   0  0  0  0  0  0  0  0  0
    0.5327    3.6828    0.0000 C   0  0  0  0  0  0  0  0  0
    2.6213    4.3171    0.0000 C   0  0  0  0  0  0  0  0  0
    2.5350    5.1376    0.0000 C   0  0  0  0  0  0  0  0  0
    3.2025    5.6225    0.0000 C   0  0  0  0  0  0  0  0  0
    3.9561    5.2870    0.0000 C   0  0  0  0  0  0  0  0  0
    4.0424    4.4665    0.0000 C   0  0  0  0  0  0  0  0  0
    3.3749    3.9816    0.0000 C   0  0  0  0  0  0  0  0  0
   -1.1464    4.4134    0.0000 C   0  0  0  0  0  0  0  0  0
   -0.8109    3.6597    0.0000 O   0  0  0  0  0  0  0  0  0
   -1.9669    4.4996    0.0000 N   0  0  0  0  0  0  0  0  0
   -2.3794    5.2141    0.0000 C   0  0  0  0  0  0  0  0  0
   -3.1864    5.0426    0.0000 C   0  0  0  0  0  0  0  0  0
   -3.2726    4.2221    0.0000 C   0  0  0  0  0  0  0  0  0
   -2.5189    3.8865    0.0000 C   0  0  0  0  0  0  0  0  0
   -2.3474    3.0796    0.0000 C   0  0  0  0  0  0  0  0  0
   -1.5628    2.8246    0.0000 O   0  0  0  0  0  0  0  0  0
   -2.9605    2.5275    0.0000 N   0  0  0  0  0  0  0  0  0
   -2.7890    1.7206    0.0000 C   0  0  0  0  0  0  0  0  0
   -3.4021    1.1685    0.0000 C   0  0  0  0  0  0  0  0  0
   -3.2306    0.3616    0.0000 C   0  0  0  0  0  0  0  0  0
   -3.8436   -0.1905    0.0000 C   0  0  0  0  0  0  0  0  0
   -4.6283    0.0645    0.0000 C   0  0  0  0  0  0  0  0  0
   -4.7998    0.8714    0.0000 N   0  0  0  0  0  0  0  0  0
   -4.1867    1.4235    0.0000 C   0  0  0  0  0  0  0  0  0
  1  2  1  0  0  0  0
  2  3  1  0  0  0  0
  2  6  1  0  0  0  0
  3  4  1  0  0  0  0
  4  5  1  0  0  0  0
  4 29  1  0  0  0  0
  5  6  1  0  0  0  0
  5  7  1  0  0  0  0
  7  8  2  0  0  0  0
  7  9  1  0  0  0  0
  9 10  1  0  0  0  0
 10 11  1  0  0  0  0
 10 17  1  0  0  0  0
 10 23  1  0  0  0  0
 11 12  4  0  0  0  0
 11 16  4  0  0  0  0
 12 13  4  0  0  0  0
 13 14  4  0  0  0  0
 14 15  4  0  0  0  0
 15 16  4  0  0  0  0
 17 18  4  0  0  0  0
 17 22  4  0  0  0  0
 18 19  4  0  0  0  0
 19 20  4  0  0  0  0
 20 21  4  0  0  0  0
 21 22  4  0  0  0  0
 23 24  4  0  0  0  0
 23 28  4  0  0  0  0
 24 25  4  0  0  0  0
 25 26  4  0  0  0  0
 26 27  4  0  0  0  0
 27 28  4  0  0  0  0
 29 30  2  0  0  0  0
 29 31  1  0  0  0  0
 31 32  1  0  0  0  0
 31 35  1  0  0  0  0
 32 33  1  0  0  0  0
 33 34  1  0  0  0  0
 34 35  1  0  0  0  0
 35 36  1  0  0  0  0
 36 37  2  0  0  0  0
 36 38  1  0  0  0  0
 38 39  1  0  0  0  0
 39 40  1  0  0  0  0
 40 41  1  0  0  0  0
 40 45  1  0  0  0  0
 41 42  1  0  0  0  0
 42 43  1  0  0  0  0
 43 44  1  0  0  0  0
 44 45  1  0  0  0  0
M  END
>  <Name_Molregno>
358157

>  <Muscarinic acetylcholine receptor M1>
5.59

>  <Muscarinic acetylcholine receptor M2>
5.43

>  <Muscarinic acetylcholine receptor M3>
8.43

>  <Muscarinic acetylcholine receptor M4>
6.54

>  <Muscarinic acetylcholine receptor M5>
5.29

$$$$
358158
  Marvin  02231216192D 0   1.00000     0.00000     0

 48 53  0  0  1  0  0  0  0  0999 V2000
    6.7257    4.4856    0.0000 Cl  0  0  0  0  0  0  0  0  0
    6.7257    3.6606    0.0000 C   0  0  0  0  0  0  0  0  0
    7.4402    3.2481    0.0000 C   0  0  0  0  0  0  0  0  0
    7.4402    2.4231    0.0000 C   0  0  0  0  0  0  0  0  0
    6.7257    2.0106    0.0000 C   0  0  0  0  0  0  0  0  0
    6.0113    2.4231    0.0000 C   0  0  0  0  0  0  0  0  0
    6.0113    3.2481    0.0000 C   0  0  0  0  0  0  0  0  0
    6.7257    1.1856    0.0000 C   0  0  0  0  0  0  0  0  0
    6.7257    0.3606    0.0000 C   0  0  0  0  0  0  0  0  0
    6.0113   -0.0519    0.0000 C   0  0  0  0  0  0  0  0  0
    5.2043    0.1196    0.0000 O   0  0  0  0  0  0  0  0  0
    6.0113   -0.8769    0.0000 N   0  0  0  0  0  0  0  0  0
    6.6787   -1.3618    0.0000 C   0  0  0  0  0  0  0  0  0
    6.4238   -2.1464    0.0000 C   0  0  0  0  0  0  0  0  0
    6.9087   -2.8139    0.0000 O   0  0  0  0  0  0  0  0  0
    5.5988   -2.1464    0.0000 C   0  0  0  0  0  0  0  0  0
    5.3438   -1.3618    0.0000 C   0  0  0  0  0  0  0  0  0
    4.5592   -1.1069    0.0000 C   0  0  0  0  0  0  0  0  0
    4.3877   -0.2999    0.0000 O   0  0  0  0  0  0  0  0  0
    3.9461   -1.6589    0.0000 N   0  0  0  0  0  0  0  0  0
    4.0323   -2.4794    0.0000 C   0  0  0  0  0  0  0  0  0
    3.2787   -2.8150    0.0000 C   0  0  0  0  0  0  0  0  0
    2.7266   -2.2019    0.0000 C   0  0  0  0  0  0  0  0  0
    3.1391   -1.4874    0.0000 C   0  0  0  0  0  0  0  0  0
    2.8036   -0.7337    0.0000 C   0  0  0  0  0  0  0  0  0
    1.9831   -0.6475    0.0000 O   0  0  0  0  0  0  0  0  0
    3.2885   -0.0663    0.0000 N   0  0  0  0  0  0  0  0  0
    2.9529    0.6874    0.0000 C   0  0  0  0  0  0  0  0  0
    2.1325    0.7736    0.0000 C   0  0  0  0  0  0  0  0  0
    1.6475    0.1062    0.0000 C   0  0  0  0  0  0  0  0  0
    0.8271    0.1924    0.0000 C   0  0  0  0  0  0  0  0  0
    0.4915    0.9461    0.0000 N   0  0  0  0  0  0  0  0  0
    0.9764    1.6135    0.0000 C   0  0  0  0  0  0  0  0  0
    1.7969    1.5273    0.0000 C   0  0  0  0  0  0  0  0  0
    5.9007    1.1856    0.0000 C   0  0  0  0  0  0  0  0  0
    5.4882    0.4711    0.0000 C   0  0  0  0  0  0  0  0  0
    4.6632    0.4711    0.0000 C   0  0  0  0  0  0  0  0  0
    4.2507    1.1856    0.0000 C   0  0  0  0  0  0  0  0  0
    3.4257    1.1856    0.0000 Cl  0  0  0  0  0  0  0  0  0
    4.6632    1.9001    0.0000 C   0  0  0  0  0  0  0  0  0
    5.4882    1.9001    0.0000 C   0  0  0  0  0  0  0  0  0
    7.5507    1.1856    0.0000 C   0  0  0  0  0  0  0  0  0
    7.9632    1.9001    0.0000 C   0  0  0  0  0  0  0  0  0
    8.7882    1.9001    0.0000 C   0  0  0  0  0  0  0  0  0
    9.2007    1.1856    0.0000 C   0  0  0  0  0  0  0  0  0
   10.0257    1.1856    0.0000 Cl  0  0  0  0  0  0  0  0  0
    8.7882    0.4711    0.0000 C   0  0  0  0  0  0  0  0  0
    7.9632    0.4711    0.0000 C   0  0  0  0  0  0  0  0  0
  1  2  1  0  0  0  0
  2  3  4  0  0  0  0
  2  7  4  0  0  0  0
  3  4  4  0  0  0  0
  4  5  4  0  0  0  0
  5  6  4  0  0  0  0
  5  8  1  0  0  0  0
  6  7  4  0  0  0  0
  8  9  1  0  0  0  0
  8 35  1  0  0  0  0
  8 42  1  0  0  0  0
  9 10  1  0  0  0  0
 10 11  2  0  0  0  0
 10 12  1  0  0  0  0
 12 13  1  0  0  0  0
 12 17  1  0  0  0  0
 13 14  1  0  0  0  0
 14 15  1  0  0  0  0
 14 16  1  0  0  0  0
 16 17  1  0  0  0  0
 17 18  1  0  0  0  0
 18 19  2  0  0  0  0
 18 20  1  0  0  0  0
 20 21  1  0  0  0  0
 20 24  1  0  0  0  0
 21 22  1  0  0  0  0
 22 23  1  0  0  0  0
 23 24  1  0  0  0  0
 24 25  1  0  0  0  0
 25 26  2  0  0  0  0
 25 27  1  0  0  0  0
 27 28  1  0  0  0  0
 28 29  1  0  0  0  0
 29 30  1  0  0  0  0
 29 34  1  0  0  0  0
 30 31  1  0  0  0  0
 31 32  1  0  0  0  0
 32 33  1  0  0  0  0
 33 34  1  0  0  0  0
 35 36  4  0  0  0  0
 35 41  4  0  0  0  0
 36 37  4  0  0  0  0
 37 38  4  0  0  0  0
 38 39  1  0  0  0  0
 38 40  4  0  0  0  0
 40 41  4  0  0  0  0
 42 43  4  0  0  0  0
 42 48  4  0  0  0  0
 43 44  4  0  0  0  0
 44 45  4  0  0  0  0
 45 46  1  0  0  0  0
 45 47  4  0  0  0  0
 47 48  4  0  0  0  0
M  END
>  <Name_Molregno>
358158

>  <Muscarinic acetylcholine receptor M1>
7.03

>  <Muscarinic acetylcholine receptor M2>
6.51

>  <Muscarinic acetylcholine receptor M3>
9.41

>  <Muscarinic acetylcholine receptor M4>
7.28

>  <Muscarinic acetylcholine receptor M5>
5.6

$$$$
358159
  Marvin  02231216192D 0   1.00000     0.00000     0

 49 54  0  0  1  0  0  0  0  0999 V2000
    5.3535    6.2368    0.0000 Cl  0  0  0  0  0  0  0  0  0
    5.3535    5.4118    0.0000 C   0  0  0  0  0  0  0  0  0
    6.0680    4.9993    0.0000 C   0  0  0  0  0  0  0  0  0
    6.0680    4.1743    0.0000 C   0  0  0  0  0  0  0  0  0
    5.3535    3.7618    0.0000 C   0  0  0  0  0  0  0  0  0
    4.6391    4.1743    0.0000 C   0  0  0  0  0  0  0  0  0
    4.6391    4.9993    0.0000 C   0  0  0  0  0  0  0  0  0
    5.3535    2.9368    0.0000 C   0  0  0  0  0  0  0  0  0
    5.3535    2.1118    0.0000 C   0  0  0  0  0  0  0  0  0
    4.6391    1.6993    0.0000 C   0  0  0  0  0  0  0  0  0
    3.8321    1.8708    0.0000 O   0  0  0  0  0  0  0  0  0
    4.6391    0.8743    0.0000 N   0  0  0  0  0  0  0  0  0
    5.3065    0.3894    0.0000 C   0  0  0  0  0  0  0  0  0
    5.0516   -0.3952    0.0000 C   0  0  0  0  0  0  0  0  0
    5.5365   -1.0627    0.0000 O   0  0  0  0  0  0  0  0  0
    4.2266   -0.3952    0.0000 C   0  0  0  0  0  0  0  0  0
    3.9716    0.3894    0.0000 C   0  0  0  0  0  0  0  0  0
    3.1870    0.6443    0.0000 C   0  0  0  0  0  0  0  0  0
    3.0155    1.4513    0.0000 O   0  0  0  0  0  0  0  0  0
    2.5739    0.0923    0.0000 N   0  0  0  0  0  0  0  0  0
    2.6601   -0.7282    0.0000 C   0  0  0  0  0  0  0  0  0
    1.9065   -1.0638    0.0000 C   0  0  0  0  0  0  0  0  0
    1.3544   -0.4507    0.0000 C   0  0  0  0  0  0  0  0  0
    1.7669    0.2638    0.0000 C   0  0  0  0  0  0  0  0  0
    1.4314    1.0175    0.0000 C   0  0  0  0  0  0  0  0  0
    1.9163    1.6849    0.0000 O   0  0  0  0  0  0  0  0  0
    0.6109    1.1037    0.0000 N   0  0  0  0  0  0  0  0  0
    0.2753    1.8574    0.0000 C   0  0  0  0  0  0  0  0  0
   -0.5451    1.9436    0.0000 C   0  0  0  0  0  0  0  0  0
   -0.8807    2.6973    0.0000 C   0  0  0  0  0  0  0  0  0
   -1.7012    2.7835    0.0000 C   0  0  0  0  0  0  0  0  0
   -2.0367    3.5372    0.0000 C   0  0  0  0  0  0  0  0  0
   -1.5518    4.2047    0.0000 N   0  0  0  0  0  0  0  0  0
   -0.7313    4.1184    0.0000 C   0  0  0  0  0  0  0  0  0
   -0.3958    3.3648    0.0000 C   0  0  0  0  0  0  0  0  0
    4.5285    2.9368    0.0000 C   0  0  0  0  0  0  0  0  0
    4.1160    2.2223    0.0000 C   0  0  0  0  0  0  0  0  0
    3.2910    2.2223    0.0000 C   0  0  0  0  0  0  0  0  0
    2.8785    2.9368    0.0000 C   0  0  0  0  0  0  0  0  0
    2.0535    2.9368    0.0000 Cl  0  0  0  0  0  0  0  0  0
    3.2910    3.6513    0.0000 C   0  0  0  0  0  0  0  0  0
    4.1160    3.6513    0.0000 C   0  0  0  0  0  0  0  0  0
    6.1785    2.9368    0.0000 C   0  0  0  0  0  0  0  0  0
    6.5910    3.6513    0.0000 C   0  0  0  0  0  0  0  0  0
    7.4160    3.6513    0.0000 C   0  0  0  0  0  0  0  0  0
    7.8285    2.9368    0.0000 C   0  0  0  0  0  0  0  0  0
    8.6535    2.9368    0.0000 Cl  0  0  0  0  0  0  0  0  0
    7.4160    2.2223    0.0000 C   0  0  0  0  0  0  0  0  0
    6.5910    2.2223    0.0000 C   0  0  0  0  0  0  0  0  0
  1  2  1  0  0  0  0
  2  3  4  0  0  0  0
  2  7  4  0  0  0  0
  3  4  4  0  0  0  0
  4  5  4  0  0  0  0
  5  6  4  0  0  0  0
  5  8  1  0  0  0  0
  6  7  4  0  0  0  0
  8  9  1  0  0  0  0
  8 36  1  0  0  0  0
  8 43  1  0  0  0  0
  9 10  1  0  0  0  0
 10 11  2  0  0  0  0
 10 12  1  0  0  0  0
 12 13  1  0  0  0  0
 12 17  1  0  0  0  0
 13 14  1  0  0  0  0
 14 15  1  0  0  0  0
 14 16  1  0  0  0  0
 16 17  1  0  0  0  0
 17 18  1  0  0  0  0
 18 19  2  0  0  0  0
 18 20  1  0  0  0  0
 20 21  1  0  0  0  0
 20 24  1  0  0  0  0
 21 22  1  0  0  0  0
 22 23  1  0  0  0  0
 23 24  1  0  0  0  0
 24 25  1  0  0  0  0
 25 26  2  0  0  0  0
 25 27  1  0  0  0  0
 27 28  1  0  0  0  0
 28 29  1  0  0  0  0
 29 30  1  0  0  0  0
 30 31  1  0  0  0  0
 30 35  1  0  0  0  0
 31 32  1  0  0  0  0
 32 33  1  0  0  0  0
 33 34  1  0  0  0  0
 34 35  1  0  0  0  0
 36 37  4  0  0  0  0
 36 42  4  0  0  0  0
 37 38  4  0  0  0  0
 38 39  4  0  0  0  0
 39 40  1  0  0  0  0
 39 41  4  0  0  0  0
 41 42  4  0  0  0  0
 43 44  4  0  0  0  0
 43 49  4  0  0  0  0
 44 45  4  0  0  0  0
 45 46  4  0  0  0  0
 46 47  1  0  0  0  0
 46 48  4  0  0  0  0
 48 49  4  0  0  0  0
M  END
>  <Name_Molregno>
358159

>  <Muscarinic acetylcholine receptor M1>
6.59

>  <Muscarinic acetylcholine receptor M2>
7.03

>  <Muscarinic acetylcholine receptor M3>
8.92

>  <Muscarinic acetylcholine receptor M4>
7.62

>  <Muscarinic acetylcholine receptor M5>
6.02

$$$$
364843
  Marvin  02231216192D 0   1.00000     0.00000     0

 31 33  0  0  0  0  0  0  0  0999 V2000
   -0.8027   -0.4313    0.0000 S   0  0  0  0  0  0  0  0  0
   -0.3902    0.2831    0.0000 N   0  0  0  0  0  0  0  0  0
    0.4168    0.1116    0.0000 C   0  0  0  0  0  0  0  0  0
    1.0299    0.6636    0.0000 C   0  0  0  0  0  0  0  0  0
    0.8584    1.4706    0.0000 C   0  0  0  0  0  0  0  0  0
    1.4715    2.0227    0.0000 C   0  0  0  0  0  0  0  0  0
    2.2561    1.7677    0.0000 C   0  0  0  0  0  0  0  0  0
    2.4276    0.9607    0.0000 N   0  0  0  0  0  0  0  0  0
    1.8145    0.4087    0.0000 C   0  0  0  0  0  0  0  0  0
    0.5030   -0.7089    0.0000 C   0  0  0  0  0  0  0  0  0
    1.2175   -1.1214    0.0000 O   0  0  0  0  0  0  0  0  0
    1.9320   -0.7089    0.0000 C   0  0  0  0  0  0  0  0  0
    2.6465   -1.1214    0.0000 C   0  0  0  0  0  0  0  0  0
    3.3609   -0.7089    0.0000 C   0  0  0  0  0  0  0  0  0
    4.0754   -1.1214    0.0000 O   0  0  0  0  0  0  0  0  0
    4.7899   -0.7089    0.0000 C   0  0  0  0  0  0  0  0  0
    5.5043   -1.1214    0.0000 C   0  0  0  0  0  0  0  0  0
    6.2188   -0.7089    0.0000 C   0  0  0  0  0  0  0  0  0
    6.9333   -1.1214    0.0000 O   0  0  0  0  0  0  0  0  0
    7.6478   -0.7089    0.0000 C   0  0  0  0  0  0  0  0  0
    8.3622   -1.1214    0.0000 C   0  0  0  0  0  0  0  0  0
    9.0767   -0.7089    0.0000 C   0  0  0  0  0  0  0  0  0
    9.7912   -1.1214    0.0000 O   0  0  0  0  0  0  0  0  0
   10.5056   -0.7089    0.0000 C   0  0  0  0  0  0  0  0  0
   10.5919    0.1116    0.0000 N   0  0  0  0  0  0  0  0  0
   11.3988    0.2831    0.0000 S   0  0  0  0  0  0  0  0  0
   11.8113   -0.4313    0.0000 N   0  0  0  0  0  0  0  0  0
   11.2593   -1.0444    0.0000 C   0  0  0  0  0  0  0  0  0
   11.4308   -1.8514    0.0000 O   0  0  0  0  0  0  0  0  0
   12.2155   -2.1063    0.0000 C   0  0  0  0  0  0  0  0  0
   -0.2506   -1.0444    0.0000 N   0  0  0  0  0  0  0  0  0
  1  2  4  0  0  0  0
  1 31  4  0  0  0  0
  2  3  4  0  0  0  0
  3  4  1  0  0  0  0
  3 10  4  0  0  0  0
  4  5  4  0  0  0  0
  4  9  4  0  0  0  0
  5  6  4  0  0  0  0
  6  7  4  0  0  0  0
  7  8  4  0  0  0  0
  8  9  4  0  0  0  0
 10 11  1  0  0  0  0
 10 31  4  0  0  0  0
 11 12  1  0  0  0  0
 12 13  1  0  0  0  0
 13 14  1  0  0  0  0
 14 15  1  0  0  0  0
 15 16  1  0  0  0  0
 16 17  1  0  0  0  0
 17 18  1  0  0  0  0
 18 19  1  0  0  0  0
 19 20  1  0  0  0  0
 20 21  1  0  0  0  0
 21 22  1  0  0  0  0
 22 23  1  0  0  0  0
 23 24  1  0  0  0  0
 24 25  4  0  0  0  0
 24 28  4  0  0  0  0
 25 26  4  0  0  0  0
 26 27  4  0  0  0  0
 27 28  4  0  0  0  0
 28 29  1  0  0  0  0
 29 30  1  0  0  0  0
M  END
>  <Name_Molregno>
364843

>  <Muscarinic acetylcholine receptor M1>
7

>  <Muscarinic acetylcholine receptor M2>
6.8

>  <Muscarinic acetylcholine receptor M3>
6.7

>  <Muscarinic acetylcholine receptor M4>
6.8

>  <Muscarinic acetylcholine receptor M5>
7

$$$$
364844
  Marvin  02231216192D 0   1.00000     0.00000     0

 31 33  0  0  0  0  0  0  0  0999 V2000
   -0.7811   -0.6305    0.0000 S   0  0  0  0  0  0  0  0  0
   -1.3331   -0.0174    0.0000 N   0  0  0  0  0  0  0  0  0
   -0.9206    0.6970    0.0000 C   0  0  0  0  0  0  0  0  0
   -1.2562    1.4507    0.0000 O   0  0  0  0  0  0  0  0  0
   -2.0767    1.5370    0.0000 C   0  0  0  0  0  0  0  0  0
   -0.1137    0.5255    0.0000 N   0  0  0  0  0  0  0  0  0
   -0.0274   -0.2950    0.0000 C   0  0  0  0  0  0  0  0  0
    0.6870   -0.7075    0.0000 O   0  0  0  0  0  0  0  0  0
    1.4015   -0.2950    0.0000 C   0  0  0  0  0  0  0  0  0
    2.1160   -0.7075    0.0000 C   0  0  0  0  0  0  0  0  0
    2.8305   -0.2950    0.0000 C   0  0  0  0  0  0  0  0  0
    3.5449   -0.7075    0.0000 O   0  0  0  0  0  0  0  0  0
    4.2594   -0.2950    0.0000 C   0  0  0  0  0  0  0  0  0
    4.9739   -0.7075    0.0000 C   0  0  0  0  0  0  0  0  0
    5.6883   -0.2950    0.0000 C   0  0  0  0  0  0  0  0  0
    6.4028   -0.7075    0.0000 O   0  0  0  0  0  0  0  0  0
    7.1173   -0.2950    0.0000 C   0  0  0  0  0  0  0  0  0
    7.8318   -0.7075    0.0000 C   0  0  0  0  0  0  0  0  0
    8.5462   -0.2950    0.0000 C   0  0  0  0  0  0  0  0  0
    9.2607   -0.7075    0.0000 O   0  0  0  0  0  0  0  0  0
    9.9752   -0.2950    0.0000 C   0  0  0  0  0  0  0  0  0
   10.0614    0.5255    0.0000 N   0  0  0  0  0  0  0  0  0
   10.8684    0.6970    0.0000 S   0  0  0  0  0  0  0  0  0
   11.2809   -0.0174    0.0000 N   0  0  0  0  0  0  0  0  0
   10.7288   -0.6305    0.0000 C   0  0  0  0  0  0  0  0  0
   10.9004   -1.4375    0.0000 C   0  0  0  0  0  0  0  0  0
   11.6850   -1.6924    0.0000 C   0  0  0  0  0  0  0  0  0
   11.8565   -2.4994    0.0000 C   0  0  0  0  0  0  0  0  0
   11.2434   -3.0514    0.0000 C   0  0  0  0  0  0  0  0  0
   10.4588   -2.7965    0.0000 N   0  0  0  0  0  0  0  0  0
   10.2873   -1.9895    0.0000 C   0  0  0  0  0  0  0  0  0
  1  2  4  0  0  0  0
  1  7  4  0  0  0  0
  2  3  4  0  0  0  0
  3  4  1  0  0  0  0
  3  6  4  0  0  0  0
  4  5  1  0  0  0  0
  6  7  4  0  0  0  0
  7  8  1  0  0  0  0
  8  9  1  0  0  0  0
  9 10  1  0  0  0  0
 10 11  1  0  0  0  0
 11 12  1  0  0  0  0
 12 13  1  0  0  0  0
 13 14  1  0  0  0  0
 14 15  1  0  0  0  0
 15 16  1  0  0  0  0
 16 17  1  0  0  0  0
 17 18  1  0  0  0  0
 18 19  1  0  0  0  0
 19 20  1  0  0  0  0
 20 21  1  0  0  0  0
 21 22  4  0  0  0  0
 21 25  4  0  0  0  0
 22 23  4  0  0  0  0
 23 24  4  0  0  0  0
 24 25  4  0  0  0  0
 25 26  1  0  0  0  0
 26 27  4  0  0  0  0
 26 31  4  0  0  0  0
 27 28  4  0  0  0  0
 28 29  4  0  0  0  0
 29 30  4  0  0  0  0
 30 31  4  0  0  0  0
M  END
>  <Name_Molregno>
364844

>  <Muscarinic acetylcholine receptor M1>
7.2

>  <Muscarinic acetylcholine receptor M2>
7.2

>  <Muscarinic acetylcholine receptor M3>
6.7

>  <Muscarinic acetylcholine receptor M4>
6.8

>  <Muscarinic acetylcholine receptor M5>
6.6

$$$$
364953
  Marvin  02231216192D 0   1.00000     0.00000     0

 32 34  0  0  0  0  0  0  0  0999 V2000
   -0.8837    0.4384    0.0000 S   0  0  0  0  0  0  0  0  0
   -0.4712    1.1529    0.0000 N   0  0  0  0  0  0  0  0  0
    0.3358    0.9813    0.0000 C   0  0  0  0  0  0  0  0  0
    0.9489    1.5334    0.0000 C   0  0  0  0  0  0  0  0  0
    0.7774    2.3403    0.0000 C   0  0  0  0  0  0  0  0  0
    1.3905    2.8924    0.0000 N   0  0  0  0  0  0  0  0  0
    2.1751    2.6374    0.0000 C   0  0  0  0  0  0  0  0  0
    2.3466    1.8305    0.0000 C   0  0  0  0  0  0  0  0  0
    1.7335    1.2784    0.0000 C   0  0  0  0  0  0  0  0  0
    1.2189    3.6993    0.0000 C   0  0  0  0  0  0  0  0  0
    0.4220    0.1609    0.0000 C   0  0  0  0  0  0  0  0  0
    1.1365   -0.2516    0.0000 O   0  0  0  0  0  0  0  0  0
    1.8510    0.1609    0.0000 C   0  0  0  0  0  0  0  0  0
    2.5655   -0.2516    0.0000 C   0  0  0  0  0  0  0  0  0
    3.2799    0.1609    0.0000 O   0  0  0  0  0  0  0  0  0
    3.9944   -0.2516    0.0000 C   0  0  0  0  0  0  0  0  0
    4.7089    0.1609    0.0000 C   0  0  0  0  0  0  0  0  0
    5.4233   -0.2516    0.0000 O   0  0  0  0  0  0  0  0  0
    6.1378    0.1609    0.0000 C   0  0  0  0  0  0  0  0  0
    6.8523   -0.2516    0.0000 C   0  0  0  0  0  0  0  0  0
    7.5668    0.1609    0.0000 O   0  0  0  0  0  0  0  0  0
    8.2812   -0.2516    0.0000 C   0  0  0  0  0  0  0  0  0
    8.9957    0.1609    0.0000 C   0  0  0  0  0  0  0  0  0
    9.7102   -0.2516    0.0000 O   0  0  0  0  0  0  0  0  0
   10.4246    0.1609    0.0000 C   0  0  0  0  0  0  0  0  0
   10.5109    0.9813    0.0000 N   0  0  0  0  0  0  0  0  0
   11.3178    1.1529    0.0000 S   0  0  0  0  0  0  0  0  0
   11.7303    0.4384    0.0000 N   0  0  0  0  0  0  0  0  0
   11.1783   -0.1747    0.0000 C   0  0  0  0  0  0  0  0  0
   11.3498   -0.9817    0.0000 O   0  0  0  0  0  0  0  0  0
   12.1345   -1.2366    0.0000 C   0  0  0  0  0  0  0  0  0
   -0.3316   -0.1747    0.0000 N   0  0  0  0  0  0  0  0  0
  1  2  4  0  0  0  0
  1 32  4  0  0  0  0
  2  3  4  0  0  0  0
  3  4  1  0  0  0  0
  3 11  4  0  0  0  0
  4  5  1  0  0  0  0
  4  9  2  0  0  0  0
  5  6  1  0  0  0  0
  6  7  1  0  0  0  0
  6 10  1  0  0  0  0
  7  8  1  0  0  0  0
  8  9  1  0  0  0  0
 11 12  1  0  0  0  0
 11 32  4  0  0  0  0
 12 13  1  0  0  0  0
 13 14  1  0  0  0  0
 14 15  1  0  0  0  0
 15 16  1  0  0  0  0
 16 17  1  0  0  0  0
 17 18  1  0  0  0  0
 18 19  1  0  0  0  0
 19 20  1  0  0  0  0
 20 21  1  0  0  0  0
 21 22  1  0  0  0  0
 22 23  1  0  0  0  0
 23 24  1  0  0  0  0
 24 25  1  0  0  0  0
 25 26  4  0  0  0  0
 25 29  4  0  0  0  0
 26 27  4  0  0  0  0
 27 28  4  0  0  0  0
 28 29  4  0  0  0  0
 29 30  1  0  0  0  0
 30 31  1  0  0  0  0
M  END
>  <Name_Molregno>
364953

>  <Muscarinic acetylcholine receptor M1>
7

>  <Muscarinic acetylcholine receptor M2>
8.1

>  <Muscarinic acetylcholine receptor M3>
7.6

>  <Muscarinic acetylcholine receptor M4>
8.6

>  <Muscarinic acetylcholine receptor M5>
6.63

$$$$
364954
  Marvin  02231216192D 0   1.00000     0.00000     0

 35 37  0  0  0  0  0  0  0  0999 V2000
   -1.8306    0.6975    0.0000 S   0  0  0  0  0  0  0  0  0
   -2.2431    1.4120    0.0000 N   0  0  0  0  0  0  0  0  0
   -1.6910    2.0251    0.0000 C   0  0  0  0  0  0  0  0  0
   -1.8625    2.8320    0.0000 C   0  0  0  0  0  0  0  0  0
   -2.6472    3.0870    0.0000 C   0  0  0  0  0  0  0  0  0
   -2.8187    3.8939    0.0000 N   0  0  0  0  0  0  0  0  0
   -2.2056    4.4460    0.0000 C   0  0  0  0  0  0  0  0  0
   -1.4210    4.1910    0.0000 C   0  0  0  0  0  0  0  0  0
   -1.2495    3.3841    0.0000 C   0  0  0  0  0  0  0  0  0
   -3.6033    4.1489    0.0000 C   0  0  0  0  0  0  0  0  0
   -0.9373    1.6895    0.0000 C   0  0  0  0  0  0  0  0  0
   -0.2229    2.1020    0.0000 O   0  0  0  0  0  0  0  0  0
    0.4916    1.6895    0.0000 C   0  0  0  0  0  0  0  0  0
    1.2061    2.1020    0.0000 C   0  0  0  0  0  0  0  0  0
    1.9205    1.6895    0.0000 O   0  0  0  0  0  0  0  0  0
    2.6350    2.1020    0.0000 C   0  0  0  0  0  0  0  0  0
    3.3495    1.6895    0.0000 C   0  0  0  0  0  0  0  0  0
    4.0639    2.1020    0.0000 O   0  0  0  0  0  0  0  0  0
    4.7784    1.6895    0.0000 C   0  0  0  0  0  0  0  0  0
    5.4929    2.1020    0.0000 C   0  0  0  0  0  0  0  0  0
    6.2074    1.6895    0.0000 O   0  0  0  0  0  0  0  0  0
    6.9218    2.1020    0.0000 C   0  0  0  0  0  0  0  0  0
    7.6363    1.6895    0.0000 C   0  0  0  0  0  0  0  0  0
    8.3508    2.1020    0.0000 O   0  0  0  0  0  0  0  0  0
    9.0652    1.6895    0.0000 C   0  0  0  0  0  0  0  0  0
    9.7797    2.1020    0.0000 C   0  0  0  0  0  0  0  0  0
   10.4942    1.6895    0.0000 O   0  0  0  0  0  0  0  0  0
   11.2087    2.1020    0.0000 C   0  0  0  0  0  0  0  0  0
   11.2949    2.9225    0.0000 N   0  0  0  0  0  0  0  0  0
   12.1019    3.0940    0.0000 S   0  0  0  0  0  0  0  0  0
   12.5144    2.3795    0.0000 N   0  0  0  0  0  0  0  0  0
   11.9623    1.7664    0.0000 C   0  0  0  0  0  0  0  0  0
   12.1339    0.9595    0.0000 O   0  0  0  0  0  0  0  0  0
   12.9185    0.7045    0.0000 C   0  0  0  0  0  0  0  0  0
   -1.0236    0.8690    0.0000 N   0  0  0  0  0  0  0  0  0
  1  2  4  0  0  0  0
  1 35  4  0  0  0  0
  2  3  4  0  0  0  0
  3  4  1  0  0  0  0
  3 11  4  0  0  0  0
  4  5  1  0  0  0  0
  4  9  2  0  0  0  0
  5  6  1  0  0  0  0
  6  7  1  0  0  0  0
  6 10  1  0  0  0  0
  7  8  1  0  0  0  0
  8  9  1  0  0  0  0
 11 12  1  0  0  0  0
 11 35  4  0  0  0  0
 12 13  1  0  0  0  0
 13 14  1  0  0  0  0
 14 15  1  0  0  0  0
 15 16  1  0  0  0  0
 16 17  1  0  0  0  0
 17 18  1  0  0  0  0
 18 19  1  0  0  0  0
 19 20  1  0  0  0  0
 20 21  1  0  0  0  0
 21 22  1  0  0  0  0
 22 23  1  0  0  0  0
 23 24  1  0  0  0  0
 24 25  1  0  0  0  0
 25 26  1  0  0  0  0
 26 27  1  0  0  0  0
 27 28  1  0  0  0  0
 28 29  4  0  0  0  0
 28 32  4  0  0  0  0
 29 30  4  0  0  0  0
 30 31  4  0  0  0  0
 31 32  4  0  0  0  0
 32 33  1  0  0  0  0
 33 34  1  0  0  0  0
M  END
>  <Name_Molregno>
364954

>  <Muscarinic acetylcholine receptor M1>
6.4

>  <Muscarinic acetylcholine receptor M2>
8.6

>  <Muscarinic acetylcholine receptor M3>
5.8

>  <Muscarinic acetylcholine receptor M4>
7.9

>  <Muscarinic acetylcholine receptor M5>
7

$$$$
364970
  Marvin  02231216192D 0   1.00000     0.00000     0

 26 28  0  0  0  0  0  0  0  0999 V2000
   -1.1447   -1.8106    0.0000 S   0  0  0  0  0  0  0  0  0
   -0.7322   -1.0961    0.0000 N   0  0  0  0  0  0  0  0  0
    0.0747   -1.2676    0.0000 C   0  0  0  0  0  0  0  0  0
    0.6878   -0.7156    0.0000 C   0  0  0  0  0  0  0  0  0
    0.5163    0.0914    0.0000 C   0  0  0  0  0  0  0  0  0
    1.1294    0.6434    0.0000 N   0  0  0  0  0  0  0  0  0
    1.9140    0.3885    0.0000 C   0  0  0  0  0  0  0  0  0
    2.0855   -0.4185    0.0000 C   0  0  0  0  0  0  0  0  0
    1.4724   -0.9706    0.0000 C   0  0  0  0  0  0  0  0  0
    0.9579    1.4504    0.0000 C   0  0  0  0  0  0  0  0  0
    0.1610   -2.0881    0.0000 C   0  0  0  0  0  0  0  0  0
    0.8754   -2.5006    0.0000 O   0  0  0  0  0  0  0  0  0
    1.5899   -2.0881    0.0000 C   0  0  0  0  0  0  0  0  0
    2.3044   -2.5006    0.0000 C   0  0  0  0  0  0  0  0  0
    3.0188   -2.0881    0.0000 O   0  0  0  0  0  0  0  0  0
    3.7333   -2.5006    0.0000 C   0  0  0  0  0  0  0  0  0
    4.4478   -2.0881    0.0000 C   0  0  0  0  0  0  0  0  0
    5.1623   -2.5006    0.0000 O   0  0  0  0  0  0  0  0  0
    5.8767   -2.0881    0.0000 C   0  0  0  0  0  0  0  0  0
    5.9630   -1.2676    0.0000 N   0  0  0  0  0  0  0  0  0
    6.7699   -1.0961    0.0000 S   0  0  0  0  0  0  0  0  0
    7.1824   -1.8106    0.0000 N   0  0  0  0  0  0  0  0  0
    6.6304   -2.4237    0.0000 C   0  0  0  0  0  0  0  0  0
    6.8019   -3.2307    0.0000 O   0  0  0  0  0  0  0  0  0
    7.5866   -3.4856    0.0000 C   0  0  0  0  0  0  0  0  0
   -0.5927   -2.4237    0.0000 N   0  0  0  0  0  0  0  0  0
  1  2  4  0  0  0  0
  1 26  4  0  0  0  0
  2  3  4  0  0  0  0
  3  4  1  0  0  0  0
  3 11  4  0  0  0  0
  4  5  1  0  0  0  0
  4  9  2  0  0  0  0
  5  6  1  0  0  0  0
  6  7  1  0  0  0  0
  6 10  1  0  0  0  0
  7  8  1  0  0  0  0
  8  9  1  0  0  0  0
 11 12  1  0  0  0  0
 11 26  4  0  0  0  0
 12 13  1  0  0  0  0
 13 14  1  0  0  0  0
 14 15  1  0  0  0  0
 15 16  1  0  0  0  0
 16 17  1  0  0  0  0
 17 18  1  0  0  0  0
 18 19  1  0  0  0  0
 19 20  4  0  0  0  0
 19 23  4  0  0  0  0
 20 21  4  0  0  0  0
 21 22  4  0  0  0  0
 22 23  4  0  0  0  0
 23 24  1  0  0  0  0
 24 25  1  0  0  0  0
M  END
>  <Name_Molregno>
364970

>  <Muscarinic acetylcholine receptor M1>
6.1

>  <Muscarinic acetylcholine receptor M2>
7.4

>  <Muscarinic acetylcholine receptor M3>
7.3

>  <Muscarinic acetylcholine receptor M4>
7.2

>  <Muscarinic acetylcholine receptor M5>
6.6

$$$$
364971
  Marvin  02231216192D 0   1.00000     0.00000     0

 29 31  0  0  0  0  0  0  0  0999 V2000
    0.1570   -1.0367    0.0000 S   0  0  0  0  0  0  0  0  0
   -0.2555   -0.3222    0.0000 N   0  0  0  0  0  0  0  0  0
    0.2965    0.2909    0.0000 C   0  0  0  0  0  0  0  0  0
    0.1250    1.0979    0.0000 C   0  0  0  0  0  0  0  0  0
   -0.6596    1.3528    0.0000 C   0  0  0  0  0  0  0  0  0
   -0.8312    2.1598    0.0000 N   0  0  0  0  0  0  0  0  0
   -0.2181    2.7118    0.0000 C   0  0  0  0  0  0  0  0  0
    0.5665    2.4569    0.0000 C   0  0  0  0  0  0  0  0  0
    0.7381    1.6499    0.0000 C   0  0  0  0  0  0  0  0  0
   -1.6158    2.4147    0.0000 C   0  0  0  0  0  0  0  0  0
    1.0502   -0.0446    0.0000 C   0  0  0  0  0  0  0  0  0
    1.7646    0.3679    0.0000 O   0  0  0  0  0  0  0  0  0
    2.4791   -0.0446    0.0000 C   0  0  0  0  0  0  0  0  0
    3.1936    0.3679    0.0000 C   0  0  0  0  0  0  0  0  0
    3.9081   -0.0446    0.0000 O   0  0  0  0  0  0  0  0  0
    4.6225    0.3679    0.0000 C   0  0  0  0  0  0  0  0  0
    5.3370   -0.0446    0.0000 C   0  0  0  0  0  0  0  0  0
    6.0515    0.3679    0.0000 O   0  0  0  0  0  0  0  0  0
    6.7659   -0.0446    0.0000 C   0  0  0  0  0  0  0  0  0
    7.4804    0.3679    0.0000 C   0  0  0  0  0  0  0  0  0
    8.1949   -0.0446    0.0000 O   0  0  0  0  0  0  0  0  0
    8.9094    0.3679    0.0000 C   0  0  0  0  0  0  0  0  0
    8.9956    1.1883    0.0000 N   0  0  0  0  0  0  0  0  0
    9.8026    1.3599    0.0000 S   0  0  0  0  0  0  0  0  0
   10.2151    0.6454    0.0000 N   0  0  0  0  0  0  0  0  0
    9.6630    0.0323    0.0000 C   0  0  0  0  0  0  0  0  0
    9.8346   -0.7747    0.0000 O   0  0  0  0  0  0  0  0  0
   10.6192   -1.0296    0.0000 C   0  0  0  0  0  0  0  0  0
    0.9639   -0.8651    0.0000 N   0  0  0  0  0  0  0  0  0
  1  2  4  0  0  0  0
  1 29  4  0  0  0  0
  2  3  4  0  0  0  0
  3  4  1  0  0  0  0
  3 11  4  0  0  0  0
  4  5  1  0  0  0  0
  4  9  2  0  0  0  0
  5  6  1  0  0  0  0
  6  7  1  0  0  0  0
  6 10  1  0  0  0  0
  7  8  1  0  0  0  0
  8  9  1  0  0  0  0
 11 12  1  0  0  0  0
 11 29  4  0  0  0  0
 12 13  1  0  0  0  0
 13 14  1  0  0  0  0
 14 15  1  0  0  0  0
 15 16  1  0  0  0  0
 16 17  1  0  0  0  0
 17 18  1  0  0  0  0
 18 19  1  0  0  0  0
 19 20  1  0  0  0  0
 20 21  1  0  0  0  0
 21 22  1  0  0  0  0
 22 23  4  0  0  0  0
 22 26  4  0  0  0  0
 23 24  4  0  0  0  0
 24 25  4  0  0  0  0
 25 26  4  0  0  0  0
 26 27  1  0  0  0  0
 27 28  1  0  0  0  0
M  END
>  <Name_Molregno>
364971

>  <Muscarinic acetylcholine receptor M1>
6.5

>  <Muscarinic acetylcholine receptor M2>
7.4

>  <Muscarinic acetylcholine receptor M3>
6.6

>  <Muscarinic acetylcholine receptor M4>
7.1

>  <Muscarinic acetylcholine receptor M5>
6.2

$$$$
364972
  Marvin  02231216192D 0   1.00000     0.00000     0

 25 26  0  0  0  0  0  0  0  0999 V2000
    0.1162   -2.7288    0.0000 S   0  0  0  0  0  0  0  0  0
   -0.2963   -2.0143    0.0000 N   0  0  0  0  0  0  0  0  0
    0.2557   -1.4013    0.0000 C   0  0  0  0  0  0  0  0  0
    0.0842   -0.5943    0.0000 C   0  0  0  0  0  0  0  0  0
   -0.7004   -0.3393    0.0000 C   0  0  0  0  0  0  0  0  0
   -0.8719    0.4676    0.0000 N   0  0  0  0  0  0  0  0  0
   -0.2589    1.0197    0.0000 C   0  0  0  0  0  0  0  0  0
    0.5258    0.7647    0.0000 C   0  0  0  0  0  0  0  0  0
    0.6973   -0.0423    0.0000 C   0  0  0  0  0  0  0  0  0
   -1.6566    0.7226    0.0000 C   0  0  0  0  0  0  0  0  0
    1.0094   -1.7368    0.0000 C   0  0  0  0  0  0  0  0  0
    1.7239   -1.3243    0.0000 O   0  0  0  0  0  0  0  0  0
    2.4383   -1.7368    0.0000 C   0  0  0  0  0  0  0  0  0
    3.1528   -1.3243    0.0000 C   0  0  0  0  0  0  0  0  0
    3.8673   -1.7368    0.0000 O   0  0  0  0  0  0  0  0  0
    4.5818   -1.3243    0.0000 C   0  0  0  0  0  0  0  0  0
    5.2962   -1.7368    0.0000 C   0  0  0  0  0  0  0  0  0
    6.0107   -1.3243    0.0000 O   0  0  0  0  0  0  0  0  0
    6.7252   -1.7368    0.0000 C   0  0  0  0  0  0  0  0  0
    7.4396   -1.3243    0.0000 C   0  0  0  0  0  0  0  0  0
    8.1541   -1.7368    0.0000 O   0  0  0  0  0  0  0  0  0
    8.8686   -1.3243    0.0000 C   0  0  0  0  0  0  0  0  0
    9.5831   -1.7368    0.0000 C   0  0  0  0  0  0  0  0  0
   10.2975   -1.3243    0.0000 O   0  0  0  0  0  0  0  0  0
    0.9232   -2.5573    0.0000 N   0  0  0  0  0  0  0  0  0
  1  2  4  0  0  0  0
  1 25  4  0  0  0  0
  2  3  4  0  0  0  0
  3  4  1  0  0  0  0
  3 11  4  0  0  0  0
  4  5  1  0  0  0  0
  4  9  2  0  0  0  0
  5  6  1  0  0  0  0
  6  7  1  0  0  0  0
  6 10  1  0  0  0  0
  7  8  1  0  0  0  0
  8  9  1  0  0  0  0
 11 12  1  0  0  0  0
 11 25  4  0  0  0  0
 12 13  1  0  0  0  0
 13 14  1  0  0  0  0
 14 15  1  0  0  0  0
 15 16  1  0  0  0  0
 16 17  1  0  0  0  0
 17 18  1  0  0  0  0
 18 19  1  0  0  0  0
 19 20  1  0  0  0  0
 20 21  1  0  0  0  0
 21 22  1  0  0  0  0
 22 23  1  0  0  0  0
 23 24  1  0  0  0  0
M  END
>  <Name_Molregno>
364972

>  <Muscarinic acetylcholine receptor M1>
6.55

>  <Muscarinic acetylcholine receptor M2>
6.5

>  <Muscarinic acetylcholine receptor M3>
6.5

>  <Muscarinic acetylcholine receptor M4>
6.1

>  <Muscarinic acetylcholine receptor M5>
5.4

$$$$
364973
  Marvin  02231216192D 0   1.00000     0.00000     0

 32 34  0  0  1  0  0  0  0  0999 V2000
   -0.7852    0.4650    0.0000 S   0  0  0  0  0  0  0  0  0
   -1.3372    1.0781    0.0000 N   0  0  0  0  0  0  0  0  0
   -0.9247    1.7925    0.0000 C   0  0  0  0  0  0  0  0  0
   -1.2602    2.5462    0.0000 O   0  0  0  0  0  0  0  0  0
   -2.0807    2.6324    0.0000 C   0  0  0  0  0  0  0  0  0
   -0.1177    1.6210    0.0000 N   0  0  0  0  0  0  0  0  0
   -0.0315    0.8005    0.0000 C   0  0  0  0  0  0  0  0  0
    0.6830    0.3880    0.0000 O   0  0  0  0  0  0  0  0  0
    1.3975    0.8005    0.0000 C   0  0  0  0  0  0  0  0  0
    2.1119    0.3880    0.0000 C   0  0  0  0  0  0  0  0  0
    2.8264    0.8005    0.0000 O   0  0  0  0  0  0  0  0  0
    3.5409    0.3880    0.0000 C   0  0  0  0  0  0  0  0  0
    4.2553    0.8005    0.0000 C   0  0  0  0  0  0  0  0  0
    4.9698    0.3880    0.0000 O   0  0  0  0  0  0  0  0  0
    5.6843    0.8005    0.0000 C   0  0  0  0  0  0  0  0  0
    6.3988    0.3880    0.0000 C   0  0  0  0  0  0  0  0  0
    7.1132    0.8005    0.0000 O   0  0  0  0  0  0  0  0  0
    7.8277    0.3880    0.0000 C   0  0  0  0  0  0  0  0  0
    8.5422    0.8005    0.0000 C   0  0  0  0  0  0  0  0  0
    9.2566    0.3880    0.0000 O   0  0  0  0  0  0  0  0  0
    9.9711    0.8005    0.0000 C   0  0  0  0  0  0  0  0  0
   10.0573    1.6210    0.0000 N   0  0  0  0  0  0  0  0  0
   10.8643    1.7925    0.0000 S   0  0  0  0  0  0  0  0  0
   11.2768    1.0781    0.0000 N   0  0  0  0  0  0  0  0  0
   10.7248    0.4650    0.0000 C   0  0  0  0  0  0  0  0  0
   10.8963   -0.3420    0.0000 C   0  0  0  0  0  0  0  0  0
   11.6809   -0.5969    0.0000 N   0  0  0  0  0  0  0  0  0
   11.8525   -1.4039    0.0000 C   0  0  0  0  0  0  0  0  0
   11.2394   -1.9559    0.0000 C   0  0  0  0  0  0  0  0  0
   10.4547   -1.7010    0.0000 C   0  0  0  0  0  0  0  0  0
   10.2832   -0.8940    0.0000 C   0  0  0  0  0  0  0  0  0
   12.2940   -0.0449    0.0000 C   0  0  0  0  0  0  0  0  0
  1  2  4  0  0  0  0
  1  7  4  0  0  0  0
  2  3  4  0  0  0  0
  3  4  1  0  0  0  0
  3  6  4  0  0  0  0
  4  5  1  0  0  0  0
  6  7  4  0  0  0  0
  7  8  1  0  0  0  0
  8  9  1  0  0  0  0
  9 10  1  0  0  0  0
 10 11  1  0  0  0  0
 11 12  1  0  0  0  0
 12 13  1  0  0  0  0
 13 14  1  0  0  0  0
 14 15  1  0  0  0  0
 15 16  1  0  0  0  0
 16 17  1  0  0  0  0
 17 18  1  0  0  0  0
 18 19  1  0  0  0  0
 19 20  1  0  0  0  0
 20 21  1  0  0  0  0
 21 22  4  0  0  0  0
 21 25  4  0  0  0  0
 22 23  4  0  0  0  0
 23 24  4  0  0  0  0
 24 25  4  0  0  0  0
 25 26  1  0  0  0  0
 26 27  1  0  0  0  0
 26 31  1  0  0  0  0
 27 28  1  0  0  0  0
 27 32  1  0  0  0  0
 28 29  1  0  0  0  0
 29 30  1  0  0  0  0
 30 31  2  0  0  0  0
M  END
>  <Name_Molregno>
364973

>  <Muscarinic acetylcholine receptor M1>
6.7

>  <Muscarinic acetylcholine receptor M2>
7.4

>  <Muscarinic acetylcholine receptor M3>
6.5

>  <Muscarinic acetylcholine receptor M4>
7.6

>  <Muscarinic acetylcholine receptor M5>
6.6

$$$$
370276
  Marvin  02231216192D 0   1.00000     0.00000     0

 23 26  0  0  1  0  0  0  0  0999 V2000
    0.9233   -1.3338    0.0000 S   0  0  0  0  0  0  0  0  0
    0.6683   -2.1184    0.0000 C   0  0  0  0  0  0  0  0  0
   -0.1567   -2.1184    0.0000 C   0  0  0  0  0  0  0  0  0
   -0.4116   -1.3338    0.0000 O   0  0  0  0  0  0  0  0  0
    0.2558   -0.8489    0.0000 C   0  0  0  0  0  0  0  0  0
    0.8631   -0.2905    0.0000 C   0  0  0  0  0  0  0  0  0
    0.6831    0.5147    0.0000 C   0  0  0  0  0  0  0  0  0
    1.2904    1.0731    0.0000 C   0  0  0  0  0  0  0  0  0
    2.0777    0.8264    0.0000 C   0  0  0  0  0  0  0  0  0
    2.2576    0.0213    0.0000 C   0  0  0  0  0  0  0  0  0
    1.6503   -0.5372    0.0000 C   0  0  0  0  0  0  0  0  0
   -0.1492   -0.1301    0.0000 C   0  0  0  0  0  0  0  0  0
   -0.9741   -0.1215    0.0000 C   0  0  0  0  0  0  0  0  0
   -1.3791    0.5973    0.0000 C   0  0  0  0  0  0  0  0  0
   -0.9592    1.3074    0.0000 C   0  0  0  0  0  0  0  0  0
   -0.1342    1.2987    0.0000 C   0  0  0  0  0  0  0  0  0
    0.2708    0.5800    0.0000 C   0  0  0  0  0  0  0  0  0
   -0.6416   -2.7859    0.0000 C   0  0  0  0  0  0  0  0  0
   -1.4666   -2.7859    0.0000 N   0  0  0  0  0  0  0  0  0
   -1.7215   -3.5705    0.0000 C   0  0  0  0  0  0  0  0  0
   -1.0541   -4.0554    0.0000 C   0  0  0  0  0  0  0  0  0
   -0.3867   -3.5705    0.0000 C   0  0  0  0  0  0  0  0  0
   -1.9515   -2.1184    0.0000 C   0  0  0  0  0  0  0  0  0
  1  2  1  0  0  0  0
  1  5  1  0  0  0  0
  2  3  1  0  0  0  0
  3  4  1  0  0  0  0
  3 18  1  0  0  0  0
  4  5  1  0  0  0  0
  5  6  1  0  0  0  0
  5 12  1  0  0  0  0
  6  7  1  0  0  0  0
  6 11  1  0  0  0  0
  7  8  1  0  0  0  0
  8  9  1  0  0  0  0
  9 10  1  0  0  0  0
 10 11  1  0  0  0  0
 12 13  4  0  0  0  0
 12 17  4  0  0  0  0
 13 14  4  0  0  0  0
 14 15  4  0  0  0  0
 15 16  4  0  0  0  0
 16 17  4  0  0  0  0
 18 19  1  0  0  0  0
 18 22  1  0  0  0  0
 19 20  1  0  0  0  0
 19 23  1  0  0  0  0
 20 21  1  0  0  0  0
 21 22  1  0  0  0  0
M  END
>  <Name_Molregno>
370276

>  <Muscarinic acetylcholine receptor M1>
8.96

>  <Muscarinic acetylcholine receptor M2>
8.52

>  <Muscarinic acetylcholine receptor M3>
8.7

>  <Muscarinic acetylcholine receptor M4>
8.77

>  <Muscarinic acetylcholine receptor M5>
8.65

$$$$
370307
  Marvin  02231216192D 0   1.00000     0.00000     0

 24 27  0  0  1  0  0  0  0  0999 V2000
    0.8287    0.5108    0.0000 S   0  0  0  0  0  0  0  0  0
    0.5738   -0.2738    0.0000 C   0  0  0  0  0  0  0  0  0
   -0.2512   -0.2738    0.0000 C   0  0  0  0  0  0  0  0  0
   -0.5061    0.5108    0.0000 O   0  0  0  0  0  0  0  0  0
    0.1613    0.9957    0.0000 C   0  0  0  0  0  0  0  0  0
    0.7686    1.5541    0.0000 C   0  0  0  0  0  0  0  0  0
    0.5886    2.3593    0.0000 C   0  0  0  0  0  0  0  0  0
    1.1959    2.9177    0.0000 C   0  0  0  0  0  0  0  0  0
    1.9831    2.6710    0.0000 C   0  0  0  0  0  0  0  0  0
    2.1631    1.8659    0.0000 C   0  0  0  0  0  0  0  0  0
    1.5558    1.3074    0.0000 C   0  0  0  0  0  0  0  0  0
   -0.2437    1.7145    0.0000 C   0  0  0  0  0  0  0  0  0
   -1.0686    1.7231    0.0000 C   0  0  0  0  0  0  0  0  0
   -1.4736    2.4419    0.0000 C   0  0  0  0  0  0  0  0  0
   -1.0537    3.1520    0.0000 C   0  0  0  0  0  0  0  0  0
   -0.2287    3.1433    0.0000 C   0  0  0  0  0  0  0  0  0
    0.1763    2.4246    0.0000 C   0  0  0  0  0  0  0  0  0
   -0.7361   -0.9413    0.0000 C   0  0  0  0  0  0  0  0  0
   -1.5611   -0.9413    0.0000 N   0  3  0  0  0  0  0  0  0
   -1.8161   -1.7259    0.0000 C   0  0  0  0  0  0  0  0  0
   -1.1486   -2.2108    0.0000 C   0  0  0  0  0  0  0  0  0
   -0.4812   -1.7259    0.0000 C   0  0  0  0  0  0  0  0  0
   -1.6559   -0.1217    0.0000 C   0  0  0  0  0  0  0  0  0
   -2.3112   -0.5978    0.0000 C   0  0  0  0  0  0  0  0  0
  1  2  1  0  0  0  0
  1  5  1  0  0  0  0
  2  3  1  0  0  0  0
  3  4  1  0  0  0  0
  3 18  1  0  0  0  0
  4  5  1  0  0  0  0
  5  6  1  0  0  0  0
  5 12  1  0  0  0  0
  6  7  1  0  0  0  0
  6 11  1  0  0  0  0
  7  8  1  0  0  0  0
  8  9  1  0  0  0  0
  9 10  1  0  0  0  0
 10 11  1  0  0  0  0
 12 13  4  0  0  0  0
 12 17  4  0  0  0  0
 13 14  4  0  0  0  0
 14 15  4  0  0  0  0
 15 16  4  0  0  0  0
 16 17  4  0  0  0  0
 18 19  1  0  0  0  0
 18 22  1  0  0  0  0
 19 20  1  0  0  0  0
 19 23  1  0  0  0  0
 19 24  1  0  0  0  0
 20 21  1  0  0  0  0
 21 22  1  0  0  0  0
M  CHG  1  19   1
M  END
>  <Name_Molregno>
370307

>  <Muscarinic acetylcholine receptor M1>
9.34

>  <Muscarinic acetylcholine receptor M2>
8.97

>  <Muscarinic acetylcholine receptor M3>
8.91

>  <Muscarinic acetylcholine receptor M4>
8.97

>  <Muscarinic acetylcholine receptor M5>
9.19

$$$$
376865
  Marvin  02231216192D 0   1.00000     0.00000     0

 12 12  0  0  1  0  0  0  0  0999 V2000
   -0.9287   -0.1273    0.0000 O   0  0  0  0  0  0  0  0  0
   -0.9287   -0.9523    0.0000 C   0  0  0  0  0  0  0  0  0
   -1.6432   -1.3648    0.0000 C   0  0  0  0  0  0  0  0  0
   -2.3576   -0.9523    0.0000 O   0  0  0  0  0  0  0  0  0
   -2.3576   -0.1273    0.0000 C   0  0  0  0  0  0  0  0  0
   -1.6432    0.2852    0.0000 C   0  0  0  0  0  0  0  0  0
   -1.6432    1.1102    0.0000 C   0  0  0  0  0  0  0  0  0
   -0.2142   -1.3648    0.0000 C   0  0  0  0  0  0  0  0  0
    0.5002   -0.9523    0.0000 N   0  3  0  0  0  0  0  0  0
    1.2147   -0.5398    0.0000 C   0  0  0  0  0  0  0  0  0
    0.9127   -1.6668    0.0000 C   0  0  0  0  0  0  0  0  0
    0.0877   -0.2379    0.0000 C   0  0  0  0  0  0  0  0  0
  1  2  1  0  0  0  0
  1  6  1  0  0  0  0
  2  3  1  0  0  0  0
  2  8  1  0  0  0  0
  3  4  1  0  0  0  0
  4  5  1  0  0  0  0
  5  6  1  0  0  0  0
  6  7  1  0  0  0  0
  8  9  1  0  0  0  0
  9 10  1  0  0  0  0
  9 11  1  0  0  0  0
  9 12  1  0  0  0  0
M  CHG  1   9   1
M  END
>  <Name_Molregno>
376865

>  <Muscarinic acetylcholine receptor M1>
4.35

>  <Muscarinic acetylcholine receptor M2>
5.23

>  <Muscarinic acetylcholine receptor M3>
4.74

>  <Muscarinic acetylcholine receptor M4>
4.44

>  <Muscarinic acetylcholine receptor M5>
4.7

$$$$
382415
  Marvin  02231216192D 0   1.00000     0.00000     0

 18 19  0  0  0  0  0  0  0  0999 V2000
   -0.7360    1.4792    0.0000 S   0  0  0  0  0  0  0  0  0
   -0.9909    0.6946    0.0000 C   0  0  0  0  0  0  0  0  0
   -1.8159    0.6946    0.0000 C   0  0  0  0  0  0  0  0  0
   -2.0709    1.4792    0.0000 N   0  0  0  0  0  0  0  0  0
   -1.4034    1.9642    0.0000 C   0  0  0  0  0  0  0  0  0
   -1.4034    2.7892    0.0000 C   0  0  0  0  0  0  0  0  0
   -0.6890    3.2017    0.0000 F   0  0  0  0  0  0  0  0  0
   -2.3008    0.0272    0.0000 C   0  0  0  0  0  0  0  0  0
   -2.7858   -0.6403    0.0000 C   0  0  0  0  0  0  0  0  0
   -3.2707   -1.3077    0.0000 C   0  0  0  0  0  0  0  0  0
   -2.9351   -2.0614    0.0000 C   0  0  0  0  0  0  0  0  0
   -3.4201   -2.7288    0.0000 C   0  0  0  0  0  0  0  0  0
   -4.2405   -2.6426    0.0000 C   0  0  0  0  0  0  0  0  0
   -4.5761   -1.8889    0.0000 C   0  0  0  0  0  0  0  0  0
   -5.3966   -1.8027    0.0000 F   0  0  0  0  0  0  0  0  0
   -4.0912   -1.2215    0.0000 C   0  0  0  0  0  0  0  0  0
   -3.0845   -3.4825    0.0000 C   0  0  0  0  0  0  0  0  0
   -2.7489   -4.2362    0.0000 N   0  0  0  0  0  0  0  0  0
  1  2  4  0  0  0  0
  1  5  4  0  0  0  0
  2  3  4  0  0  0  0
  3  4  4  0  0  0  0
  3  8  1  0  0  0  0
  4  5  4  0  0  0  0
  5  6  1  0  0  0  0
  6  7  1  0  0  0  0
  8  9  3  0  0  0  0
  9 10  1  0  0  0  0
 10 11  4  0  0  0  0
 10 16  4  0  0  0  0
 11 12  4  0  0  0  0
 12 13  4  0  0  0  0
 12 17  1  0  0  0  0
 13 14  4  0  0  0  0
 14 15  1  0  0  0  0
 14 16  4  0  0  0  0
 17 18  3  0  0  0  0
M  END
>  <Name_Molregno>
382415

>  <5-HT1A>
5

>  <5-HT1B>
5

>  <5-HT1D>
5

>  <5-HT1E>
5

>  <5-HT2A>
5

>  <5-HT2C>
5

>  <5-HT3>
5

>  <5-HT5>
5

>  <5-HT6>
5

>  <5-HT7>
5

>  <Alpha-1A>
5

>  <Alpha-1B>
5

>  <Alpha-2A>
5

>  <Alpha-2B>
5

>  <Alpha-2C>
5

>  <Beta-1>
5

>  <Beta-2>
5

>  <DOPAMINE D1>
5

>  <DOPAMINE D2>
5

>  <DOPAMINE D3>
5

>  <DOPAMINE D4>
5

>  <DOPAMINE D5>
5

>  <Dopamine transporter>
5

>  <HISTAMINE H1>
5

>  <HISTAMINE H2>
5

>  <HISTAMINE H3>
5

>  <HISTAMINE H4>
5

>  <Muscarinic acetylcholine receptor M1>
5

>  <Muscarinic acetylcholine receptor M2>
5

>  <Muscarinic acetylcholine receptor M3>
5

>  <Muscarinic acetylcholine receptor M4>
5

>  <Muscarinic acetylcholine receptor M5>
5

>  <Norepinephrine transporter>
5

>  <Serotonin transporter>
5

$$$$
389011
  Marvin  02231216192D 0   1.00000     0.00000     0

 25 26  0  0  1  0  0  0  0  0999 V2000
   -2.9244    1.8604    0.0000 S   0  0  0  0  0  0  0  0  0
   -3.7494    1.8604    0.0000 O   0  0  0  0  0  0  0  0  0
   -2.0994    1.8604    0.0000 O   0  0  0  0  0  0  0  0  0
   -2.9244    2.6854    0.0000 C   0  0  0  0  0  0  0  0  0
   -3.6388    3.0979    0.0000 C   0  0  0  0  0  0  0  0  0
   -2.9244    1.0354    0.0000 C   0  0  0  0  0  0  0  0  0
   -2.2099    0.6229    0.0000 C   0  0  0  0  0  0  0  0  0
   -2.2099   -0.2021    0.0000 C   0  0  0  0  0  0  0  0  0
   -1.4954   -0.6146    0.0000 C   0  0  0  0  0  0  0  0  0
   -0.7810   -0.2021    0.0000 O   0  0  0  0  0  0  0  0  0
   -1.4954   -1.4396    0.0000 N   0  0  0  0  0  0  0  0  0
   -0.7810   -1.8521    0.0000 C   0  0  0  0  0  0  0  0  0
   -0.7810   -2.6771    0.0000 C   0  0  0  0  0  0  0  0  0
   -0.1135   -3.1620    0.0000 N   0  0  0  0  0  0  0  0  0
   -0.3685   -3.9466    0.0000 C   0  0  0  0  0  0  0  0  0
   -1.1935   -3.9466    0.0000 C   0  0  0  0  0  0  0  0  0
   -1.4484   -3.1620    0.0000 C   0  0  0  0  0  0  0  0  0
    0.6711   -2.9071    0.0000 C   0  0  0  0  0  0  0  0  0
    1.2842   -3.4591    0.0000 C   0  0  0  0  0  0  0  0  0
   -2.9244   -0.6146    0.0000 C   0  0  0  0  0  0  0  0  0
   -2.9244   -1.4396    0.0000 O   0  0  0  0  0  0  0  0  0
   -3.6388   -1.8521    0.0000 C   0  0  0  0  0  0  0  0  0
   -3.6388   -0.2021    0.0000 C   0  0  0  0  0  0  0  0  0
   -3.6388    0.6229    0.0000 C   0  0  0  0  0  0  0  0  0
   -4.3533    1.0354    0.0000 N   0  0  0  0  0  0  0  0  0
  1  2  2  0  0  0  0
  1  3  2  0  0  0  0
  1  4  1  0  0  0  0
  1  6  1  0  0  0  0
  4  5  1  0  0  0  0
  6  7  4  0  0  0  0
  6 24  4  0  0  0  0
  7  8  4  0  0  0  0
  8  9  1  0  0  0  0
  8 20  4  0  0  0  0
  9 10  2  0  0  0  0
  9 11  1  0  0  0  0
 11 12  1  0  0  0  0
 12 13  1  0  0  0  0
 13 14  1  0  0  0  0
 13 17  1  0  0  0  0
 14 15  1  0  0  0  0
 14 18  1  0  0  0  0
 15 16  1  0  0  0  0
 16 17  1  0  0  0  0
 18 19  1  0  0  0  0
 20 21  1  0  0  0  0
 20 23  4  0  0  0  0
 21 22  1  0  0  0  0
 23 24  4  0  0  0  0
 24 25  1  0  0  0  0
M  END
>  <Name_Molregno>
389011

>  <5-HT1A>
5

>  <5-HT1B>
5.76

>  <5-HT1D>
5.87

>  <5-HT1E>
5

>  <5-HT2A>
5.64

>  <5-HT2C>
5

>  <5-HT3>
5

>  <5-HT5>
5

>  <5-HT6>
5.38

>  <5-HT7>
7.47

>  <Alpha-1A>
5

>  <Alpha-1B>
5

>  <Alpha-2A>
5.95

>  <Alpha-2C>
5.81

>  <Beta-1>
5

>  <Beta-2>
5

>  <DOPAMINE D1>
5

>  <DOPAMINE D2>
8.71

>  <DOPAMINE D3>
8.51

>  <DOPAMINE D4>
5.63

>  <DOPAMINE D5>
5

>  <Dopamine transporter>
5

>  <HISTAMINE H1>
5

>  <HISTAMINE H2>
5

>  <HISTAMINE H4>
5

>  <Muscarinic acetylcholine receptor M1>
5

>  <Muscarinic acetylcholine receptor M2>
5

>  <Muscarinic acetylcholine receptor M3>
5

>  <Muscarinic acetylcholine receptor M4>
5

>  <Muscarinic acetylcholine receptor M5>
5

>  <Norepinephrine transporter>
5

>  <Serotonin transporter>
5

$$$$
391418
  Marvin  02231216192D 0   1.00000     0.00000     0

 46 49  0  0  0  0  0  0  0  0999 V2000
  -17.8068    2.5552    0.0000 O   0  0  0  0  0  0  0  0  0
  -18.5212    2.1427    0.0000 C   0  0  0  0  0  0  0  0  0
  -17.8068    3.3802    0.0000 C   0  0  0  0  0  0  0  0  0
  -18.5212    3.7927    0.0000 C   0  0  0  0  0  0  0  0  0
  -18.5212    4.6177    0.0000 C   0  0  0  0  0  0  0  0  0
  -17.8068    5.0302    0.0000 C   0  0  0  0  0  0  0  0  0
  -17.0923    4.6177    0.0000 C   0  0  0  0  0  0  0  0  0
  -17.0923    3.7927    0.0000 C   0  0  0  0  0  0  0  0  0
  -16.3778    3.3802    0.0000 C   0  0  0  0  0  0  0  0  0
  -15.6633    3.7927    0.0000 N   0  0  0  0  0  0  0  0  0
  -14.9489    3.3802    0.0000 C   0  0  0  0  0  0  0  0  0
  -14.2344    3.7927    0.0000 C   0  0  0  0  0  0  0  0  0
  -13.5199    3.3802    0.0000 C   0  0  0  0  0  0  0  0  0
  -12.8055    3.7927    0.0000 C   0  0  0  0  0  0  0  0  0
  -12.0910    3.3802    0.0000 C   0  0  0  0  0  0  0  0  0
  -11.3765    3.7927    0.0000 C   0  0  0  0  0  0  0  0  0
  -10.6620    3.3802    0.0000 N   0  0  0  0  0  0  0  0  0
   -9.9476    3.7927    0.0000 C   0  0  0  0  0  0  0  0  0
   -9.2331    3.3802    0.0000 C   0  0  0  0  0  0  0  0  0
   -9.2331    2.5552    0.0000 C   0  0  0  0  0  0  0  0  0
   -9.9476    2.1427    0.0000 C   0  0  0  0  0  0  0  0  0
  -10.6620    2.5552    0.0000 C   0  0  0  0  0  0  0  0  0
   -8.5186    2.1427    0.0000 C   0  0  0  0  0  0  0  0  0
   -7.8042    2.5552    0.0000 C   0  0  0  0  0  0  0  0  0
   -7.0897    2.1427    0.0000 C   0  0  0  0  0  0  0  0  0
   -6.3752    2.5552    0.0000 C   0  0  0  0  0  0  0  0  0
   -5.6607    2.1427    0.0000 C   0  0  0  0  0  0  0  0  0
   -5.6607    1.3177    0.0000 N   0  0  0  0  0  0  0  0  0
   -6.3752    0.9052    0.0000 C   0  0  0  0  0  0  0  0  0
   -7.0897    1.3177    0.0000 C   0  0  0  0  0  0  0  0  0
   -4.9463    0.9052    0.0000 C   0  0  0  0  0  0  0  0  0
   -4.2318    1.3177    0.0000 C   0  0  0  0  0  0  0  0  0
   -3.5173    0.9052    0.0000 C   0  0  0  0  0  0  0  0  0
   -2.8029    1.3177    0.0000 C   0  0  0  0  0  0  0  0  0
   -2.0884    0.9052    0.0000 C   0  0  0  0  0  0  0  0  0
   -1.3739    1.3177    0.0000 C   0  0  0  0  0  0  0  0  0
   -0.6594    0.9052    0.0000 N   0  0  0  0  0  0  0  0  0
    0.0550    1.3177    0.0000 C   0  0  0  0  0  0  0  0  0
    0.7695    0.9052    0.0000 C   0  0  0  0  0  0  0  0  0
    1.4840    1.3177    0.0000 C   0  0  0  0  0  0  0  0  0
    2.1984    0.9052    0.0000 C   0  0  0  0  0  0  0  0  0
    2.1984    0.0802    0.0000 C   0  0  0  0  0  0  0  0  0
    1.4840   -0.3323    0.0000 C   0  0  0  0  0  0  0  0  0
    0.7695    0.0802    0.0000 C   0  0  0  0  0  0  0  0  0
    0.0550   -0.3323    0.0000 O   0  0  0  0  0  0  0  0  0
    0.0550   -1.1573    0.0000 C   0  0  0  0  0  0  0  0  0
  1  2  1  0  0  0  0
  1  3  1  0  0  0  0
  3  4  4  0  0  0  0
  3  8  4  0  0  0  0
  4  5  4  0  0  0  0
  5  6  4  0  0  0  0
  6  7  4  0  0  0  0
  7  8  4  0  0  0  0
  8  9  1  0  0  0  0
  9 10  1  0  0  0  0
 10 11  1  0  0  0  0
 11 12  1  0  0  0  0
 12 13  1  0  0  0  0
 13 14  1  0  0  0  0
 14 15  1  0  0  0  0
 15 16  1  0  0  0  0
 16 17  1  0  0  0  0
 17 18  1  0  0  0  0
 17 22  1  0  0  0  0
 18 19  1  0  0  0  0
 19 20  1  0  0  0  0
 20 21  1  0  0  0  0
 20 23  1  0  0  0  0
 21 22  1  0  0  0  0
 23 24  1  0  0  0  0
 24 25  1  0  0  0  0
 25 26  1  0  0  0  0
 25 30  1  0  0  0  0
 26 27  1  0  0  0  0
 27 28  1  0  0  0  0
 28 29  1  0  0  0  0
 28 31  1  0  0  0  0
 29 30  1  0  0  0  0
 31 32  1  0  0  0  0
 32 33  1  0  0  0  0
 33 34  1  0  0  0  0
 34 35  1  0  0  0  0
 35 36  1  0  0  0  0
 36 37  1  0  0  0  0
 37 38  1  0  0  0  0
 38 39  1  0  0  0  0
 39 40  4  0  0  0  0
 39 44  4  0  0  0  0
 40 41  4  0  0  0  0
 41 42  4  0  0  0  0
 42 43  4  0  0  0  0
 43 44  4  0  0  0  0
 44 45  1  0  0  0  0
 45 46  1  0  0  0  0
M  END
>  <Name_Molregno>
391418

>  <Muscarinic acetylcholine receptor M1>
7.7

>  <Muscarinic acetylcholine receptor M2>
8.22

>  <Muscarinic acetylcholine receptor M3>
6.67

>  <Muscarinic acetylcholine receptor M4>
7.39

>  <Muscarinic acetylcholine receptor M5>
6.77

$$$$
406433
  Marvin  02231216192D 0   1.00000     0.00000     0

 14 14  0  0  0  0  0  0  0  0999 V2000
   -0.9653    1.4445    0.0000 O   0  0  0  0  0  0  0  0  0
   -1.2202    0.6599    0.0000 N   0  0  0  0  0  0  0  0  0
   -2.0452    0.6599    0.0000 C   0  0  0  0  0  0  0  0  0
   -2.5302   -0.0075    0.0000 O   0  0  0  0  0  0  0  0  0
   -2.1946   -0.7612    0.0000 C   0  0  0  0  0  0  0  0  0
   -2.6795   -1.4286    0.0000 C   0  0  0  0  0  0  0  0  0
   -3.1644   -2.0961    0.0000 C   0  0  0  0  0  0  0  0  0
   -3.6494   -2.7635    0.0000 C   0  0  0  0  0  0  0  0  0
   -3.3138   -3.5172    0.0000 N   0  0  0  0  0  0  0  0  0
   -3.7987   -4.1846    0.0000 C   0  0  0  0  0  0  0  0  0
   -2.4933   -3.6034    0.0000 C   0  0  0  0  0  0  0  0  0
   -2.3002    1.4445    0.0000 C   0  0  0  0  0  0  0  0  0
   -1.6327    1.9295    0.0000 C   0  0  0  0  0  0  0  0  0
   -1.6327    2.7545    0.0000 C   0  0  0  0  0  0  0  0  0
  1  2  4  0  0  0  0
  1 13  4  0  0  0  0
  2  3  4  0  0  0  0
  3  4  1  0  0  0  0
  3 12  4  0  0  0  0
  4  5  1  0  0  0  0
  5  6  1  0  0  0  0
  6  7  3  0  0  0  0
  7  8  1  0  0  0  0
  8  9  1  0  0  0  0
  9 10  1  0  0  0  0
  9 11  1  0  0  0  0
 12 13  4  0  0  0  0
 13 14  1  0  0  0  0
M  END
>  <Name_Molregno>
406433

>  <Muscarinic acetylcholine receptor M1>
5

>  <Muscarinic acetylcholine receptor M2>
5.42

>  <Muscarinic acetylcholine receptor M3>
5

>  <Muscarinic acetylcholine receptor M4>
5.96

>  <Muscarinic acetylcholine receptor M5>
5

$$$$
406451
  Marvin  02231216192D 0   1.00000     0.00000     0

 15 15  0  0  0  0  0  0  0  0999 V2000
   -1.0975    1.6332    0.0000 O   0  0  0  0  0  0  0  0  0
   -1.3524    0.8486    0.0000 N   0  0  0  0  0  0  0  0  0
   -2.1774    0.8486    0.0000 C   0  0  0  0  0  0  0  0  0
   -2.6623    0.1811    0.0000 O   0  0  0  0  0  0  0  0  0
   -2.3268   -0.5725    0.0000 C   0  0  0  0  0  0  0  0  0
   -2.8117   -1.2400    0.0000 C   0  0  0  0  0  0  0  0  0
   -3.2966   -1.9074    0.0000 C   0  0  0  0  0  0  0  0  0
   -3.7816   -2.5749    0.0000 C   0  0  0  0  0  0  0  0  0
   -3.4460   -3.3285    0.0000 N   0  3  0  0  0  0  0  0  0
   -3.1104   -4.0822    0.0000 C   0  0  0  0  0  0  0  0  0
   -2.6923   -2.9930    0.0000 C   0  0  0  0  0  0  0  0  0
   -4.1997   -3.6641    0.0000 C   0  0  0  0  0  0  0  0  0
   -2.4324    1.6332    0.0000 C   0  0  0  0  0  0  0  0  0
   -1.7649    2.1181    0.0000 C   0  0  0  0  0  0  0  0  0
   -1.7649    2.9431    0.0000 C   0  0  0  0  0  0  0  0  0
  1  2  4  0  0  0  0
  1 14  4  0  0  0  0
  2  3  4  0  0  0  0
  3  4  1  0  0  0  0
  3 13  4  0  0  0  0
  4  5  1  0  0  0  0
  5  6  1  0  0  0  0
  6  7  3  0  0  0  0
  7  8  1  0  0  0  0
  8  9  1  0  0  0  0
  9 10  1  0  0  0  0
  9 11  1  0  0  0  0
  9 12  1  0  0  0  0
 13 14  4  0  0  0  0
 14 15  1  0  0  0  0
M  CHG  1   9   1
M  END
>  <Name_Molregno>
406451

>  <Muscarinic acetylcholine receptor M1>
5

>  <Muscarinic acetylcholine receptor M2>
7.3

>  <Muscarinic acetylcholine receptor M3>
5.4

>  <Muscarinic acetylcholine receptor M4>
6.17

>  <Muscarinic acetylcholine receptor M5>
5.2

$$$$
406457
  Marvin  02231216192D 0   1.00000     0.00000     0

 17 18  0  0  0  0  0  0  0  0999 V2000
   -1.3625    2.9468    0.0000 O   0  0  0  0  0  0  0  0  0
   -1.6175    2.1622    0.0000 N   0  0  0  0  0  0  0  0  0
   -2.4425    2.1622    0.0000 C   0  0  0  0  0  0  0  0  0
   -2.9274    1.4947    0.0000 O   0  0  0  0  0  0  0  0  0
   -2.5918    0.7411    0.0000 C   0  0  0  0  0  0  0  0  0
   -3.0768    0.0736    0.0000 C   0  0  0  0  0  0  0  0  0
   -3.5617   -0.5938    0.0000 C   0  0  0  0  0  0  0  0  0
   -4.0466   -1.2612    0.0000 C   0  0  0  0  0  0  0  0  0
   -3.7111   -2.0149    0.0000 N   0  3  0  0  0  0  0  0  0
   -3.2261   -2.6824    0.0000 C   0  0  0  0  0  0  0  0  0
   -3.7111   -3.3498    0.0000 C   0  0  0  0  0  0  0  0  0
   -4.4957   -3.0949    0.0000 C   0  0  0  0  0  0  0  0  0
   -4.4957   -2.2699    0.0000 C   0  0  0  0  0  0  0  0  0
   -2.9966   -1.6024    0.0000 C   0  0  0  0  0  0  0  0  0
   -2.6974    2.9468    0.0000 C   0  0  0  0  0  0  0  0  0
   -2.0300    3.4317    0.0000 C   0  0  0  0  0  0  0  0  0
   -2.0300    4.2567    0.0000 C   0  0  0  0  0  0  0  0  0
  1  2  4  0  0  0  0
  1 16  4  0  0  0  0
  2  3  4  0  0  0  0
  3  4  1  0  0  0  0
  3 15  4  0  0  0  0
  4  5  1  0  0  0  0
  5  6  1  0  0  0  0
  6  7  3  0  0  0  0
  7  8  1  0  0  0  0
  8  9  1  0  0  0  0
  9 10  1  0  0  0  0
  9 13  1  0  0  0  0
  9 14  1  0  0  0  0
 10 11  1  0  0  0  0
 11 12  1  0  0  0  0
 12 13  1  0  0  0  0
 15 16  4  0  0  0  0
 16 17  1  0  0  0  0
M  CHG  1   9   1
M  END
>  <Name_Molregno>
406457

>  <Muscarinic acetylcholine receptor M1>
5.11

>  <Muscarinic acetylcholine receptor M2>
5.69

>  <Muscarinic acetylcholine receptor M3>
5.13

>  <Muscarinic acetylcholine receptor M4>
5.23

>  <Muscarinic acetylcholine receptor M5>
5.12

$$$$
406463
  Marvin  02231216192D 0   1.00000     0.00000     0

 21 23  0  0  0  0  0  0  0  0999 V2000
   -0.1549    0.2299    0.0000 O   0  0  0  0  0  0  0  0  0
   -0.4098   -0.5547    0.0000 N   0  0  0  0  0  0  0  0  0
   -1.2348   -0.5547    0.0000 C   0  0  0  0  0  0  0  0  0
   -1.7198   -1.2222    0.0000 O   0  0  0  0  0  0  0  0  0
   -1.3842   -1.9759    0.0000 C   0  0  0  0  0  0  0  0  0
   -1.8691   -2.6433    0.0000 C   0  0  0  0  0  0  0  0  0
   -2.3540   -3.3107    0.0000 C   0  0  0  0  0  0  0  0  0
   -2.8390   -3.9782    0.0000 C   0  0  0  0  0  0  0  0  0
   -2.5034   -4.7318    0.0000 N   0  0  0  0  0  0  0  0  0
   -1.6964   -4.9034    0.0000 C   0  0  0  0  0  0  0  0  0
   -1.6102   -5.7239    0.0000 C   0  0  0  0  0  0  0  0  0
   -2.3639   -6.0594    0.0000 C   0  0  0  0  0  0  0  0  0
   -2.9159   -5.4463    0.0000 C   0  0  0  0  0  0  0  0  0
   -1.4898    0.2299    0.0000 C   0  0  0  0  0  0  0  0  0
   -0.8223    0.7148    0.0000 C   0  0  0  0  0  0  0  0  0
   -0.8223    1.5398    0.0000 C   0  0  0  0  0  0  0  0  0
   -1.5368    1.9523    0.0000 C   0  0  0  0  0  0  0  0  0
   -1.5368    2.7773    0.0000 C   0  0  0  0  0  0  0  0  0
   -0.8223    3.1898    0.0000 C   0  0  0  0  0  0  0  0  0
   -0.1079    2.7773    0.0000 C   0  0  0  0  0  0  0  0  0
   -0.1079    1.9523    0.0000 C   0  0  0  0  0  0  0  0  0
  1  2  4  0  0  0  0
  1 15  4  0  0  0  0
  2  3  4  0  0  0  0
  3  4  1  0  0  0  0
  3 14  4  0  0  0  0
  4  5  1  0  0  0  0
  5  6  1  0  0  0  0
  6  7  3  0  0  0  0
  7  8  1  0  0  0  0
  8  9  1  0  0  0  0
  9 10  1  0  0  0  0
  9 13  1  0  0  0  0
 10 11  1  0  0  0  0
 11 12  1  0  0  0  0
 12 13  1  0  0  0  0
 14 15  4  0  0  0  0
 15 16  1  0  0  0  0
 16 17  4  0  0  0  0
 16 21  4  0  0  0  0
 17 18  4  0  0  0  0
 18 19  4  0  0  0  0
 19 20  4  0  0  0  0
 20 21  4  0  0  0  0
M  END
>  <Name_Molregno>
406463

>  <Muscarinic acetylcholine receptor M1>
5.21

>  <Muscarinic acetylcholine receptor M2>
5

>  <Muscarinic acetylcholine receptor M3>
5.4

>  <Muscarinic acetylcholine receptor M4>
5.26

>  <Muscarinic acetylcholine receptor M5>
5.16

$$$$
406466
  Marvin  02231216192D 0   1.00000     0.00000     0

 22 24  0  0  0  0  0  0  0  0999 V2000
   -0.4262    0.8627    0.0000 O   0  0  0  0  0  0  0  0  0
   -0.6812    0.0781    0.0000 N   0  0  0  0  0  0  0  0  0
   -1.5062    0.0781    0.0000 C   0  0  0  0  0  0  0  0  0
   -1.9911   -0.5894    0.0000 O   0  0  0  0  0  0  0  0  0
   -1.6555   -1.3430    0.0000 C   0  0  0  0  0  0  0  0  0
   -2.1404   -2.0105    0.0000 C   0  0  0  0  0  0  0  0  0
   -2.6254   -2.6779    0.0000 C   0  0  0  0  0  0  0  0  0
   -3.1103   -3.3454    0.0000 C   0  0  0  0  0  0  0  0  0
   -2.7747   -4.0990    0.0000 N   0  3  0  0  0  0  0  0  0
   -2.2898   -4.7665    0.0000 C   0  0  0  0  0  0  0  0  0
   -2.7747   -5.4339    0.0000 C   0  0  0  0  0  0  0  0  0
   -3.5594   -5.1790    0.0000 C   0  0  0  0  0  0  0  0  0
   -3.5594   -4.3540    0.0000 C   0  0  0  0  0  0  0  0  0
   -2.0603   -3.6865    0.0000 C   0  0  0  0  0  0  0  0  0
   -1.7611    0.8627    0.0000 C   0  0  0  0  0  0  0  0  0
   -1.0937    1.3476    0.0000 C   0  0  0  0  0  0  0  0  0
   -1.0937    2.1726    0.0000 C   0  0  0  0  0  0  0  0  0
   -1.8081    2.5851    0.0000 C   0  0  0  0  0  0  0  0  0
   -1.8081    3.4101    0.0000 C   0  0  0  0  0  0  0  0  0
   -1.0937    3.8226    0.0000 C   0  0  0  0  0  0  0  0  0
   -0.3792    3.4101    0.0000 C   0  0  0  0  0  0  0  0  0
   -0.3792    2.5851    0.0000 C   0  0  0  0  0  0  0  0  0
  1  2  4  0  0  0  0
  1 16  4  0  0  0  0
  2  3  4  0  0  0  0
  3  4  1  0  0  0  0
  3 15  4  0  0  0  0
  4  5  1  0  0  0  0
  5  6  1  0  0  0  0
  6  7  3  0  0  0  0
  7  8  1  0  0  0  0
  8  9  1  0  0  0  0
  9 10  1  0  0  0  0
  9 13  1  0  0  0  0
  9 14  1  0  0  0  0
 10 11  1  0  0  0  0
 11 12  1  0  0  0  0
 12 13  1  0  0  0  0
 15 16  4  0  0  0  0
 16 17  1  0  0  0  0
 17 18  4  0  0  0  0
 17 22  4  0  0  0  0
 18 19  4  0  0  0  0
 19 20  4  0  0  0  0
 20 21  4  0  0  0  0
 21 22  4  0  0  0  0
M  CHG  1   9   1
M  END
>  <Name_Molregno>
406466

>  <Muscarinic acetylcholine receptor M1>
5.47

>  <Muscarinic acetylcholine receptor M2>
5

>  <Muscarinic acetylcholine receptor M3>
5.84

>  <Muscarinic acetylcholine receptor M4>
5.22

>  <Muscarinic acetylcholine receptor M5>
5.74

$$$$
406478
  Marvin  02231216192D 0   1.00000     0.00000     0

 16 17  0  0  0  0  0  0  0  0999 V2000
    0.1631    0.3991    0.0000 O   0  0  0  0  0  0  0  0  0
   -0.0918    1.1837    0.0000 N   0  0  0  0  0  0  0  0  0
   -0.8764    1.4387    0.0000 C   0  0  0  0  0  0  0  0  0
   -1.4895    0.8866    0.0000 C   0  0  0  0  0  0  0  0  0
   -2.1026    0.3346    0.0000 C   0  0  0  0  0  0  0  0  0
   -2.7157   -0.2174    0.0000 C   0  0  0  0  0  0  0  0  0
   -3.5003    0.0375    0.0000 N   0  0  0  0  0  0  0  0  0
   -4.1134   -0.5145    0.0000 C   0  0  0  0  0  0  0  0  0
   -4.8980   -0.2596    0.0000 C   0  0  0  0  0  0  0  0  0
   -5.0696    0.5474    0.0000 C   0  0  0  0  0  0  0  0  0
   -4.4565    1.0994    0.0000 C   0  0  0  0  0  0  0  0  0
   -3.6719    0.8445    0.0000 C   0  0  0  0  0  0  0  0  0
    0.5756    1.6687    0.0000 C   0  0  0  0  0  0  0  0  0
    0.5756    2.4937    0.0000 O   0  0  0  0  0  0  0  0  0
    1.2431    1.1837    0.0000 C   0  0  0  0  0  0  0  0  0
    0.9881    0.3991    0.0000 C   0  0  0  0  0  0  0  0  0
  1  2  1  0  0  0  0
  1 16  1  0  0  0  0
  2  3  1  0  0  0  0
  2 13  1  0  0  0  0
  3  4  1  0  0  0  0
  4  5  3  0  0  0  0
  5  6  1  0  0  0  0
  6  7  1  0  0  0  0
  7  8  1  0  0  0  0
  7 12  1  0  0  0  0
  8  9  1  0  0  0  0
  9 10  1  0  0  0  0
 10 11  1  0  0  0  0
 11 12  1  0  0  0  0
 13 14  2  0  0  0  0
 13 15  1  0  0  0  0
 15 16  1  0  0  0  0
M  END
>  <Name_Molregno>
406478

>  <Muscarinic acetylcholine receptor M1>
6.09

>  <Muscarinic acetylcholine receptor M2>
7.4

>  <Muscarinic acetylcholine receptor M3>
6.27

>  <Muscarinic acetylcholine receptor M4>
6.1

>  <Muscarinic acetylcholine receptor M5>
6.26

$$$$
406497
  Marvin  02231216192D 0   1.00000     0.00000     0

 16 17  0  0  0  0  0  0  0  0999 V2000
    2.1985   -3.6331    0.0000 O   0  0  0  0  0  0  0  0  0
    1.9435   -2.8485    0.0000 N   0  0  0  0  0  0  0  0  0
    2.6110   -2.3636    0.0000 C   0  0  0  0  0  0  0  0  0
    2.6110   -1.5386    0.0000 O   0  0  0  0  0  0  0  0  0
    3.3254   -1.1261    0.0000 C   0  0  0  0  0  0  0  0  0
    3.3254   -0.3011    0.0000 C   0  0  0  0  0  0  0  0  0
    3.3254    0.5239    0.0000 C   0  0  0  0  0  0  0  0  0
    3.3254    1.3489    0.0000 C   0  0  0  0  0  0  0  0  0
    4.0399    1.7614    0.0000 N   0  0  0  0  0  0  0  0  0
    4.0399    2.5864    0.0000 C   0  0  0  0  0  0  0  0  0
    4.7544    2.9989    0.0000 C   0  0  0  0  0  0  0  0  0
    5.4689    2.5864    0.0000 C   0  0  0  0  0  0  0  0  0
    5.4689    1.7614    0.0000 C   0  0  0  0  0  0  0  0  0
    4.7544    1.3489    0.0000 C   0  0  0  0  0  0  0  0  0
    3.2784   -2.8485    0.0000 C   0  0  0  0  0  0  0  0  0
    3.0235   -3.6331    0.0000 C   0  0  0  0  0  0  0  0  0
  1  2  1  0  0  0  0
  1 16  1  0  0  0  0
  2  3  2  0  0  0  0
  3  4  1  0  0  0  0
  3 15  1  0  0  0  0
  4  5  1  0  0  0  0
  5  6  1  0  0  0  0
  6  7  3  0  0  0  0
  7  8  1  0  0  0  0
  8  9  1  0  0  0  0
  9 10  1  0  0  0  0
  9 14  1  0  0  0  0
 10 11  1  0  0  0  0
 11 12  1  0  0  0  0
 12 13  1  0  0  0  0
 13 14  1  0  0  0  0
 15 16  1  0  0  0  0
M  END
>  <Name_Molregno>
406497

>  <Muscarinic acetylcholine receptor M1>
5.34

>  <Muscarinic acetylcholine receptor M2>
6.06

>  <Muscarinic acetylcholine receptor M3>
5.41

>  <Muscarinic acetylcholine receptor M4>
5.22

>  <Muscarinic acetylcholine receptor M5>
5.29

$$$$
406499
  Marvin  02231216192D 0   1.00000     0.00000     0

 17 18  0  0  0  0  0  0  0  0999 V2000
    4.0538   -3.8855    0.0000 O   0  0  0  0  0  0  0  0  0
    3.7988   -3.1009    0.0000 N   0  0  0  0  0  0  0  0  0
    4.4663   -2.6159    0.0000 C   0  0  0  0  0  0  0  0  0
    4.4663   -1.7909    0.0000 O   0  0  0  0  0  0  0  0  0
    3.7518   -1.3784    0.0000 C   0  0  0  0  0  0  0  0  0
    3.7518   -0.5534    0.0000 C   0  0  0  0  0  0  0  0  0
    3.7518    0.2716    0.0000 C   0  0  0  0  0  0  0  0  0
    3.7518    1.0966    0.0000 C   0  0  0  0  0  0  0  0  0
    3.0373    1.5091    0.0000 N   0  3  0  0  0  0  0  0  0
    2.2249    1.6523    0.0000 C   0  0  0  0  0  0  0  0  0
    1.9427    2.4276    0.0000 C   0  0  0  0  0  0  0  0  0
    2.4730    3.0595    0.0000 C   0  0  0  0  0  0  0  0  0
    3.2855    2.9163    0.0000 C   0  0  0  0  0  0  0  0  0
    3.5676    2.1410    0.0000 C   0  0  0  0  0  0  0  0  0
    2.7552    0.7338    0.0000 C   0  0  0  0  0  0  0  0  0
    5.1337   -3.1009    0.0000 C   0  0  0  0  0  0  0  0  0
    4.8788   -3.8855    0.0000 C   0  0  0  0  0  0  0  0  0
  1  2  1  0  0  0  0
  1 17  1  0  0  0  0
  2  3  2  0  0  0  0
  3  4  1  0  0  0  0
  3 16  1  0  0  0  0
  4  5  1  0  0  0  0
  5  6  1  0  0  0  0
  6  7  3  0  0  0  0
  7  8  1  0  0  0  0
  8  9  1  0  0  0  0
  9 10  1  0  0  0  0
  9 14  1  0  0  0  0
  9 15  1  0  0  0  0
 10 11  1  0  0  0  0
 11 12  1  0  0  0  0
 12 13  1  0  0  0  0
 13 14  1  0  0  0  0
 16 17  1  0  0  0  0
M  CHG  1   9   1
M  END
>  <Name_Molregno>
406499

>  <Muscarinic acetylcholine receptor M1>
5.13

>  <Muscarinic acetylcholine receptor M2>
6.66

>  <Muscarinic acetylcholine receptor M3>
5.32

>  <Muscarinic acetylcholine receptor M4>
5.77

>  <Muscarinic acetylcholine receptor M5>
5.39

$$$$
406503
  Marvin  02231216192D 0   1.00000     0.00000     0

 20 22  0  0  1  0  0  0  0  0999 V2000
    2.6906    3.9041    0.0000 O   0  0  0  0  0  0  0  0  0
    3.3581    3.4192    0.0000 N   0  0  0  0  0  0  0  0  0
    3.1031    2.6345    0.0000 C   0  0  0  0  0  0  0  0  0
    3.5881    1.9671    0.0000 O   0  0  0  0  0  0  0  0  0
    3.2525    1.2134    0.0000 C   0  0  0  0  0  0  0  0  0
    3.7374    0.5460    0.0000 C   0  0  0  0  0  0  0  0  0
    4.2223   -0.1215    0.0000 C   0  0  0  0  0  0  0  0  0
    4.7073   -0.7889    0.0000 C   0  0  0  0  0  0  0  0  0
    4.3717   -1.5426    0.0000 N   0  3  0  0  0  0  0  0  0
    3.8868   -2.2100    0.0000 C   0  0  0  0  0  0  0  0  0
    4.3717   -2.8775    0.0000 C   0  0  0  0  0  0  0  0  0
    5.1563   -2.6225    0.0000 C   0  0  0  0  0  0  0  0  0
    5.1563   -1.7975    0.0000 C   0  0  0  0  0  0  0  0  0
    5.8708   -1.3850    0.0000 C   0  0  0  0  0  0  0  0  0
    6.5853   -1.7975    0.0000 C   0  0  0  0  0  0  0  0  0
    6.5853   -2.6225    0.0000 C   0  0  0  0  0  0  0  0  0
    5.8708   -3.0350    0.0000 C   0  0  0  0  0  0  0  0  0
    3.6572   -1.1301    0.0000 C   0  0  0  0  0  0  0  0  0
    2.2781    2.6345    0.0000 C   0  0  0  0  0  0  0  0  0
    2.0232    3.4192    0.0000 C   0  0  0  0  0  0  0  0  0
  1  2  1  0  0  0  0
  1 20  1  0  0  0  0
  2  3  2  0  0  0  0
  3  4  1  0  0  0  0
  3 19  1  0  0  0  0
  4  5  1  0  0  0  0
  5  6  1  0  0  0  0
  6  7  3  0  0  0  0
  7  8  1  0  0  0  0
  8  9  1  0  0  0  0
  9 10  1  0  0  0  0
  9 13  1  0  0  0  0
  9 18  1  0  0  0  0
 10 11  1  0  0  0  0
 11 12  1  0  0  0  0
 12 13  4  0  0  0  0
 12 17  4  0  0  0  0
 13 14  4  0  0  0  0
 14 15  4  0  0  0  0
 15 16  4  0  0  0  0
 16 17  4  0  0  0  0
 19 20  1  0  0  0  0
M  CHG  1   9   1
M  END
>  <Name_Molregno>
406503

>  <Muscarinic acetylcholine receptor M1>
5

>  <Muscarinic acetylcholine receptor M2>
5.39

>  <Muscarinic acetylcholine receptor M3>
5.26

>  <Muscarinic acetylcholine receptor M4>
5

>  <Muscarinic acetylcholine receptor M5>
5

$$$$
406507
  Marvin  02231216192D 0   1.00000     0.00000     0

 21 23  0  0  1  0  0  0  0  0999 V2000
    5.6851    2.8110    0.0000 O   0  0  0  0  0  0  0  0  0
    5.3761    2.0460    0.0000 N   0  0  0  0  0  0  0  0  0
    4.5531    2.1036    0.0000 C   0  0  0  0  0  0  0  0  0
    4.0228    1.4716    0.0000 O   0  0  0  0  0  0  0  0  0
    4.3049    0.6963    0.0000 C   0  0  0  0  0  0  0  0  0
    3.7746    0.0644    0.0000 C   0  0  0  0  0  0  0  0  0
    3.2443   -0.5676    0.0000 C   0  0  0  0  0  0  0  0  0
    2.7140   -1.1996    0.0000 C   0  0  0  0  0  0  0  0  0
    2.9962   -1.9749    0.0000 N   0  3  0  0  0  0  0  0  0
    2.9962   -2.7999    0.0000 C   0  0  0  0  0  0  0  0  0
    3.7107   -3.2124    0.0000 C   0  0  0  0  0  0  0  0  0
    4.4251   -2.7999    0.0000 C   0  0  0  0  0  0  0  0  0
    4.4251   -1.9749    0.0000 C   0  0  0  0  0  0  0  0  0
    3.7107   -1.5624    0.0000 C   0  0  0  0  0  0  0  0  0
    5.1396   -1.5624    0.0000 C   0  0  0  0  0  0  0  0  0
    5.8541   -1.9749    0.0000 C   0  0  0  0  0  0  0  0  0
    5.8541   -2.7999    0.0000 C   0  0  0  0  0  0  0  0  0
    5.1396   -3.2124    0.0000 C   0  0  0  0  0  0  0  0  0
    2.1837   -2.1181    0.0000 C   0  0  0  0  0  0  0  0  0
    4.3535    2.9041    0.0000 C   0  0  0  0  0  0  0  0  0
    5.0531    3.3413    0.0000 C   0  0  0  0  0  0  0  0  0
  1  2  1  0  0  0  0
  1 21  1  0  0  0  0
  2  3  2  0  0  0  0
  3  4  1  0  0  0  0
  3 20  1  0  0  0  0
  4  5  1  0  0  0  0
  5  6  1  0  0  0  0
  6  7  3  0  0  0  0
  7  8  1  0  0  0  0
  8  9  1  0  0  0  0
  9 10  1  0  0  0  0
  9 14  1  0  0  0  0
  9 19  1  0  0  0  0
 10 11  1  0  0  0  0
 11 12  1  0  0  0  0
 12 13  4  0  0  0  0
 12 18  4  0  0  0  0
 13 14  1  0  0  0  0
 13 15  4  0  0  0  0
 15 16  4  0  0  0  0
 16 17  4  0  0  0  0
 17 18  4  0  0  0  0
 20 21  1  0  0  0  0
M  CHG  1   9   1
M  END
>  <Name_Molregno>
406507

>  <Muscarinic acetylcholine receptor M1>
5.16

>  <Muscarinic acetylcholine receptor M2>
6.32

>  <Muscarinic acetylcholine receptor M3>
6.05

>  <Muscarinic acetylcholine receptor M4>
5.64

>  <Muscarinic acetylcholine receptor M5>
5.25

$$$$
425693
  Marvin  02231216192D 0   1.00000     0.00000     0

 32 35  0  0  0  0  0  0  0  0999 V2000
    0.2609    1.7936    0.0000 O   0  0  0  0  0  0  0  0  0
    1.0362    1.5114    0.0000 C   0  0  0  0  0  0  0  0  0
    0.7540    0.7361    0.0000 C   0  0  0  0  0  0  0  0  0
    1.2843    0.1042    0.0000 C   0  0  0  0  0  0  0  0  0
    1.0021   -0.6711    0.0000 C   0  0  0  0  0  0  0  0  0
    1.5324   -1.3031    0.0000 N   0  3  0  0  0  0  0  0  0
    2.2469   -1.7156    0.0000 C   0  0  0  0  0  0  0  0  0
    2.2469   -2.5406    0.0000 C   0  0  0  0  0  0  0  0  0
    1.5324   -2.9531    0.0000 C   0  0  0  0  0  0  0  0  0
    0.8179   -2.5406    0.0000 C   0  0  0  0  0  0  0  0  0
    0.8179   -1.7156    0.0000 C   0  0  0  0  0  0  0  0  0
    1.5324   -3.7781    0.0000 C   0  0  0  0  0  0  0  0  0
    2.2469   -4.1906    0.0000 C   0  0  0  0  0  0  0  0  0
    2.2469   -5.0156    0.0000 C   0  0  0  0  0  0  0  0  0
    1.5324   -5.4281    0.0000 N   0  3  0  0  0  0  0  0  0
    0.8179   -5.0156    0.0000 C   0  0  0  0  0  0  0  0  0
    0.8179   -4.1906    0.0000 C   0  0  0  0  0  0  0  0  0
    1.9197   -6.1565    0.0000 C   0  0  0  0  0  0  0  0  0
    1.1451   -6.1565    0.0000 C   0  0  0  0  0  0  0  0  0
    2.0627   -0.6711    0.0000 C   0  0  0  0  0  0  0  0  0
    1.3183    2.2866    0.0000 C   0  0  0  0  0  0  0  0  0
    0.7880    2.9186    0.0000 C   0  0  0  0  0  0  0  0  0
    1.0702    3.6939    0.0000 C   0  0  0  0  0  0  0  0  0
    1.8827    3.8371    0.0000 C   0  0  0  0  0  0  0  0  0
    2.4130    3.2051    0.0000 C   0  0  0  0  0  0  0  0  0
    2.1308    2.4299    0.0000 C   0  0  0  0  0  0  0  0  0
    1.8114    1.2292    0.0000 C   0  0  0  0  0  0  0  0  0
    2.4434    1.7595    0.0000 C   0  0  0  0  0  0  0  0  0
    3.2186    1.4774    0.0000 C   0  0  0  0  0  0  0  0  0
    3.3619    0.6649    0.0000 C   0  0  0  0  0  0  0  0  0
    2.7299    0.1346    0.0000 C   0  0  0  0  0  0  0  0  0
    1.9547    0.4168    0.0000 C   0  0  0  0  0  0  0  0  0
  1  2  1  0  0  0  0
  2  3  1  0  0  0  0
  2 21  1  0  0  0  0
  2 27  1  0  0  0  0
  3  4  1  0  0  0  0
  4  5  1  0  0  0  0
  5  6  1  0  0  0  0
  6  7  1  0  0  0  0
  6 11  1  0  0  0  0
  6 20  1  0  0  0  0
  7  8  1  0  0  0  0
  8  9  1  0  0  0  0
  9 10  1  0  0  0  0
  9 12  1  0  0  0  0
 10 11  1  0  0  0  0
 12 13  1  0  0  0  0
 12 17  1  0  0  0  0
 13 14  1  0  0  0  0
 14 15  1  0  0  0  0
 15 16  1  0  0  0  0
 15 18  1  0  0  0  0
 15 19  1  0  0  0  0
 16 17  1  0  0  0  0
 21 22  4  0  0  0  0
 21 26  4  0  0  0  0
 22 23  4  0  0  0  0
 23 24  4  0  0  0  0
 24 25  4  0  0  0  0
 25 26  4  0  0  0  0
 27 28  4  0  0  0  0
 27 32  4  0  0  0  0
 28 29  4  0  0  0  0
 29 30  4  0  0  0  0
 30 31  4  0  0  0  0
 31 32  4  0  0  0  0
M  CHG  2   6   1  15   1
M  END
>  <Name_Molregno>
425693

>  <Muscarinic acetylcholine receptor M1>
5.08

>  <Muscarinic acetylcholine receptor M2>
5.36

>  <Muscarinic acetylcholine receptor M3>
5.44

>  <Muscarinic acetylcholine receptor M4>
5.57

>  <Muscarinic acetylcholine receptor M5>
4.59

$$$$
425695
  Marvin  02231216192D 0   1.00000     0.00000     0

 48 53  0  0  0  0  0  0  0  0999 V2000
   -6.7225    3.6173    0.0000 O   0  0  0  0  0  0  0  0  0
   -5.9472    3.3351    0.0000 C   0  0  0  0  0  0  0  0  0
   -6.2294    2.5599    0.0000 C   0  0  0  0  0  0  0  0  0
   -5.6991    1.9279    0.0000 C   0  0  0  0  0  0  0  0  0
   -5.9813    1.1527    0.0000 C   0  0  0  0  0  0  0  0  0
   -5.4510    0.5207    0.0000 N   0  3  0  0  0  0  0  0  0
   -4.7365    0.1082    0.0000 C   0  0  0  0  0  0  0  0  0
   -4.7365   -0.7168    0.0000 C   0  0  0  0  0  0  0  0  0
   -5.4510   -1.1293    0.0000 C   0  0  0  0  0  0  0  0  0
   -6.1654   -0.7168    0.0000 C   0  0  0  0  0  0  0  0  0
   -6.1654    0.1082    0.0000 C   0  0  0  0  0  0  0  0  0
   -5.4510   -1.9543    0.0000 C   0  0  0  0  0  0  0  0  0
   -4.7365   -2.3668    0.0000 C   0  0  0  0  0  0  0  0  0
   -4.7365   -3.1918    0.0000 C   0  0  0  0  0  0  0  0  0
   -5.4510   -3.6043    0.0000 N   0  3  0  0  0  0  0  0  0
   -6.1654   -3.1918    0.0000 C   0  0  0  0  0  0  0  0  0
   -6.1654   -2.3668    0.0000 C   0  0  0  0  0  0  0  0  0
   -5.0636   -4.3327    0.0000 C   0  0  0  0  0  0  0  0  0
   -4.2391   -4.3615    0.0000 C   0  0  0  0  0  0  0  0  0
   -3.8518   -5.0900    0.0000 C   0  0  0  0  0  0  0  0  0
   -3.0273   -5.1188    0.0000 C   0  0  0  0  0  0  0  0  0
   -3.0561   -5.9433    0.0000 O   0  0  0  0  0  0  0  0  0
   -2.2028   -5.1476    0.0000 C   0  0  0  0  0  0  0  0  0
   -1.7657   -4.4479    0.0000 C   0  0  0  0  0  0  0  0  0
   -0.9412   -4.4767    0.0000 C   0  0  0  0  0  0  0  0  0
   -0.5538   -5.2051    0.0000 C   0  0  0  0  0  0  0  0  0
   -0.9910   -5.9048    0.0000 C   0  0  0  0  0  0  0  0  0
   -1.8155   -5.8760    0.0000 C   0  0  0  0  0  0  0  0  0
   -2.9985   -4.2943    0.0000 C   0  0  0  0  0  0  0  0  0
   -3.6982   -3.8571    0.0000 C   0  0  0  0  0  0  0  0  0
   -3.6694   -3.0326    0.0000 C   0  0  0  0  0  0  0  0  0
   -2.9410   -2.6453    0.0000 C   0  0  0  0  0  0  0  0  0
   -2.2413   -3.0825    0.0000 C   0  0  0  0  0  0  0  0  0
   -2.2701   -3.9070    0.0000 C   0  0  0  0  0  0  0  0  0
   -5.8383   -4.3327    0.0000 C   0  0  0  0  0  0  0  0  0
   -4.9207    1.1527    0.0000 C   0  0  0  0  0  0  0  0  0
   -5.6651    4.1104    0.0000 C   0  0  0  0  0  0  0  0  0
   -6.1954    4.7424    0.0000 C   0  0  0  0  0  0  0  0  0
   -5.9132    5.5176    0.0000 C   0  0  0  0  0  0  0  0  0
   -5.1007    5.6609    0.0000 C   0  0  0  0  0  0  0  0  0
   -4.5704    5.0289    0.0000 C   0  0  0  0  0  0  0  0  0
   -4.8526    4.2537    0.0000 C   0  0  0  0  0  0  0  0  0
   -5.1720    3.0530    0.0000 C   0  0  0  0  0  0  0  0  0
   -4.5400    3.5833    0.0000 C   0  0  0  0  0  0  0  0  0
   -3.7647    3.3011    0.0000 C   0  0  0  0  0  0  0  0  0
   -3.6215    2.4886    0.0000 C   0  0  0  0  0  0  0  0  0
   -4.2535    1.9583    0.0000 C   0  0  0  0  0  0  0  0  0
   -5.0287    2.2405    0.0000 C   0  0  0  0  0  0  0  0  0
  1  2  1  0  0  0  0
  2  3  1  0  0  0  0
  2 37  1  0  0  0  0
  2 43  1  0  0  0  0
  3  4  1  0  0  0  0
  4  5  1  0  0  0  0
  5  6  1  0  0  0  0
  6  7  1  0  0  0  0
  6 11  1  0  0  0  0
  6 36  1  0  0  0  0
  7  8  1  0  0  0  0
  8  9  1  0  0  0  0
  9 10  1  0  0  0  0
  9 12  1  0  0  0  0
 10 11  1  0  0  0  0
 12 13  1  0  0  0  0
 12 17  1  0  0  0  0
 13 14  1  0  0  0  0
 14 15  1  0  0  0  0
 15 16  1  0  0  0  0
 15 18  1  0  0  0  0
 15 35  1  0  0  0  0
 16 17  1  0  0  0  0
 18 19  1  0  0  0  0
 19 20  1  0  0  0  0
 20 21  1  0  0  0  0
 21 22  1  0  0  0  0
 21 23  1  0  0  0  0
 21 29  1  0  0  0  0
 23 24  4  0  0  0  0
 23 28  4  0  0  0  0
 24 25  4  0  0  0  0
 25 26  4  0  0  0  0
 26 27  4  0  0  0  0
 27 28  4  0  0  0  0
 29 30  4  0  0  0  0
 29 34  4  0  0  0  0
 30 31  4  0  0  0  0
 31 32  4  0  0  0  0
 32 33  4  0  0  0  0
 33 34  4  0  0  0  0
 37 38  4  0  0  0  0
 37 42  4  0  0  0  0
 38 39  4  0  0  0  0
 39 40  4  0  0  0  0
 40 41  4  0  0  0  0
 41 42  4  0  0  0  0
 43 44  4  0  0  0  0
 43 48  4  0  0  0  0
 44 45  4  0  0  0  0
 45 46  4  0  0  0  0
 46 47  4  0  0  0  0
 47 48  4  0  0  0  0
M  CHG  2   6   1  15   1
M  END
>  <Name_Molregno>
425695

>  <Muscarinic acetylcholine receptor M1>
6.22

>  <Muscarinic acetylcholine receptor M2>
6.44

>  <Muscarinic acetylcholine receptor M3>
6.43

>  <Muscarinic acetylcholine receptor M4>
7.9

>  <Muscarinic acetylcholine receptor M5>
6.23

$$$$
425696
  Marvin  02231216192D 0   1.00000     0.00000     0

 30 33  0  0  0  0  0  0  0  0999 V2000
   -1.3539    2.3076    0.0000 O   0  0  0  0  0  0  0  0  0
   -0.9414    1.5931    0.0000 C   0  0  0  0  0  0  0  0  0
   -1.6558    1.1806    0.0000 C   0  0  0  0  0  0  0  0  0
   -1.6558    0.3556    0.0000 C   0  0  0  0  0  0  0  0  0
   -2.3703   -0.0569    0.0000 C   0  0  0  0  0  0  0  0  0
   -2.3703   -0.8819    0.0000 N   0  0  0  0  0  0  0  0  0
   -1.6558   -1.2944    0.0000 C   0  0  0  0  0  0  0  0  0
   -1.6558   -2.1194    0.0000 C   0  0  0  0  0  0  0  0  0
   -2.3703   -2.5319    0.0000 C   0  0  0  0  0  0  0  0  0
   -3.0848   -2.1194    0.0000 C   0  0  0  0  0  0  0  0  0
   -3.0848   -1.2944    0.0000 C   0  0  0  0  0  0  0  0  0
   -2.3703   -3.3569    0.0000 C   0  0  0  0  0  0  0  0  0
   -1.6558   -3.7694    0.0000 C   0  0  0  0  0  0  0  0  0
   -1.6558   -4.5944    0.0000 C   0  0  0  0  0  0  0  0  0
   -2.3703   -5.0069    0.0000 N   0  0  0  0  0  0  0  0  0
   -3.0848   -4.5944    0.0000 C   0  0  0  0  0  0  0  0  0
   -3.0848   -3.7694    0.0000 C   0  0  0  0  0  0  0  0  0
   -2.3703   -5.8319    0.0000 C   0  0  0  0  0  0  0  0  0
   -0.2269    2.0056    0.0000 C   0  0  0  0  0  0  0  0  0
   -0.2269    2.8306    0.0000 C   0  0  0  0  0  0  0  0  0
    0.4876    3.2431    0.0000 C   0  0  0  0  0  0  0  0  0
    1.2020    2.8306    0.0000 C   0  0  0  0  0  0  0  0  0
    1.2020    2.0056    0.0000 C   0  0  0  0  0  0  0  0  0
    0.4876    1.5931    0.0000 C   0  0  0  0  0  0  0  0  0
   -0.5289    0.8786    0.0000 C   0  0  0  0  0  0  0  0  0
    0.2961    0.8786    0.0000 C   0  0  0  0  0  0  0  0  0
    0.7086    0.1641    0.0000 C   0  0  0  0  0  0  0  0  0
    0.2961   -0.5503    0.0000 C   0  0  0  0  0  0  0  0  0
   -0.5289   -0.5503    0.0000 C   0  0  0  0  0  0  0  0  0
   -0.9414    0.1641    0.0000 C   0  0  0  0  0  0  0  0  0
  1  2  1  0  0  0  0
  2  3  1  0  0  0  0
  2 19  1  0  0  0  0
  2 25  1  0  0  0  0
  3  4  1  0  0  0  0
  4  5  1  0  0  0  0
  5  6  1  0  0  0  0
  6  7  1  0  0  0  0
  6 11  1  0  0  0  0
  7  8  1  0  0  0  0
  8  9  1  0  0  0  0
  9 10  1  0  0  0  0
  9 12  1  0  0  0  0
 10 11  1  0  0  0  0
 12 13  1  0  0  0  0
 12 17  1  0  0  0  0
 13 14  1  0  0  0  0
 14 15  1  0  0  0  0
 15 16  1  0  0  0  0
 15 18  1  0  0  0  0
 16 17  1  0  0  0  0
 19 20  4  0  0  0  0
 19 24  4  0  0  0  0
 20 21  4  0  0  0  0
 21 22  4  0  0  0  0
 22 23  4  0  0  0  0
 23 24  4  0  0  0  0
 25 26  4  0  0  0  0
 25 30  4  0  0  0  0
 26 27  4  0  0  0  0
 27 28  4  0  0  0  0
 28 29  4  0  0  0  0
 29 30  4  0  0  0  0
M  END
>  <Name_Molregno>
425696

>  <Muscarinic acetylcholine receptor M1>
5.24

>  <Muscarinic acetylcholine receptor M2>
5.4

>  <Muscarinic acetylcholine receptor M3>
5.28

>  <Muscarinic acetylcholine receptor M4>
5.93

>  <Muscarinic acetylcholine receptor M5>
5.54

$$$$
425743
  Marvin  02231216192D 0   1.00000     0.00000     0

 41 44  0  0  0  0  0  0  0  0999 V2000
   -8.1357   -2.7559    0.0000 O   0  0  0  0  0  0  0  0  0
   -7.7232   -2.0414    0.0000 C   0  0  0  0  0  0  0  0  0
   -7.0087   -2.4539    0.0000 C   0  0  0  0  0  0  0  0  0
   -6.2942   -2.0414    0.0000 C   0  0  0  0  0  0  0  0  0
   -5.5798   -2.4539    0.0000 C   0  0  0  0  0  0  0  0  0
   -4.8653   -2.0414    0.0000 N   0  0  0  0  0  0  0  0  0
   -4.1508   -2.4539    0.0000 C   0  0  0  0  0  0  0  0  0
   -3.4363   -2.0414    0.0000 C   0  0  0  0  0  0  0  0  0
   -2.7219   -2.4539    0.0000 C   0  0  0  0  0  0  0  0  0
   -2.0074   -2.0414    0.0000 N   0  0  0  0  0  0  0  0  0
   -1.2929   -2.4539    0.0000 C   0  0  0  0  0  0  0  0  0
   -0.5785   -2.0414    0.0000 C   0  0  0  0  0  0  0  0  0
    0.1360   -2.4539    0.0000 C   0  0  0  0  0  0  0  0  0
    0.8505   -2.0414    0.0000 C   0  0  0  0  0  0  0  0  0
    1.2630   -2.7559    0.0000 O   0  0  0  0  0  0  0  0  0
    1.5650   -1.6289    0.0000 C   0  0  0  0  0  0  0  0  0
    1.5650   -0.8039    0.0000 C   0  0  0  0  0  0  0  0  0
    2.2794   -0.3914    0.0000 C   0  0  0  0  0  0  0  0  0
    2.9939   -0.8039    0.0000 C   0  0  0  0  0  0  0  0  0
    2.9939   -1.6289    0.0000 C   0  0  0  0  0  0  0  0  0
    2.2794   -2.0414    0.0000 C   0  0  0  0  0  0  0  0  0
    0.4380   -1.3269    0.0000 C   0  0  0  0  0  0  0  0  0
   -0.3870   -1.3269    0.0000 C   0  0  0  0  0  0  0  0  0
   -0.7995   -0.6125    0.0000 C   0  0  0  0  0  0  0  0  0
   -0.3870    0.1020    0.0000 C   0  0  0  0  0  0  0  0  0
    0.4380    0.1020    0.0000 C   0  0  0  0  0  0  0  0  0
    0.8505   -0.6125    0.0000 C   0  0  0  0  0  0  0  0  0
   -2.0074   -1.2164    0.0000 C   0  0  0  0  0  0  0  0  0
   -4.8653   -1.2164    0.0000 C   0  0  0  0  0  0  0  0  0
   -8.4376   -1.6289    0.0000 C   0  0  0  0  0  0  0  0  0
   -9.1521   -2.0414    0.0000 C   0  0  0  0  0  0  0  0  0
   -9.8666   -1.6289    0.0000 C   0  0  0  0  0  0  0  0  0
   -9.8666   -0.8039    0.0000 C   0  0  0  0  0  0  0  0  0
   -9.1521   -0.3914    0.0000 C   0  0  0  0  0  0  0  0  0
   -8.4376   -0.8039    0.0000 C   0  0  0  0  0  0  0  0  0
   -7.3107   -1.3269    0.0000 C   0  0  0  0  0  0  0  0  0
   -7.7232   -0.6125    0.0000 C   0  0  0  0  0  0  0  0  0
   -7.3107    0.1020    0.0000 C   0  0  0  0  0  0  0  0  0
   -6.4857    0.1020    0.0000 C   0  0  0  0  0  0  0  0  0
   -6.0732   -0.6125    0.0000 C   0  0  0  0  0  0  0  0  0
   -6.4857   -1.3269    0.0000 C   0  0  0  0  0  0  0  0  0
  1  2  1  0  0  0  0
  2  3  1  0  0  0  0
  2 30  1  0  0  0  0
  2 36  1  0  0  0  0
  3  4  1  0  0  0  0
  4  5  1  0  0  0  0
  5  6  1  0  0  0  0
  6  7  1  0  0  0  0
  6 29  1  0  0  0  0
  7  8  1  0  0  0  0
  8  9  1  0  0  0  0
  9 10  1  0  0  0  0
 10 11  1  0  0  0  0
 10 28  1  0  0  0  0
 11 12  1  0  0  0  0
 12 13  1  0  0  0  0
 13 14  1  0  0  0  0
 14 15  1  0  0  0  0
 14 16  1  0  0  0  0
 14 22  1  0  0  0  0
 16 17  4  0  0  0  0
 16 21  4  0  0  0  0
 17 18  4  0  0  0  0
 18 19  4  0  0  0  0
 19 20  4  0  0  0  0
 20 21  4  0  0  0  0
 22 23  4  0  0  0  0
 22 27  4  0  0  0  0
 23 24  4  0  0  0  0
 24 25  4  0  0  0  0
 25 26  4  0  0  0  0
 26 27  4  0  0  0  0
 30 31  4  0  0  0  0
 30 35  4  0  0  0  0
 31 32  4  0  0  0  0
 32 33  4  0  0  0  0
 33 34  4  0  0  0  0
 34 35  4  0  0  0  0
 36 37  4  0  0  0  0
 36 41  4  0  0  0  0
 37 38  4  0  0  0  0
 38 39  4  0  0  0  0
 39 40  4  0  0  0  0
 40 41  4  0  0  0  0
M  END
>  <Name_Molregno>
425743

>  <Muscarinic acetylcholine receptor M1>
5.87

>  <Muscarinic acetylcholine receptor M2>
5.26

>  <Muscarinic acetylcholine receptor M3>
5.76

>  <Muscarinic acetylcholine receptor M4>
6.21

>  <Muscarinic acetylcholine receptor M5>
6.08

$$$$
425744
  Marvin  02231216192D 0   1.00000     0.00000     0

 43 46  0  0  0  0  0  0  0  0999 V2000
   -8.5157   -2.0509    0.0000 O   0  0  0  0  0  0  0  0  0
   -8.1032   -1.3364    0.0000 C   0  0  0  0  0  0  0  0  0
   -7.3887   -1.7489    0.0000 C   0  0  0  0  0  0  0  0  0
   -6.6742   -1.3364    0.0000 C   0  0  0  0  0  0  0  0  0
   -5.9598   -1.7489    0.0000 C   0  0  0  0  0  0  0  0  0
   -5.2453   -1.3364    0.0000 N   0  3  0  0  0  0  0  0  0
   -4.5308   -0.9239    0.0000 C   0  0  0  0  0  0  0  0  0
   -3.8163   -1.3364    0.0000 C   0  0  0  0  0  0  0  0  0
   -3.1019   -0.9239    0.0000 C   0  0  0  0  0  0  0  0  0
   -2.3874   -1.3364    0.0000 N   0  3  0  0  0  0  0  0  0
   -1.6729   -1.7489    0.0000 C   0  0  0  0  0  0  0  0  0
   -0.9585   -1.3364    0.0000 C   0  0  0  0  0  0  0  0  0
   -0.2440   -1.7489    0.0000 C   0  0  0  0  0  0  0  0  0
    0.4705   -1.3364    0.0000 C   0  0  0  0  0  0  0  0  0
    0.8830   -2.0509    0.0000 O   0  0  0  0  0  0  0  0  0
    1.1850   -0.9239    0.0000 C   0  0  0  0  0  0  0  0  0
    1.1850   -0.0989    0.0000 C   0  0  0  0  0  0  0  0  0
    1.8994    0.3136    0.0000 C   0  0  0  0  0  0  0  0  0
    2.6139   -0.0989    0.0000 C   0  0  0  0  0  0  0  0  0
    2.6139   -0.9239    0.0000 C   0  0  0  0  0  0  0  0  0
    1.8994   -1.3364    0.0000 C   0  0  0  0  0  0  0  0  0
    0.0580   -0.6219    0.0000 C   0  0  0  0  0  0  0  0  0
   -0.7670   -0.6219    0.0000 C   0  0  0  0  0  0  0  0  0
   -1.1795    0.0926    0.0000 C   0  0  0  0  0  0  0  0  0
   -0.7670    0.8070    0.0000 C   0  0  0  0  0  0  0  0  0
    0.0580    0.8070    0.0000 C   0  0  0  0  0  0  0  0  0
    0.4705    0.0926    0.0000 C   0  0  0  0  0  0  0  0  0
   -1.9749   -0.6219    0.0000 C   0  0  0  0  0  0  0  0  0
   -2.7999   -2.0509    0.0000 C   0  0  0  0  0  0  0  0  0
   -5.6578   -0.6219    0.0000 C   0  0  0  0  0  0  0  0  0
   -4.8328   -2.0509    0.0000 C   0  0  0  0  0  0  0  0  0
   -8.8176   -0.9239    0.0000 C   0  0  0  0  0  0  0  0  0
   -9.5321   -1.3364    0.0000 C   0  0  0  0  0  0  0  0  0
  -10.2466   -0.9239    0.0000 C   0  0  0  0  0  0  0  0  0
  -10.2466   -0.0989    0.0000 C   0  0  0  0  0  0  0  0  0
   -9.5321    0.3136    0.0000 C   0  0  0  0  0  0  0  0  0
   -8.8176   -0.0989    0.0000 C   0  0  0  0  0  0  0  0  0
   -7.6907   -0.6219    0.0000 C   0  0  0  0  0  0  0  0  0
   -8.1032    0.0926    0.0000 C   0  0  0  0  0  0  0  0  0
   -7.6907    0.8070    0.0000 C   0  0  0  0  0  0  0  0  0
   -6.8657    0.8070    0.0000 C   0  0  0  0  0  0  0  0  0
   -6.4532    0.0926    0.0000 C   0  0  0  0  0  0  0  0  0
   -6.8657   -0.6219    0.0000 C   0  0  0  0  0  0  0  0  0
  1  2  1  0  0  0  0
  2  3  1  0  0  0  0
  2 32  1  0  0  0  0
  2 38  1  0  0  0  0
  3  4  1  0  0  0  0
  4  5  1  0  0  0  0
  5  6  1  0  0  0  0
  6  7  1  0  0  0  0
  6 30  1  0  0  0  0
  6 31  1  0  0  0  0
  7  8  1  0  0  0  0
  8  9  1  0  0  0  0
  9 10  1  0  0  0  0
 10 11  1  0  0  0  0
 10 28  1  0  0  0  0
 10 29  1  0  0  0  0
 11 12  1  0  0  0  0
 12 13  1  0  0  0  0
 13 14  1  0  0  0  0
 14 15  1  0  0  0  0
 14 16  1  0  0  0  0
 14 22  1  0  0  0  0
 16 17  4  0  0  0  0
 16 21  4  0  0  0  0
 17 18  4  0  0  0  0
 18 19  4  0  0  0  0
 19 20  4  0  0  0  0
 20 21  4  0  0  0  0
 22 23  4  0  0  0  0
 22 27  4  0  0  0  0
 23 24  4  0  0  0  0
 24 25  4  0  0  0  0
 25 26  4  0  0  0  0
 26 27  4  0  0  0  0
 32 33  4  0  0  0  0
 32 37  4  0  0  0  0
 33 34  4  0  0  0  0
 34 35  4  0  0  0  0
 35 36  4  0  0  0  0
 36 37  4  0  0  0  0
 38 39  4  0  0  0  0
 38 43  4  0  0  0  0
 39 40  4  0  0  0  0
 40 41  4  0  0  0  0
 41 42  4  0  0  0  0
 42 43  4  0  0  0  0
M  CHG  2   6   1  10   1
M  END
>  <Name_Molregno>
425744

>  <Muscarinic acetylcholine receptor M1>
5.14

>  <Muscarinic acetylcholine receptor M2>
4.92

>  <Muscarinic acetylcholine receptor M3>
4.91

>  <Muscarinic acetylcholine receptor M4>
4.95

>  <Muscarinic acetylcholine receptor M5>
5.12

$$$$
425745
  Marvin  02231216192D 0   1.00000     0.00000     0

 46 51  0  0  0  0  0  0  0  0999 V2000
   -3.2479    4.8573    0.0000 O   0  0  0  0  0  0  0  0  0
   -2.8354    4.1429    0.0000 C   0  0  0  0  0  0  0  0  0
   -3.5499    3.7304    0.0000 C   0  0  0  0  0  0  0  0  0
   -3.5499    2.9054    0.0000 C   0  0  0  0  0  0  0  0  0
   -4.2643    2.4929    0.0000 C   0  0  0  0  0  0  0  0  0
   -4.2643    1.6679    0.0000 N   0  0  0  0  0  0  0  0  0
   -3.5499    1.2554    0.0000 C   0  0  0  0  0  0  0  0  0
   -3.5499    0.4304    0.0000 C   0  0  0  0  0  0  0  0  0
   -4.2643    0.0179    0.0000 C   0  0  0  0  0  0  0  0  0
   -4.9788    0.4304    0.0000 C   0  0  0  0  0  0  0  0  0
   -4.9788    1.2554    0.0000 C   0  0  0  0  0  0  0  0  0
   -4.2643   -0.8071    0.0000 C   0  0  0  0  0  0  0  0  0
   -3.5499   -1.2196    0.0000 C   0  0  0  0  0  0  0  0  0
   -3.5499   -2.0446    0.0000 C   0  0  0  0  0  0  0  0  0
   -4.2643   -2.4571    0.0000 N   0  0  0  0  0  0  0  0  0
   -4.9788   -2.0446    0.0000 C   0  0  0  0  0  0  0  0  0
   -4.9788   -1.2196    0.0000 C   0  0  0  0  0  0  0  0  0
   -4.2643   -3.2821    0.0000 C   0  0  0  0  0  0  0  0  0
   -4.9788   -3.6946    0.0000 C   0  0  0  0  0  0  0  0  0
   -4.9788   -4.5196    0.0000 C   0  0  0  0  0  0  0  0  0
   -5.6933   -4.9321    0.0000 C   0  0  0  0  0  0  0  0  0
   -6.1058   -4.2177    0.0000 O   0  0  0  0  0  0  0  0  0
   -6.4078   -5.3446    0.0000 C   0  0  0  0  0  0  0  0  0
   -6.4078   -6.1696    0.0000 C   0  0  0  0  0  0  0  0  0
   -7.1222   -6.5821    0.0000 C   0  0  0  0  0  0  0  0  0
   -7.8367   -6.1696    0.0000 C   0  0  0  0  0  0  0  0  0
   -7.8367   -5.3446    0.0000 C   0  0  0  0  0  0  0  0  0
   -7.1222   -4.9321    0.0000 C   0  0  0  0  0  0  0  0  0
   -5.2808   -5.6466    0.0000 C   0  0  0  0  0  0  0  0  0
   -4.4558   -5.6466    0.0000 C   0  0  0  0  0  0  0  0  0
   -4.0433   -6.3611    0.0000 C   0  0  0  0  0  0  0  0  0
   -4.4558   -7.0755    0.0000 C   0  0  0  0  0  0  0  0  0
   -5.2808   -7.0755    0.0000 C   0  0  0  0  0  0  0  0  0
   -5.6933   -6.3611    0.0000 C   0  0  0  0  0  0  0  0  0
   -2.1209    4.5554    0.0000 C   0  0  0  0  0  0  0  0  0
   -2.1209    5.3804    0.0000 C   0  0  0  0  0  0  0  0  0
   -1.4065    5.7929    0.0000 C   0  0  0  0  0  0  0  0  0
   -0.6920    5.3804    0.0000 C   0  0  0  0  0  0  0  0  0
   -0.6920    4.5554    0.0000 C   0  0  0  0  0  0  0  0  0
   -1.4065    4.1429    0.0000 C   0  0  0  0  0  0  0  0  0
   -2.4229    3.4284    0.0000 C   0  0  0  0  0  0  0  0  0
   -1.5979    3.4284    0.0000 C   0  0  0  0  0  0  0  0  0
   -1.1854    2.7139    0.0000 C   0  0  0  0  0  0  0  0  0
   -1.5979    1.9995    0.0000 C   0  0  0  0  0  0  0  0  0
   -2.4229    1.9995    0.0000 C   0  0  0  0  0  0  0  0  0
   -2.8354    2.7139    0.0000 C   0  0  0  0  0  0  0  0  0
  1  2  1  0  0  0  0
  2  3  1  0  0  0  0
  2 35  1  0  0  0  0
  2 41  1  0  0  0  0
  3  4  1  0  0  0  0
  4  5  1  0  0  0  0
  5  6  1  0  0  0  0
  6  7  1  0  0  0  0
  6 11  1  0  0  0  0
  7  8  1  0  0  0  0
  8  9  1  0  0  0  0
  9 10  1  0  0  0  0
  9 12  1  0  0  0  0
 10 11  1  0  0  0  0
 12 13  1  0  0  0  0
 12 17  1  0  0  0  0
 13 14  1  0  0  0  0
 14 15  1  0  0  0  0
 15 16  1  0  0  0  0
 15 18  1  0  0  0  0
 16 17  1  0  0  0  0
 18 19  1  0  0  0  0
 19 20  1  0  0  0  0
 20 21  1  0  0  0  0
 21 22  1  0  0  0  0
 21 23  1  0  0  0  0
 21 29  1  0  0  0  0
 23 24  4  0  0  0  0
 23 28  4  0  0  0  0
 24 25  4  0  0  0  0
 25 26  4  0  0  0  0
 26 27  4  0  0  0  0
 27 28  4  0  0  0  0
 29 30  4  0  0  0  0
 29 34  4  0  0  0  0
 30 31  4  0  0  0  0
 31 32  4  0  0  0  0
 32 33  4  0  0  0  0
 33 34  4  0  0  0  0
 35 36  4  0  0  0  0
 35 40  4  0  0  0  0
 36 37  4  0  0  0  0
 37 38  4  0  0  0  0
 38 39  4  0  0  0  0
 39 40  4  0  0  0  0
 41 42  4  0  0  0  0
 41 46  4  0  0  0  0
 42 43  4  0  0  0  0
 43 44  4  0  0  0  0
 44 45  4  0  0  0  0
 45 46  4  0  0  0  0
M  END
>  <Name_Molregno>
425745

>  <Muscarinic acetylcholine receptor M1>
6.1

>  <Muscarinic acetylcholine receptor M2>
6.06

>  <Muscarinic acetylcholine receptor M3>
6.14

>  <Muscarinic acetylcholine receptor M4>
7.13

>  <Muscarinic acetylcholine receptor M5>
6.11

$$$$
425788
  Marvin  02231216192D 0   1.00000     0.00000     0

 40 43  0  0  0  0  0  0  0  0999 V2000
   -1.2268   -1.8148    0.0000 O   0  0  0  0  0  0  0  0  0
   -0.8143   -1.1003    0.0000 C   0  0  0  0  0  0  0  0  0
   -0.0998   -1.5128    0.0000 C   0  0  0  0  0  0  0  0  0
    0.6147   -1.1003    0.0000 C   0  0  0  0  0  0  0  0  0
    1.3291   -1.5128    0.0000 C   0  0  0  0  0  0  0  0  0
    2.0436   -1.1003    0.0000 N   0  0  0  0  0  0  0  0  0
    2.7581   -1.5128    0.0000 C   0  0  0  0  0  0  0  0  0
    3.4725   -1.1003    0.0000 C   0  0  0  0  0  0  0  0  0
    4.1870   -1.5128    0.0000 N   0  0  0  0  0  0  0  0  0
    4.9015   -1.1003    0.0000 C   0  0  0  0  0  0  0  0  0
    5.6160   -1.5128    0.0000 C   0  0  0  0  0  0  0  0  0
    6.3304   -1.1003    0.0000 C   0  0  0  0  0  0  0  0  0
    7.0449   -1.5128    0.0000 C   0  0  0  0  0  0  0  0  0
    6.6324   -2.2273    0.0000 O   0  0  0  0  0  0  0  0  0
    7.7594   -1.9253    0.0000 C   0  0  0  0  0  0  0  0  0
    8.4738   -1.5128    0.0000 C   0  0  0  0  0  0  0  0  0
    9.1883   -1.9253    0.0000 C   0  0  0  0  0  0  0  0  0
    9.1883   -2.7503    0.0000 C   0  0  0  0  0  0  0  0  0
    8.4738   -3.1628    0.0000 C   0  0  0  0  0  0  0  0  0
    7.7594   -2.7503    0.0000 C   0  0  0  0  0  0  0  0  0
    7.4574   -0.7984    0.0000 C   0  0  0  0  0  0  0  0  0
    7.0449   -0.0839    0.0000 C   0  0  0  0  0  0  0  0  0
    7.4574    0.6306    0.0000 C   0  0  0  0  0  0  0  0  0
    8.2824    0.6306    0.0000 C   0  0  0  0  0  0  0  0  0
    8.6949   -0.0839    0.0000 C   0  0  0  0  0  0  0  0  0
    8.2824   -0.7984    0.0000 C   0  0  0  0  0  0  0  0  0
    4.1870   -2.3378    0.0000 C   0  0  0  0  0  0  0  0  0
    2.0436   -0.2753    0.0000 C   0  0  0  0  0  0  0  0  0
   -1.5287   -0.6878    0.0000 C   0  0  0  0  0  0  0  0  0
   -2.2432   -1.1003    0.0000 C   0  0  0  0  0  0  0  0  0
   -2.9577   -0.6878    0.0000 C   0  0  0  0  0  0  0  0  0
   -2.9577    0.1372    0.0000 C   0  0  0  0  0  0  0  0  0
   -2.2432    0.5497    0.0000 C   0  0  0  0  0  0  0  0  0
   -1.5287    0.1372    0.0000 C   0  0  0  0  0  0  0  0  0
   -0.4018   -0.3859    0.0000 C   0  0  0  0  0  0  0  0  0
   -0.8143    0.3286    0.0000 C   0  0  0  0  0  0  0  0  0
   -0.4018    1.0431    0.0000 C   0  0  0  0  0  0  0  0  0
    0.4232    1.0431    0.0000 C   0  0  0  0  0  0  0  0  0
    0.8357    0.3286    0.0000 C   0  0  0  0  0  0  0  0  0
    0.4232   -0.3859    0.0000 C   0  0  0  0  0  0  0  0  0
  1  2  1  0  0  0  0
  2  3  1  0  0  0  0
  2 29  1  0  0  0  0
  2 35  1  0  0  0  0
  3  4  1  0  0  0  0
  4  5  1  0  0  0  0
  5  6  1  0  0  0  0
  6  7  1  0  0  0  0
  6 28  1  0  0  0  0
  7  8  1  0  0  0  0
  8  9  1  0  0  0  0
  9 10  1  0  0  0  0
  9 27  1  0  0  0  0
 10 11  1  0  0  0  0
 11 12  1  0  0  0  0
 12 13  1  0  0  0  0
 13 14  1  0  0  0  0
 13 15  1  0  0  0  0
 13 21  1  0  0  0  0
 15 16  4  0  0  0  0
 15 20  4  0  0  0  0
 16 17  4  0  0  0  0
 17 18  4  0  0  0  0
 18 19  4  0  0  0  0
 19 20  4  0  0  0  0
 21 22  4  0  0  0  0
 21 26  4  0  0  0  0
 22 23  4  0  0  0  0
 23 24  4  0  0  0  0
 24 25  4  0  0  0  0
 25 26  4  0  0  0  0
 29 30  4  0  0  0  0
 29 34  4  0  0  0  0
 30 31  4  0  0  0  0
 31 32  4  0  0  0  0
 32 33  4  0  0  0  0
 33 34  4  0  0  0  0
 35 36  4  0  0  0  0
 35 40  4  0  0  0  0
 36 37  4  0  0  0  0
 37 38  4  0  0  0  0
 38 39  4  0  0  0  0
 39 40  4  0  0  0  0
M  END
>  <Name_Molregno>
425788

>  <Muscarinic acetylcholine receptor M1>
3.61

>  <Muscarinic acetylcholine receptor M2>
3.67

>  <Muscarinic acetylcholine receptor M3>
3.42

>  <Muscarinic acetylcholine receptor M4>
3.79

>  <Muscarinic acetylcholine receptor M5>
3.64

$$$$
425789
  Marvin  02231216192D 0   1.00000     0.00000     0

 42 45  0  0  0  0  0  0  0  0999 V2000
   -1.7158   -2.9699    0.0000 O   0  0  0  0  0  0  0  0  0
   -1.2240   -2.3075    0.0000 C   0  0  0  0  0  0  0  0  0
   -0.5616   -2.7992    0.0000 C   0  0  0  0  0  0  0  0  0
    0.1955   -2.4714    0.0000 C   0  0  0  0  0  0  0  0  0
    0.8579   -2.9631    0.0000 C   0  0  0  0  0  0  0  0  0
    1.6150   -2.6353    0.0000 N   0  3  0  0  0  0  0  0  0
    2.3721   -2.3075    0.0000 C   0  0  0  0  0  0  0  0  0
    3.0345   -2.7992    0.0000 C   0  0  0  0  0  0  0  0  0
    3.7916   -2.4714    0.0000 N   0  3  0  0  0  0  0  0  0
    4.5486   -2.1436    0.0000 C   0  0  0  0  0  0  0  0  0
    5.2111   -2.6353    0.0000 C   0  0  0  0  0  0  0  0  0
    5.9682   -2.3075    0.0000 C   0  0  0  0  0  0  0  0  0
    6.6306   -2.7992    0.0000 C   0  0  0  0  0  0  0  0  0
    6.1389   -3.4616    0.0000 O   0  0  0  0  0  0  0  0  0
    7.2930   -3.2909    0.0000 C   0  0  0  0  0  0  0  0  0
    8.0501   -2.9631    0.0000 C   0  0  0  0  0  0  0  0  0
    8.7125   -3.4549    0.0000 C   0  0  0  0  0  0  0  0  0
    8.6179   -4.2744    0.0000 C   0  0  0  0  0  0  0  0  0
    7.8608   -4.6022    0.0000 C   0  0  0  0  0  0  0  0  0
    7.1984   -4.1105    0.0000 C   0  0  0  0  0  0  0  0  0
    7.1223   -2.1368    0.0000 C   0  0  0  0  0  0  0  0  0
    6.7945   -1.3797    0.0000 C   0  0  0  0  0  0  0  0  0
    7.2862   -0.7173    0.0000 C   0  0  0  0  0  0  0  0  0
    8.1058   -0.8119    0.0000 C   0  0  0  0  0  0  0  0  0
    8.4336   -1.5690    0.0000 C   0  0  0  0  0  0  0  0  0
    7.9419   -2.2314    0.0000 C   0  0  0  0  0  0  0  0  0
    3.4637   -1.7143    0.0000 C   0  0  0  0  0  0  0  0  0
    4.1194   -3.2285    0.0000 C   0  0  0  0  0  0  0  0  0
    1.2872   -1.8782    0.0000 C   0  0  0  0  0  0  0  0  0
    1.9428   -3.3924    0.0000 C   0  0  0  0  0  0  0  0  0
   -1.8865   -1.8157    0.0000 C   0  0  0  0  0  0  0  0  0
   -2.6435   -2.1436    0.0000 C   0  0  0  0  0  0  0  0  0
   -3.3060   -1.6518    0.0000 C   0  0  0  0  0  0  0  0  0
   -3.2113   -0.8323    0.0000 C   0  0  0  0  0  0  0  0  0
   -2.4543   -0.5045    0.0000 C   0  0  0  0  0  0  0  0  0
   -1.7918   -0.9962    0.0000 C   0  0  0  0  0  0  0  0  0
   -0.7323   -1.6450    0.0000 C   0  0  0  0  0  0  0  0  0
   -1.0601   -0.8880    0.0000 C   0  0  0  0  0  0  0  0  0
   -0.5684   -0.2255    0.0000 C   0  0  0  0  0  0  0  0  0
    0.2512   -0.3202    0.0000 C   0  0  0  0  0  0  0  0  0
    0.5790   -1.0772    0.0000 C   0  0  0  0  0  0  0  0  0
    0.0873   -1.7397    0.0000 C   0  0  0  0  0  0  0  0  0
  1  2  1  0  0  0  0
  2  3  1  0  0  0  0
  2 31  1  0  0  0  0
  2 37  1  0  0  0  0
  3  4  1  0  0  0  0
  4  5  1  0  0  0  0
  5  6  1  0  0  0  0
  6  7  1  0  0  0  0
  6 29  1  0  0  0  0
  6 30  1  0  0  0  0
  7  8  1  0  0  0  0
  8  9  1  0  0  0  0
  9 10  1  0  0  0  0
  9 27  1  0  0  0  0
  9 28  1  0  0  0  0
 10 11  1  0  0  0  0
 11 12  1  0  0  0  0
 12 13  1  0  0  0  0
 13 14  1  0  0  0  0
 13 15  1  0  0  0  0
 13 21  1  0  0  0  0
 15 16  4  0  0  0  0
 15 20  4  0  0  0  0
 16 17  4  0  0  0  0
 17 18  4  0  0  0  0
 18 19  4  0  0  0  0
 19 20  4  0  0  0  0
 21 22  4  0  0  0  0
 21 26  4  0  0  0  0
 22 23  4  0  0  0  0
 23 24  4  0  0  0  0
 24 25  4  0  0  0  0
 25 26  4  0  0  0  0
 31 32  4  0  0  0  0
 31 36  4  0  0  0  0
 32 33  4  0  0  0  0
 33 34  4  0  0  0  0
 34 35  4  0  0  0  0
 35 36  4  0  0  0  0
 37 38  4  0  0  0  0
 37 42  4  0  0  0  0
 38 39  4  0  0  0  0
 39 40  4  0  0  0  0
 40 41  4  0  0  0  0
 41 42  4  0  0  0  0
M  CHG  2   6   1   9   1
M  END
>  <Name_Molregno>
425789

>  <Muscarinic acetylcholine receptor M1>
4.58

>  <Muscarinic acetylcholine receptor M2>
4.32

>  <Muscarinic acetylcholine receptor M3>
4.36

>  <Muscarinic acetylcholine receptor M4>
4.95

>  <Muscarinic acetylcholine receptor M5>
4.74

$$$$
425834
  Marvin  02231216192D 0   1.00000     0.00000     0

 30 33  0  0  0  0  0  0  0  0999 V2000
   -2.6948    1.4306    0.0000 O   0  0  0  0  0  0  0  0  0
   -1.9196    1.1485    0.0000 C   0  0  0  0  0  0  0  0  0
   -2.2018    0.3732    0.0000 C   0  0  0  0  0  0  0  0  0
   -1.6715   -0.2588    0.0000 C   0  0  0  0  0  0  0  0  0
   -1.9536   -1.0340    0.0000 C   0  0  0  0  0  0  0  0  0
   -1.4233   -1.6660    0.0000 N   0  3  0  0  0  0  0  0  0
   -0.7089   -2.0785    0.0000 C   0  0  0  0  0  0  0  0  0
   -0.7089   -2.9035    0.0000 C   0  0  0  0  0  0  0  0  0
   -1.4233   -3.3160    0.0000 N   0  0  0  0  0  0  0  0  0
   -2.1378   -2.9035    0.0000 C   0  0  0  0  0  0  0  0  0
   -2.1378   -2.0785    0.0000 C   0  0  0  0  0  0  0  0  0
   -1.4233   -4.1410    0.0000 C   0  0  0  0  0  0  0  0  0
   -0.7089   -4.5535    0.0000 C   0  0  0  0  0  0  0  0  0
   -0.7089   -5.3785    0.0000 C   0  0  0  0  0  0  0  0  0
   -1.4233   -5.7910    0.0000 C   0  0  0  0  0  0  0  0  0
   -2.1378   -5.3785    0.0000 C   0  0  0  0  0  0  0  0  0
   -2.1378   -4.5535    0.0000 C   0  0  0  0  0  0  0  0  0
   -0.8930   -1.0340    0.0000 C   0  0  0  0  0  0  0  0  0
   -1.6374    1.9237    0.0000 C   0  0  0  0  0  0  0  0  0
   -2.1677    2.5557    0.0000 C   0  0  0  0  0  0  0  0  0
   -1.8856    3.3309    0.0000 C   0  0  0  0  0  0  0  0  0
   -1.0731    3.4742    0.0000 C   0  0  0  0  0  0  0  0  0
   -0.5428    2.8422    0.0000 C   0  0  0  0  0  0  0  0  0
   -0.8250    2.0670    0.0000 C   0  0  0  0  0  0  0  0  0
   -1.1444    0.8663    0.0000 C   0  0  0  0  0  0  0  0  0
   -0.5124    1.3966    0.0000 C   0  0  0  0  0  0  0  0  0
    0.2629    1.1144    0.0000 C   0  0  0  0  0  0  0  0  0
    0.4061    0.3020    0.0000 C   0  0  0  0  0  0  0  0  0
   -0.2258   -0.2283    0.0000 C   0  0  0  0  0  0  0  0  0
   -1.0011    0.0538    0.0000 C   0  0  0  0  0  0  0  0  0
  1  2  1  0  0  0  0
  2  3  1  0  0  0  0
  2 19  1  0  0  0  0
  2 25  1  0  0  0  0
  3  4  1  0  0  0  0
  4  5  1  0  0  0  0
  5  6  1  0  0  0  0
  6  7  1  0  0  0  0
  6 11  1  0  0  0  0
  6 18  1  0  0  0  0
  7  8  1  0  0  0  0
  8  9  1  0  0  0  0
  9 10  1  0  0  0  0
  9 12  1  0  0  0  0
 10 11  1  0  0  0  0
 12 13  4  0  0  0  0
 12 17  4  0  0  0  0
 13 14  4  0  0  0  0
 14 15  4  0  0  0  0
 15 16  4  0  0  0  0
 16 17  4  0  0  0  0
 19 20  4  0  0  0  0
 19 24  4  0  0  0  0
 20 21  4  0  0  0  0
 21 22  4  0  0  0  0
 22 23  4  0  0  0  0
 23 24  4  0  0  0  0
 25 26  4  0  0  0  0
 25 30  4  0  0  0  0
 26 27  4  0  0  0  0
 27 28  4  0  0  0  0
 28 29  4  0  0  0  0
 29 30  4  0  0  0  0
M  CHG  1   6   1
M  END
>  <Name_Molregno>
425834

>  <Muscarinic acetylcholine receptor M1>
4.76

>  <Muscarinic acetylcholine receptor M2>
4.59

>  <Muscarinic acetylcholine receptor M3>
5.12

>  <Muscarinic acetylcholine receptor M4>
4.64

>  <Muscarinic acetylcholine receptor M5>
5.16

$$$$
425835
  Marvin  02231216192D 0   1.00000     0.00000     0

 40 44  0  0  0  0  0  0  0  0999 V2000
   -1.7288    4.9606    0.0000 O   0  0  0  0  0  0  0  0  0
   -1.3163    4.2461    0.0000 C   0  0  0  0  0  0  0  0  0
   -2.0308    3.8336    0.0000 C   0  0  0  0  0  0  0  0  0
   -2.0308    3.0086    0.0000 C   0  0  0  0  0  0  0  0  0
   -2.7453    2.5961    0.0000 C   0  0  0  0  0  0  0  0  0
   -2.7453    1.7711    0.0000 N   0  0  0  0  0  0  0  0  0
   -2.0308    1.3586    0.0000 C   0  0  0  0  0  0  0  0  0
   -2.0308    0.5336    0.0000 C   0  0  0  0  0  0  0  0  0
   -2.7453    0.1211    0.0000 N   0  0  0  0  0  0  0  0  0
   -3.4597    0.5336    0.0000 C   0  0  0  0  0  0  0  0  0
   -3.4597    1.3586    0.0000 C   0  0  0  0  0  0  0  0  0
   -2.7453   -0.7039    0.0000 C   0  0  0  0  0  0  0  0  0
   -3.4597   -1.1164    0.0000 C   0  0  0  0  0  0  0  0  0
   -3.4597   -1.9414    0.0000 C   0  0  0  0  0  0  0  0  0
   -4.1742   -2.3539    0.0000 C   0  0  0  0  0  0  0  0  0
   -4.5867   -1.6394    0.0000 O   0  0  0  0  0  0  0  0  0
   -4.8887   -2.7664    0.0000 C   0  0  0  0  0  0  0  0  0
   -4.8887   -3.5914    0.0000 C   0  0  0  0  0  0  0  0  0
   -5.6032   -4.0039    0.0000 C   0  0  0  0  0  0  0  0  0
   -6.3176   -3.5914    0.0000 C   0  0  0  0  0  0  0  0  0
   -6.3176   -2.7664    0.0000 C   0  0  0  0  0  0  0  0  0
   -5.6032   -2.3539    0.0000 C   0  0  0  0  0  0  0  0  0
   -3.7617   -3.0683    0.0000 C   0  0  0  0  0  0  0  0  0
   -2.9367   -3.0683    0.0000 C   0  0  0  0  0  0  0  0  0
   -2.5242   -3.7828    0.0000 C   0  0  0  0  0  0  0  0  0
   -2.9367   -4.4973    0.0000 C   0  0  0  0  0  0  0  0  0
   -3.7617   -4.4973    0.0000 C   0  0  0  0  0  0  0  0  0
   -4.1742   -3.7828    0.0000 C   0  0  0  0  0  0  0  0  0
   -0.6019    4.6586    0.0000 C   0  0  0  0  0  0  0  0  0
   -0.6019    5.4836    0.0000 C   0  0  0  0  0  0  0  0  0
    0.1126    5.8961    0.0000 C   0  0  0  0  0  0  0  0  0
    0.8271    5.4836    0.0000 C   0  0  0  0  0  0  0  0  0
    0.8271    4.6586    0.0000 C   0  0  0  0  0  0  0  0  0
    0.1126    4.2461    0.0000 C   0  0  0  0  0  0  0  0  0
   -0.9038    3.5317    0.0000 C   0  0  0  0  0  0  0  0  0
   -0.0788    3.5317    0.0000 C   0  0  0  0  0  0  0  0  0
    0.3337    2.8172    0.0000 C   0  0  0  0  0  0  0  0  0
   -0.0788    2.1027    0.0000 C   0  0  0  0  0  0  0  0  0
   -0.9038    2.1027    0.0000 C   0  0  0  0  0  0  0  0  0
   -1.3163    2.8172    0.0000 C   0  0  0  0  0  0  0  0  0
  1  2  1  0  0  0  0
  2  3  1  0  0  0  0
  2 29  1  0  0  0  0
  2 35  1  0  0  0  0
  3  4  1  0  0  0  0
  4  5  1  0  0  0  0
  5  6  1  0  0  0  0
  6  7  1  0  0  0  0
  6 11  1  0  0  0  0
  7  8  1  0  0  0  0
  8  9  1  0  0  0  0
  9 10  1  0  0  0  0
  9 12  1  0  0  0  0
 10 11  1  0  0  0  0
 12 13  1  0  0  0  0
 13 14  1  0  0  0  0
 14 15  1  0  0  0  0
 15 16  1  0  0  0  0
 15 17  1  0  0  0  0
 15 23  1  0  0  0  0
 17 18  4  0  0  0  0
 17 22  4  0  0  0  0
 18 19  4  0  0  0  0
 19 20  4  0  0  0  0
 20 21  4  0  0  0  0
 21 22  4  0  0  0  0
 23 24  4  0  0  0  0
 23 28  4  0  0  0  0
 24 25  4  0  0  0  0
 25 26  4  0  0  0  0
 26 27  4  0  0  0  0
 27 28  4  0  0  0  0
 29 30  4  0  0  0  0
 29 34  4  0  0  0  0
 30 31  4  0  0  0  0
 31 32  4  0  0  0  0
 32 33  4  0  0  0  0
 33 34  4  0  0  0  0
 35 36  4  0  0  0  0
 35 40  4  0  0  0  0
 36 37  4  0  0  0  0
 37 38  4  0  0  0  0
 38 39  4  0  0  0  0
 39 40  4  0  0  0  0
M  END
>  <Name_Molregno>
425835

>  <Muscarinic acetylcholine receptor M1>
3.07

>  <Muscarinic acetylcholine receptor M2>
3.75

>  <Muscarinic acetylcholine receptor M3>
4.06

>  <Muscarinic acetylcholine receptor M4>
4.65

>  <Muscarinic acetylcholine receptor M5>
4.63

$$$$
425836
  Marvin  02231216192D 0   1.00000     0.00000     0

 41 45  0  0  0  0  0  0  0  0999 V2000
   -1.4655   -2.7235    0.0000 O   0  0  0  0  0  0  0  0  0
   -1.8780   -3.4379    0.0000 C   0  0  0  0  0  0  0  0  0
   -2.5924   -3.0254    0.0000 C   0  0  0  0  0  0  0  0  0
   -2.5924   -2.2004    0.0000 C   0  0  0  0  0  0  0  0  0
   -1.8780   -1.7879    0.0000 C   0  0  0  0  0  0  0  0  0
   -1.8780   -0.9629    0.0000 N   0  0  0  0  0  0  0  0  0
   -2.5924   -0.5504    0.0000 C   0  0  0  0  0  0  0  0  0
   -2.5924    0.2746    0.0000 C   0  0  0  0  0  0  0  0  0
   -1.8780    0.6871    0.0000 N   0  3  0  0  0  0  0  0  0
   -1.1635    0.2746    0.0000 C   0  0  0  0  0  0  0  0  0
   -1.1635   -0.5504    0.0000 C   0  0  0  0  0  0  0  0  0
   -2.2653    1.4155    0.0000 C   0  0  0  0  0  0  0  0  0
   -3.0898    1.4443    0.0000 C   0  0  0  0  0  0  0  0  0
   -3.4771    2.1727    0.0000 C   0  0  0  0  0  0  0  0  0
   -4.3016    2.2015    0.0000 C   0  0  0  0  0  0  0  0  0
   -4.2728    3.0260    0.0000 O   0  0  0  0  0  0  0  0  0
   -5.1261    2.2303    0.0000 C   0  0  0  0  0  0  0  0  0
   -5.5633    1.5307    0.0000 C   0  0  0  0  0  0  0  0  0
   -6.3878    1.5594    0.0000 C   0  0  0  0  0  0  0  0  0
   -6.7751    2.2879    0.0000 C   0  0  0  0  0  0  0  0  0
   -6.3379    2.9875    0.0000 C   0  0  0  0  0  0  0  0  0
   -5.5134    2.9587    0.0000 C   0  0  0  0  0  0  0  0  0
   -4.3304    1.3770    0.0000 C   0  0  0  0  0  0  0  0  0
   -3.6307    0.9398    0.0000 C   0  0  0  0  0  0  0  0  0
   -3.6595    0.1153    0.0000 C   0  0  0  0  0  0  0  0  0
   -4.3880   -0.2720    0.0000 C   0  0  0  0  0  0  0  0  0
   -5.0876    0.1652    0.0000 C   0  0  0  0  0  0  0  0  0
   -5.0588    0.9897    0.0000 C   0  0  0  0  0  0  0  0  0
   -1.4906    1.4155    0.0000 C   0  0  0  0  0  0  0  0  0
   -1.1635   -3.8504    0.0000 C   0  0  0  0  0  0  0  0  0
   -0.4490   -3.4379    0.0000 C   0  0  0  0  0  0  0  0  0
    0.2655   -3.8504    0.0000 C   0  0  0  0  0  0  0  0  0
    0.2655   -4.6754    0.0000 C   0  0  0  0  0  0  0  0  0
   -0.4490   -5.0879    0.0000 C   0  0  0  0  0  0  0  0  0
   -1.1635   -4.6754    0.0000 C   0  0  0  0  0  0  0  0  0
   -2.2905   -4.1524    0.0000 C   0  0  0  0  0  0  0  0  0
   -1.8780   -4.8669    0.0000 C   0  0  0  0  0  0  0  0  0
   -2.2905   -5.5814    0.0000 C   0  0  0  0  0  0  0  0  0
   -3.1155   -5.5814    0.0000 C   0  0  0  0  0  0  0  0  0
   -3.5280   -4.8669    0.0000 C   0  0  0  0  0  0  0  0  0
   -3.1155   -4.1524    0.0000 C   0  0  0  0  0  0  0  0  0
  1  2  1  0  0  0  0
  2  3  1  0  0  0  0
  2 30  1  0  0  0  0
  2 36  1  0  0  0  0
  3  4  1  0  0  0  0
  4  5  1  0  0  0  0
  5  6  1  0  0  0  0
  6  7  1  0  0  0  0
  6 11  1  0  0  0  0
  7  8  1  0  0  0  0
  8  9  1  0  0  0  0
  9 10  1  0  0  0  0
  9 12  1  0  0  0  0
  9 29  1  0  0  0  0
 10 11  1  0  0  0  0
 12 13  1  0  0  0  0
 13 14  1  0  0  0  0
 14 15  1  0  0  0  0
 15 16  1  0  0  0  0
 15 17  1  0  0  0  0
 15 23  1  0  0  0  0
 17 18  4  0  0  0  0
 17 22  4  0  0  0  0
 18 19  4  0  0  0  0
 19 20  4  0  0  0  0
 20 21  4  0  0  0  0
 21 22  4  0  0  0  0
 23 24  4  0  0  0  0
 23 28  4  0  0  0  0
 24 25  4  0  0  0  0
 25 26  4  0  0  0  0
 26 27  4  0  0  0  0
 27 28  4  0  0  0  0
 30 31  4  0  0  0  0
 30 35  4  0  0  0  0
 31 32  4  0  0  0  0
 32 33  4  0  0  0  0
 33 34  4  0  0  0  0
 34 35  4  0  0  0  0
 36 37  4  0  0  0  0
 36 41  4  0  0  0  0
 37 38  4  0  0  0  0
 38 39  4  0  0  0  0
 39 40  4  0  0  0  0
 40 41  4  0  0  0  0
M  CHG  1   9   1
M  END
>  <Name_Molregno>
425836

>  <Muscarinic acetylcholine receptor M1>
5.15

>  <Muscarinic acetylcholine receptor M2>
5.64

>  <Muscarinic acetylcholine receptor M3>
5.26

>  <Muscarinic acetylcholine receptor M4>
5.91

>  <Muscarinic acetylcholine receptor M5>
5.81

$$$$
425876
  Marvin  02231216192D 0   1.00000     0.00000     0

 29 32  0  0  0  0  0  0  0  0999 V2000
    0.9981    2.3982    0.0000 O   0  0  0  0  0  0  0  0  0
    1.4106    1.6837    0.0000 C   0  0  0  0  0  0  0  0  0
    0.6961    1.2712    0.0000 C   0  0  0  0  0  0  0  0  0
    0.6961    0.4462    0.0000 C   0  0  0  0  0  0  0  0  0
   -0.0184    0.0337    0.0000 C   0  0  0  0  0  0  0  0  0
   -0.0184   -0.7913    0.0000 N   0  0  0  0  0  0  0  0  0
    0.6961   -1.2038    0.0000 C   0  0  0  0  0  0  0  0  0
    0.6961   -2.0288    0.0000 C   0  0  0  0  0  0  0  0  0
   -0.0184   -2.4413    0.0000 N   0  0  0  0  0  0  0  0  0
   -0.7329   -2.0288    0.0000 C   0  0  0  0  0  0  0  0  0
   -0.7329   -1.2038    0.0000 C   0  0  0  0  0  0  0  0  0
   -0.0184   -3.2663    0.0000 C   0  0  0  0  0  0  0  0  0
    0.6961   -3.6788    0.0000 C   0  0  0  0  0  0  0  0  0
    0.6961   -4.5038    0.0000 C   0  0  0  0  0  0  0  0  0
   -0.0184   -4.9163    0.0000 C   0  0  0  0  0  0  0  0  0
   -0.7329   -4.5038    0.0000 C   0  0  0  0  0  0  0  0  0
   -0.7329   -3.6788    0.0000 C   0  0  0  0  0  0  0  0  0
    2.1250    2.0962    0.0000 C   0  0  0  0  0  0  0  0  0
    2.1250    2.9212    0.0000 C   0  0  0  0  0  0  0  0  0
    2.8395    3.3337    0.0000 C   0  0  0  0  0  0  0  0  0
    3.5540    2.9212    0.0000 C   0  0  0  0  0  0  0  0  0
    3.5540    2.0962    0.0000 C   0  0  0  0  0  0  0  0  0
    2.8395    1.6837    0.0000 C   0  0  0  0  0  0  0  0  0
    1.8231    0.9692    0.0000 C   0  0  0  0  0  0  0  0  0
    2.6481    0.9692    0.0000 C   0  0  0  0  0  0  0  0  0
    3.0606    0.2548    0.0000 C   0  0  0  0  0  0  0  0  0
    2.6481   -0.4597    0.0000 C   0  0  0  0  0  0  0  0  0
    1.8231   -0.4597    0.0000 C   0  0  0  0  0  0  0  0  0
    1.4106    0.2548    0.0000 C   0  0  0  0  0  0  0  0  0
  1  2  1  0  0  0  0
  2  3  1  0  0  0  0
  2 18  1  0  0  0  0
  2 24  1  0  0  0  0
  3  4  1  0  0  0  0
  4  5  1  0  0  0  0
  5  6  1  0  0  0  0
  6  7  1  0  0  0  0
  6 11  1  0  0  0  0
  7  8  1  0  0  0  0
  8  9  1  0  0  0  0
  9 10  1  0  0  0  0
  9 12  1  0  0  0  0
 10 11  1  0  0  0  0
 12 13  4  0  0  0  0
 12 17  4  0  0  0  0
 13 14  4  0  0  0  0
 14 15  4  0  0  0  0
 15 16  4  0  0  0  0
 16 17  4  0  0  0  0
 18 19  4  0  0  0  0
 18 23  4  0  0  0  0
 19 20  4  0  0  0  0
 20 21  4  0  0  0  0
 21 22  4  0  0  0  0
 22 23  4  0  0  0  0
 24 25  4  0  0  0  0
 24 29  4  0  0  0  0
 25 26  4  0  0  0  0
 26 27  4  0  0  0  0
 27 28  4  0  0  0  0
 28 29  4  0  0  0  0
M  END
>  <Name_Molregno>
425876

>  <Muscarinic acetylcholine receptor M1>
3.44

>  <Muscarinic acetylcholine receptor M2>
3.34

>  <Muscarinic acetylcholine receptor M3>
4.15

>  <Muscarinic acetylcholine receptor M4>
4

>  <Muscarinic acetylcholine receptor M5>
3.91

$$$$
425881
  Marvin  02231216192D 0   1.00000     0.00000     0

 25 27  0  0  0  0  0  0  0  0999 V2000
   -1.2071   -2.0448    0.0000 O   0  0  0  0  0  0  0  0  0
   -0.7946   -1.3304    0.0000 C   0  0  0  0  0  0  0  0  0
   -0.0801   -1.7429    0.0000 C   0  0  0  0  0  0  0  0  0
    0.6344   -1.3304    0.0000 C   0  0  0  0  0  0  0  0  0
    1.3489   -1.7429    0.0000 C   0  0  0  0  0  0  0  0  0
    2.0633   -1.3304    0.0000 N   0  0  0  0  0  0  0  0  0
    2.0633   -0.5054    0.0000 C   0  0  0  0  0  0  0  0  0
    2.7778   -0.0929    0.0000 C   0  0  0  0  0  0  0  0  0
    3.4923   -0.5054    0.0000 N   0  3  0  0  0  0  0  0  0
    3.4923   -1.3304    0.0000 C   0  0  0  0  0  0  0  0  0
    2.7778   -1.7429    0.0000 C   0  0  0  0  0  0  0  0  0
    3.9294    0.1943    0.0000 C   0  0  0  0  0  0  0  0  0
    4.3168   -0.4766    0.0000 C   0  0  0  0  0  0  0  0  0
   -1.5090   -0.9179    0.0000 C   0  0  0  0  0  0  0  0  0
   -2.2235   -1.3304    0.0000 C   0  0  0  0  0  0  0  0  0
   -2.9380   -0.9179    0.0000 C   0  0  0  0  0  0  0  0  0
   -2.9380   -0.0929    0.0000 C   0  0  0  0  0  0  0  0  0
   -2.2235    0.3196    0.0000 C   0  0  0  0  0  0  0  0  0
   -1.5090   -0.0929    0.0000 C   0  0  0  0  0  0  0  0  0
   -0.3821   -0.6159    0.0000 C   0  0  0  0  0  0  0  0  0
   -0.7946    0.0986    0.0000 C   0  0  0  0  0  0  0  0  0
   -0.3821    0.8131    0.0000 C   0  0  0  0  0  0  0  0  0
    0.4429    0.8131    0.0000 C   0  0  0  0  0  0  0  0  0
    0.8554    0.0986    0.0000 C   0  0  0  0  0  0  0  0  0
    0.4429   -0.6159    0.0000 C   0  0  0  0  0  0  0  0  0
  1  2  1  0  0  0  0
  2  3  1  0  0  0  0
  2 14  1  0  0  0  0
  2 20  1  0  0  0  0
  3  4  1  0  0  0  0
  4  5  1  0  0  0  0
  5  6  1  0  0  0  0
  6  7  1  0  0  0  0
  6 11  1  0  0  0  0
  7  8  1  0  0  0  0
  8  9  1  0  0  0  0
  9 10  1  0  0  0  0
  9 12  1  0  0  0  0
  9 13  1  0  0  0  0
 10 11  1  0  0  0  0
 14 15  4  0  0  0  0
 14 19  4  0  0  0  0
 15 16  4  0  0  0  0
 16 17  4  0  0  0  0
 17 18  4  0  0  0  0
 18 19  4  0  0  0  0
 20 21  4  0  0  0  0
 20 25  4  0  0  0  0
 21 22  4  0  0  0  0
 22 23  4  0  0  0  0
 23 24  4  0  0  0  0
 24 25  4  0  0  0  0
M  CHG  1   9   1
M  END
>  <Name_Molregno>
425881

>  <Muscarinic acetylcholine receptor M1>
5.53

>  <Muscarinic acetylcholine receptor M2>
4.63

>  <Muscarinic acetylcholine receptor M3>
5.39

>  <Muscarinic acetylcholine receptor M4>
5.32

>  <Muscarinic acetylcholine receptor M5>
5.02

$$$$
425932
  Marvin  02231216192D 0   1.00000     0.00000     0

 24 26  0  0  0  0  0  0  0  0999 V2000
   -1.2055   -2.0626    0.0000 O   0  0  0  0  0  0  0  0  0
   -0.7930   -1.3481    0.0000 C   0  0  0  0  0  0  0  0  0
   -0.0785   -1.7606    0.0000 C   0  0  0  0  0  0  0  0  0
    0.6360   -1.3481    0.0000 C   0  0  0  0  0  0  0  0  0
    1.3504   -1.7606    0.0000 C   0  0  0  0  0  0  0  0  0
    2.0649   -1.3481    0.0000 N   0  0  0  0  0  0  0  0  0
    2.0649   -0.5231    0.0000 C   0  0  0  0  0  0  0  0  0
    2.7794   -0.1106    0.0000 C   0  0  0  0  0  0  0  0  0
    3.4939   -0.5231    0.0000 N   0  0  0  0  0  0  0  0  0
    3.4939   -1.3481    0.0000 C   0  0  0  0  0  0  0  0  0
    2.7794   -1.7606    0.0000 C   0  0  0  0  0  0  0  0  0
    4.2083   -0.1106    0.0000 C   0  0  0  0  0  0  0  0  0
   -1.5074   -0.9356    0.0000 C   0  0  0  0  0  0  0  0  0
   -2.2219   -1.3481    0.0000 C   0  0  0  0  0  0  0  0  0
   -2.9364   -0.9356    0.0000 C   0  0  0  0  0  0  0  0  0
   -2.9364   -0.1106    0.0000 C   0  0  0  0  0  0  0  0  0
   -2.2219    0.3019    0.0000 C   0  0  0  0  0  0  0  0  0
   -1.5074   -0.1106    0.0000 C   0  0  0  0  0  0  0  0  0
   -0.3805   -0.6336    0.0000 C   0  0  0  0  0  0  0  0  0
   -0.7930    0.0809    0.0000 C   0  0  0  0  0  0  0  0  0
   -0.3805    0.7953    0.0000 C   0  0  0  0  0  0  0  0  0
    0.4445    0.7953    0.0000 C   0  0  0  0  0  0  0  0  0
    0.8570    0.0809    0.0000 C   0  0  0  0  0  0  0  0  0
    0.4445   -0.6336    0.0000 C   0  0  0  0  0  0  0  0  0
  1  2  1  0  0  0  0
  2  3  1  0  0  0  0
  2 13  1  0  0  0  0
  2 19  1  0  0  0  0
  3  4  1  0  0  0  0
  4  5  1  0  0  0  0
  5  6  1  0  0  0  0
  6  7  1  0  0  0  0
  6 11  1  0  0  0  0
  7  8  1  0  0  0  0
  8  9  1  0  0  0  0
  9 10  1  0  0  0  0
  9 12  1  0  0  0  0
 10 11  1  0  0  0  0
 13 14  4  0  0  0  0
 13 18  4  0  0  0  0
 14 15  4  0  0  0  0
 15 16  4  0  0  0  0
 16 17  4  0  0  0  0
 17 18  4  0  0  0  0
 19 20  4  0  0  0  0
 19 24  4  0  0  0  0
 20 21  4  0  0  0  0
 21 22  4  0  0  0  0
 22 23  4  0  0  0  0
 23 24  4  0  0  0  0
M  END
>  <Name_Molregno>
425932

>  <Muscarinic acetylcholine receptor M1>
5.11

>  <Muscarinic acetylcholine receptor M2>
4.45

>  <Muscarinic acetylcholine receptor M3>
5.13

>  <Muscarinic acetylcholine receptor M4>
5.01

>  <Muscarinic acetylcholine receptor M5>
4.87

$$$$
425973
  Marvin  02231216192D 0   1.00000     0.00000     0

 23 25  0  0  0  0  0  0  0  0999 V2000
   -1.2294   -2.0934    0.0000 O   0  0  0  0  0  0  0  0  0
   -0.8169   -1.3790    0.0000 C   0  0  0  0  0  0  0  0  0
   -0.1024   -1.7915    0.0000 C   0  0  0  0  0  0  0  0  0
    0.6121   -1.3790    0.0000 C   0  0  0  0  0  0  0  0  0
    1.3265   -1.7915    0.0000 C   0  0  0  0  0  0  0  0  0
    2.0410   -1.3790    0.0000 N   0  0  0  0  0  0  0  0  0
    2.0410   -0.5540    0.0000 C   0  0  0  0  0  0  0  0  0
    2.7555   -0.1415    0.0000 C   0  0  0  0  0  0  0  0  0
    3.4699   -0.5540    0.0000 N   0  0  0  0  0  0  0  0  0
    3.4699   -1.3790    0.0000 C   0  0  0  0  0  0  0  0  0
    2.7555   -1.7915    0.0000 C   0  0  0  0  0  0  0  0  0
   -1.5313   -0.9665    0.0000 C   0  0  0  0  0  0  0  0  0
   -2.2458   -1.3790    0.0000 C   0  0  0  0  0  0  0  0  0
   -2.9603   -0.9665    0.0000 C   0  0  0  0  0  0  0  0  0
   -2.9603   -0.1415    0.0000 C   0  0  0  0  0  0  0  0  0
   -2.2458    0.2710    0.0000 C   0  0  0  0  0  0  0  0  0
   -1.5313   -0.1415    0.0000 C   0  0  0  0  0  0  0  0  0
   -0.4044   -0.6645    0.0000 C   0  0  0  0  0  0  0  0  0
   -0.8169    0.0500    0.0000 C   0  0  0  0  0  0  0  0  0
   -0.4044    0.7645    0.0000 C   0  0  0  0  0  0  0  0  0
    0.4206    0.7645    0.0000 C   0  0  0  0  0  0  0  0  0
    0.8331    0.0500    0.0000 C   0  0  0  0  0  0  0  0  0
    0.4206   -0.6645    0.0000 C   0  0  0  0  0  0  0  0  0
  1  2  1  0  0  0  0
  2  3  1  0  0  0  0
  2 12  1  0  0  0  0
  2 18  1  0  0  0  0
  3  4  1  0  0  0  0
  4  5  1  0  0  0  0
  5  6  1  0  0  0  0
  6  7  1  0  0  0  0
  6 11  1  0  0  0  0
  7  8  1  0  0  0  0
  8  9  1  0  0  0  0
  9 10  1  0  0  0  0
 10 11  1  0  0  0  0
 12 13  4  0  0  0  0
 12 17  4  0  0  0  0
 13 14  4  0  0  0  0
 14 15  4  0  0  0  0
 15 16  4  0  0  0  0
 16 17  4  0  0  0  0
 18 19  4  0  0  0  0
 18 23  4  0  0  0  0
 19 20  4  0  0  0  0
 20 21  4  0  0  0  0
 21 22  4  0  0  0  0
 22 23  4  0  0  0  0
M  END
>  <Name_Molregno>
425973

>  <Muscarinic acetylcholine receptor M1>
6.22

>  <Muscarinic acetylcholine receptor M2>
5.14

>  <Muscarinic acetylcholine receptor M3>
6.18

>  <Muscarinic acetylcholine receptor M4>
5.93

>  <Muscarinic acetylcholine receptor M5>
5.85

$$$$
426024
  Marvin  02231216192D 0   1.00000     0.00000     0

 24 26  0  0  0  0  0  0  0  0999 V2000
   -1.2851   -1.9113    0.0000 O   0  0  0  0  0  0  0  0  0
   -0.8726   -1.1968    0.0000 C   0  0  0  0  0  0  0  0  0
   -0.1581   -1.6093    0.0000 C   0  0  0  0  0  0  0  0  0
    0.5563   -1.1968    0.0000 C   0  0  0  0  0  0  0  0  0
    1.2708   -1.6093    0.0000 C   0  0  0  0  0  0  0  0  0
    1.9853   -1.1968    0.0000 N   0  3  0  0  0  0  0  0  0
    2.5156   -0.5648    0.0000 C   0  0  0  0  0  0  0  0  0
    3.3280   -0.7081    0.0000 C   0  0  0  0  0  0  0  0  0
    3.6102   -1.4833    0.0000 C   0  0  0  0  0  0  0  0  0
    3.0799   -2.1153    0.0000 C   0  0  0  0  0  0  0  0  0
    2.2674   -1.9720    0.0000 C   0  0  0  0  0  0  0  0  0
    1.4550   -0.5648    0.0000 C   0  0  0  0  0  0  0  0  0
   -1.5871   -0.7843    0.0000 C   0  0  0  0  0  0  0  0  0
   -2.3015   -1.1968    0.0000 C   0  0  0  0  0  0  0  0  0
   -3.0160   -0.7843    0.0000 C   0  0  0  0  0  0  0  0  0
   -3.0160    0.0407    0.0000 C   0  0  0  0  0  0  0  0  0
   -2.3015    0.4532    0.0000 C   0  0  0  0  0  0  0  0  0
   -1.5871    0.0407    0.0000 C   0  0  0  0  0  0  0  0  0
   -0.4601   -0.4823    0.0000 C   0  0  0  0  0  0  0  0  0
   -0.8726    0.2321    0.0000 C   0  0  0  0  0  0  0  0  0
   -0.4601    0.9466    0.0000 C   0  0  0  0  0  0  0  0  0
    0.3649    0.9466    0.0000 C   0  0  0  0  0  0  0  0  0
    0.7774    0.2321    0.0000 C   0  0  0  0  0  0  0  0  0
    0.3649   -0.4823    0.0000 C   0  0  0  0  0  0  0  0  0
  1  2  1  0  0  0  0
  2  3  1  0  0  0  0
  2 13  1  0  0  0  0
  2 19  1  0  0  0  0
  3  4  1  0  0  0  0
  4  5  1  0  0  0  0
  5  6  1  0  0  0  0
  6  7  1  0  0  0  0
  6 11  1  0  0  0  0
  6 12  1  0  0  0  0
  7  8  1  0  0  0  0
  8  9  1  0  0  0  0
  9 10  1  0  0  0  0
 10 11  1  0  0  0  0
 13 14  4  0  0  0  0
 13 18  4  0  0  0  0
 14 15  4  0  0  0  0
 15 16  4  0  0  0  0
 16 17  4  0  0  0  0
 17 18  4  0  0  0  0
 19 20  4  0  0  0  0
 19 24  4  0  0  0  0
 20 21  4  0  0  0  0
 21 22  4  0  0  0  0
 22 23  4  0  0  0  0
 23 24  4  0  0  0  0
M  CHG  1   6   1
M  END
>  <Name_Molregno>
426024

>  <Muscarinic acetylcholine receptor M1>
6.7

>  <Muscarinic acetylcholine receptor M2>
6.56

>  <Muscarinic acetylcholine receptor M3>
6.56

>  <Muscarinic acetylcholine receptor M4>
6.54

>  <Muscarinic acetylcholine receptor M5>
6.15

$$$$
427327
  Marvin  02231216192D 0   1.00000     0.00000     0

 24 26  0  0  1  0  0  0  0  0999 V2000
    0.7940    0.5113    0.0000 O   0  0  0  0  0  0  0  0  0
    0.3808   -0.2028    0.0000 C   0  0  0  0  0  0  0  0  0
   -0.4442   -0.2020    0.0000 O   0  0  0  0  0  0  0  0  0
    0.7926   -0.9177    0.0000 C   0  0  0  0  0  0  0  0  0
    1.6176   -0.9185    0.0000 C   0  0  0  0  0  0  0  0  0
    2.0294   -1.6334    0.0000 O   0  0  0  0  0  0  0  0  0
    0.3794   -1.6318    0.0000 C   0  0  0  0  0  0  0  0  0
    0.7912   -2.3466    0.0000 C   0  0  0  0  0  0  0  0  0
    0.3780   -3.0607    0.0000 C   0  0  0  0  0  0  0  0  0
   -0.4470   -3.0599    0.0000 C   0  0  0  0  0  0  0  0  0
   -0.8588   -2.3450    0.0000 C   0  0  0  0  0  0  0  0  0
   -0.4456   -1.6309    0.0000 C   0  0  0  0  0  0  0  0  0
    0.3822    1.2261    0.0000 C   0  0  0  0  0  0  0  0  0
    0.2440    2.0435    0.0000 C   0  0  0  0  0  0  0  0  0
   -0.6848    2.0280    0.0000 C   0  0  0  0  0  0  0  0  0
   -1.2454    2.4679    0.0000 N   0  3  0  0  0  0  0  0  0
   -1.1057    1.6548    0.0000 C   0  0  0  0  0  0  0  0  0
   -0.1340    1.6548    0.0000 C   0  0  0  0  0  0  0  0  0
   -1.6256    0.9425    0.0000 C   0  0  0  0  0  0  0  0  0
   -1.0053    1.3194    0.0000 C   0  0  0  0  0  0  0  0  0
   -1.1553    3.2880    0.0000 C   0  0  0  0  0  0  0  0  0
   -1.8204    3.7761    0.0000 C   0  0  0  0  0  0  0  0  0
   -0.4000    3.6200    0.0000 C   0  0  0  0  0  0  0  0  0
   -2.0098    2.7783    0.0000 C   0  0  0  0  0  0  0  0  0
  1  2  1  0  0  0  0
  1 13  1  0  0  0  0
  2  3  2  0  0  0  0
  2  4  1  0  0  0  0
  4  5  1  0  0  0  0
  4  7  1  0  0  0  0
  5  6  1  0  0  0  0
  7  8  4  0  0  0  0
  7 12  4  0  0  0  0
  8  9  4  0  0  0  0
  9 10  4  0  0  0  0
 10 11  4  0  0  0  0
 11 12  4  0  0  0  0
 13 14  1  0  0  0  0
 13 18  1  0  0  0  0
 14 15  1  0  0  0  0
 15 16  1  0  0  0  0
 15 20  1  0  0  0  0
 16 17  1  0  0  0  0
 16 21  1  0  0  0  0
 16 24  1  0  0  0  0
 17 18  1  0  0  0  0
 17 19  1  0  0  0  0
 19 20  1  0  0  0  0
 21 22  1  0  0  0  0
 21 23  1  0  0  0  0
M  CHG  1  16   1
M  END
>  <Name_Molregno>
427327

>  <Muscarinic acetylcholine receptor M1>
9.31

>  <Muscarinic acetylcholine receptor M2>
8.86

>  <Muscarinic acetylcholine receptor M3>
9.4

>  <Muscarinic acetylcholine receptor M4>
9.18

>  <Muscarinic acetylcholine receptor M5>
8.77

$$$$
437267
  Marvin  02231216192D 0   1.00000     0.00000     0

 65 71  0  0  1  0  0  0  0  0999 V2000
    3.3421   -4.8718    0.0000 S   0  0  0  0  0  0  0  0  0
    4.0958   -5.2073    0.0000 C   0  0  0  0  0  0  0  0  0
    4.0095   -6.0278    0.0000 C   0  0  0  0  0  0  0  0  0
    3.2025   -6.1993    0.0000 C   0  0  0  0  0  0  0  0  0
    2.7900   -5.4849    0.0000 C   0  0  0  0  0  0  0  0  0
    1.9696   -5.3986    0.0000 C   0  0  0  0  0  0  0  0  0
    1.5571   -4.6841    0.0000 N   0  0  0  0  0  0  0  0  0
    0.7501   -4.8557    0.0000 C   0  0  0  0  0  0  0  0  0
    0.1981   -4.2426    0.0000 C   0  0  0  0  0  0  0  0  0
    0.4530   -3.4580    0.0000 C   0  0  0  0  0  0  0  0  0
    1.2600   -3.2864    0.0000 N   0  3  0  0  0  0  0  0  0
    1.3462   -2.4660    0.0000 C   0  0  0  0  0  0  0  0  0
    0.5925   -2.1304    0.0000 C   0  0  0  0  0  0  0  0  0
    0.0405   -2.7435    0.0000 C   0  0  0  0  0  0  0  0  0
    2.0607   -2.0535    0.0000 C   0  0  0  0  0  0  0  0  0
    2.0607   -1.2285    0.0000 C   0  0  0  0  0  0  0  0  0
    2.7752   -0.8160    0.0000 C   0  0  0  0  0  0  0  0  0
    2.7752    0.0090    0.0000 C   0  0  0  0  0  0  0  0  0
    3.4896    0.4215    0.0000 C   0  0  0  0  0  0  0  0  0
    4.2041    0.0090    0.0000 C   0  0  0  0  0  0  0  0  0
    4.9186    0.4215    0.0000 O   0  0  0  0  0  0  0  0  0
    5.6330    0.0090    0.0000 C   0  0  0  0  0  0  0  0  0
    6.3475    0.4215    0.0000 C   0  0  0  0  0  0  0  0  0
    6.3475    1.2465    0.0000 O   0  0  0  0  0  0  0  0  0
    7.0620    0.0090    0.0000 N   0  0  0  0  0  0  0  0  0
    7.7764    0.4215    0.0000 C   0  0  0  0  0  0  0  0  0
    8.4909    0.0090    0.0000 C   0  0  0  0  0  0  0  0  0
    9.2054    0.4215    0.0000 C   0  0  0  0  0  0  0  0  0
    9.9199    0.0090    0.0000 C   0  0  0  0  0  0  0  0  0
   10.6343    0.4215    0.0000 C   0  0  0  0  0  0  0  0  0
   11.3488    0.0090    0.0000 C   0  0  0  0  0  0  0  0  0
   11.3488   -0.8160    0.0000 O   0  0  0  0  0  0  0  0  0
   12.0633    0.4215    0.0000 N   0  0  0  0  0  0  0  0  0
   12.7777    0.0090    0.0000 C   0  0  0  0  0  0  0  0  0
   13.4922    0.4215    0.0000 C   0  0  0  0  0  0  0  0  0
   14.2067    0.0090    0.0000 C   0  0  0  0  0  0  0  0  0
   14.9212    0.4215    0.0000 C   0  0  0  0  0  0  0  0  0
   15.6356    0.0090    0.0000 C   0  0  0  0  0  0  0  0  0
   16.3501    0.4215    0.0000 C   0  0  0  0  0  0  0  0  0
   16.3501    1.2465    0.0000 C   0  0  0  0  0  0  0  0  0
   17.0646    1.6590    0.0000 C   0  0  0  0  0  0  0  0  0
   17.0646    2.4840    0.0000 N   0  0  0  0  0  0  0  0  0
   17.7790    2.8965    0.0000 C   0  0  0  0  0  0  0  0  0
   17.7790    3.7215    0.0000 C   0  0  0  0  0  0  0  0  0
   18.4935    2.4840    0.0000 C   0  0  0  0  0  0  0  0  0
   16.3501    2.8965    0.0000 C   0  0  0  0  0  0  0  0  0
   15.6356    2.4840    0.0000 C   0  0  0  0  0  0  0  0  0
   16.3501    3.7215    0.0000 C   0  0  0  0  0  0  0  0  0
   17.0646    0.0090    0.0000 C   0  0  0  0  0  0  0  0  0
   17.7790    0.4215    0.0000 C   0  0  0  0  0  0  0  0  0
   18.4935    0.0090    0.0000 C   0  0  0  0  0  0  0  0  0
   18.4935   -0.8160    0.0000 C   0  0  0  0  0  0  0  0  0
   17.7790   -1.2285    0.0000 C   0  0  0  0  0  0  0  0  0
   17.0646   -0.8160    0.0000 C   0  0  0  0  0  0  0  0  0
   15.6356   -0.8160    0.0000 C   0  0  0  0  0  0  0  0  0
   16.3501   -1.2285    0.0000 O   0  0  0  0  0  0  0  0  0
   14.9212   -1.2285    0.0000 C   0  0  0  0  0  0  0  0  0
   14.2067   -0.8160    0.0000 C   0  0  0  0  0  0  0  0  0
    4.2041   -0.8160    0.0000 C   0  0  0  0  0  0  0  0  0
    3.4896   -1.2285    0.0000 C   0  0  0  0  0  0  0  0  0
    1.8120   -3.8995    0.0000 B   0  5  0  0  0  0  0  0  0
    2.6050   -4.1269    0.0000 F   0  0  0  0  0  0  0  0  0
    2.4440   -3.3692    0.0000 F   0  0  0  0  0  0  0  0  0
    0.6639   -5.6762    0.0000 C   0  0  0  0  0  0  0  0  0
    1.4175   -6.0117    0.0000 C   0  0  0  0  0  0  0  0  0
  1  2  4  0  0  0  0
  1  5  4  0  0  0  0
  2  3  4  0  0  0  0
  3  4  4  0  0  0  0
  4  5  4  0  0  0  0
  5  6  1  0  0  0  0
  6  7  4  0  0  0  0
  6 65  4  0  0  0  0
  7  8  4  0  0  0  0
  7 61  1  0  0  0  0
  8  9  1  0  0  0  0
  8 64  4  0  0  0  0
  9 10  2  0  0  0  0
 10 11  1  0  0  0  0
 10 14  1  0  0  0  0
 11 12  2  0  0  0  0
 11 61  1  0  0  0  0
 12 13  1  0  0  0  0
 12 15  1  0  0  0  0
 13 14  2  0  0  0  0
 15 16  2  0  0  0  0
 16 17  1  0  0  0  0
 17 18  4  0  0  0  0
 17 60  4  0  0  0  0
 18 19  4  0  0  0  0
 19 20  4  0  0  0  0
 20 21  1  0  0  0  0
 20 59  4  0  0  0  0
 21 22  1  0  0  0  0
 22 23  1  0  0  0  0
 23 24  2  0  0  0  0
 23 25  1  0  0  0  0
 25 26  1  0  0  0  0
 26 27  1  0  0  0  0
 27 28  1  0  0  0  0
 28 29  1  0  0  0  0
 29 30  1  0  0  0  0
 30 31  1  0  0  0  0
 31 32  2  0  0  0  0
 31 33  1  0  0  0  0
 33 34  1  0  0  0  0
 34 35  1  0  0  0  0
 35 36  1  0  0  0  0
 36 37  4  0  0  0  0
 36 58  4  0  0  0  0
 37 38  4  0  0  0  0
 38 39  1  0  0  0  0
 38 55  4  0  0  0  0
 39 40  1  0  0  0  0
 39 49  1  0  0  0  0
 40 41  1  0  0  0  0
 41 42  1  0  0  0  0
 42 43  1  0  0  0  0
 42 46  1  0  0  0  0
 43 44  1  0  0  0  0
 43 45  1  0  0  0  0
 46 47  1  0  0  0  0
 46 48  1  0  0  0  0
 49 50  4  0  0  0  0
 49 54  4  0  0  0  0
 50 51  4  0  0  0  0
 51 52  4  0  0  0  0
 52 53  4  0  0  0  0
 53 54  4  0  0  0  0
 55 56  1  0  0  0  0
 55 57  4  0  0  0  0
 57 58  4  0  0  0  0
 59 60  4  0  0  0  0
 61 62  1  0  0  0  0
 61 63  1  0  0  0  0
 64 65  4  0  0  0  0
M  CHG  2  11   1  61  -1
M  END
>  <Name_Molregno>
437267

>  <Muscarinic acetylcholine receptor M1>
8.34

>  <Muscarinic acetylcholine receptor M2>
8.05

>  <Muscarinic acetylcholine receptor M3>
7.99

>  <Muscarinic acetylcholine receptor M4>
8.2

>  <Muscarinic acetylcholine receptor M5>
7.76

$$$$
437319
  Marvin  02231216192D 0   1.00000     0.00000     0

 33 34  0  0  0  0  0  0  0  0999 V2000
    5.5038    6.1773    0.0000 N   0  3  0  0  0  0  0  0  0
    4.7893    5.7648    0.0000 C   0  0  0  0  0  0  0  0  0
    4.7893    4.9398    0.0000 C   0  0  0  0  0  0  0  0  0
    4.0749    4.5273    0.0000 C   0  0  0  0  0  0  0  0  0
    4.0749    3.7023    0.0000 N   0  3  0  0  0  0  0  0  0
    4.7893    3.2898    0.0000 C   0  0  0  0  0  0  0  0  0
    4.7893    2.4648    0.0000 C   0  0  0  0  0  0  0  0  0
    4.0749    2.0523    0.0000 C   0  0  0  0  0  0  0  0  0
    3.3604    2.4648    0.0000 C   0  0  0  0  0  0  0  0  0
    3.3604    3.2898    0.0000 C   0  0  0  0  0  0  0  0  0
    4.0749    1.2273    0.0000 C   0  0  0  0  0  0  0  0  0
    4.7893    0.8148    0.0000 C   0  0  0  0  0  0  0  0  0
    4.7893   -0.0102    0.0000 C   0  0  0  0  0  0  0  0  0
    5.5038   -0.4227    0.0000 C   0  0  0  0  0  0  0  0  0
    5.5038   -1.2477    0.0000 C   0  0  0  0  0  0  0  0  0
    4.7893   -1.6602    0.0000 C   0  0  0  0  0  0  0  0  0
    4.7893   -2.4852    0.0000 N   0  0  0  0  0  0  0  0  0
    4.0749   -2.8977    0.0000 C   0  0  0  0  0  0  0  0  0
    4.0749   -3.7227    0.0000 C   0  0  0  0  0  0  0  0  0
    3.3604   -4.1352    0.0000 C   0  0  0  0  0  0  0  0  0
    3.3604   -4.9602    0.0000 C   0  0  0  0  0  0  0  0  0
    5.5038   -2.8977    0.0000 C   0  0  0  0  0  0  0  0  0
    5.5038   -3.7227    0.0000 C   0  0  0  0  0  0  0  0  0
    6.2183   -4.1352    0.0000 C   0  0  0  0  0  0  0  0  0
    6.2183   -4.9602    0.0000 C   0  0  0  0  0  0  0  0  0
    4.0749   -1.2477    0.0000 C   0  0  0  0  0  0  0  0  0
    4.0749   -0.4227    0.0000 C   0  0  0  0  0  0  0  0  0
    6.2183    6.5898    0.0000 C   0  0  0  0  0  0  0  0  0
    6.2183    7.4148    0.0000 C   0  0  0  0  0  0  0  0  0
    5.9163    5.4628    0.0000 C   0  0  0  0  0  0  0  0  0
    6.7413    5.4628    0.0000 C   0  0  0  0  0  0  0  0  0
    5.0913    6.8917    0.0000 C   0  0  0  0  0  0  0  0  0
    5.5038    7.6062    0.0000 C   0  0  0  0  0  0  0  0  0
  1  2  1  0  0  0  0
  1 28  1  0  0  0  0
  1 30  1  0  0  0  0
  1 32  1  0  0  0  0
  2  3  1  0  0  0  0
  3  4  1  0  0  0  0
  4  5  1  0  0  0  0
  5  6  4  0  0  0  0
  5 10  4  0  0  0  0
  6  7  4  0  0  0  0
  7  8  4  0  0  0  0
  8  9  4  0  0  0  0
  8 11  1  0  0  0  0
  9 10  4  0  0  0  0
 11 12  2  0  0  0  0
 12 13  1  0  0  0  0
 13 14  4  0  0  0  0
 13 27  4  0  0  0  0
 14 15  4  0  0  0  0
 15 16  4  0  0  0  0
 16 17  1  0  0  0  0
 16 26  4  0  0  0  0
 17 18  1  0  0  0  0
 17 22  1  0  0  0  0
 18 19  1  0  0  0  0
 19 20  1  0  0  0  0
 20 21  1  0  0  0  0
 22 23  1  0  0  0  0
 23 24  1  0  0  0  0
 24 25  1  0  0  0  0
 26 27  4  0  0  0  0
 28 29  1  0  0  0  0
 30 31  1  0  0  0  0
 32 33  1  0  0  0  0
M  CHG  2   1   1   5   1
M  END
>  <Name_Molregno>
437319

>  <Muscarinic acetylcholine receptor M1>
7.36

>  <Muscarinic acetylcholine receptor M2>
7.26

>  <Muscarinic acetylcholine receptor M3>
7.52

>  <Muscarinic acetylcholine receptor M4>
6.99

>  <Muscarinic acetylcholine receptor M5>
7.08

$$$$
437320
  Marvin  02231216192D 0   1.00000     0.00000     0

 29 30  0  0  0  0  0  0  0  0999 V2000
   -0.0824    1.9618    0.0000 N   0  3  0  0  0  0  0  0  0
   -0.7435    2.4553    0.0000 C   0  0  0  0  0  0  0  0  0
   -1.5014    2.1294    0.0000 C   0  0  0  0  0  0  0  0  0
   -2.1626    2.6229    0.0000 C   0  0  0  0  0  0  0  0  0
   -2.9205    2.2971    0.0000 N   0  3  0  0  0  0  0  0  0
   -3.0173    1.4778    0.0000 C   0  0  0  0  0  0  0  0  0
   -3.7752    1.1520    0.0000 C   0  0  0  0  0  0  0  0  0
   -4.4364    1.6454    0.0000 C   0  0  0  0  0  0  0  0  0
   -4.3396    2.4647    0.0000 C   0  0  0  0  0  0  0  0  0
   -3.5817    2.7906    0.0000 C   0  0  0  0  0  0  0  0  0
   -5.1943    1.3196    0.0000 C   0  0  0  0  0  0  0  0  0
   -5.2911    0.5003    0.0000 C   0  0  0  0  0  0  0  0  0
   -6.0491    0.1745    0.0000 C   0  0  0  0  0  0  0  0  0
   -6.1458   -0.6448    0.0000 C   0  0  0  0  0  0  0  0  0
   -6.9038   -0.9706    0.0000 C   0  0  0  0  0  0  0  0  0
   -7.5649   -0.4771    0.0000 C   0  0  0  0  0  0  0  0  0
   -8.3229   -0.8030    0.0000 N   0  0  0  0  0  0  0  0  0
   -8.9840   -0.3095    0.0000 C   0  0  0  0  0  0  0  0  0
   -9.7419   -0.6353    0.0000 C   0  0  0  0  0  0  0  0  0
   -8.4197   -1.6223    0.0000 C   0  0  0  0  0  0  0  0  0
   -9.1776   -1.9481    0.0000 C   0  0  0  0  0  0  0  0  0
   -7.4681    0.3422    0.0000 C   0  0  0  0  0  0  0  0  0
   -6.7102    0.6680    0.0000 C   0  0  0  0  0  0  0  0  0
    0.5788    1.4683    0.0000 C   0  0  0  0  0  0  0  0  0
    1.3367    1.7941    0.0000 C   0  0  0  0  0  0  0  0  0
   -0.5759    1.3006    0.0000 C   0  0  0  0  0  0  0  0  0
   -0.2500    0.5427    0.0000 C   0  0  0  0  0  0  0  0  0
    0.4111    2.6229    0.0000 C   0  0  0  0  0  0  0  0  0
    1.2304    2.5261    0.0000 C   0  0  0  0  0  0  0  0  0
  1  2  1  0  0  0  0
  1 24  1  0  0  0  0
  1 26  1  0  0  0  0
  1 28  1  0  0  0  0
  2  3  1  0  0  0  0
  3  4  1  0  0  0  0
  4  5  1  0  0  0  0
  5  6  4  0  0  0  0
  5 10  4  0  0  0  0
  6  7  4  0  0  0  0
  7  8  4  0  0  0  0
  8  9  4  0  0  0  0
  8 11  1  0  0  0  0
  9 10  4  0  0  0  0
 11 12  2  0  0  0  0
 12 13  1  0  0  0  0
 13 14  4  0  0  0  0
 13 23  4  0  0  0  0
 14 15  4  0  0  0  0
 15 16  4  0  0  0  0
 16 17  1  0  0  0  0
 16 22  4  0  0  0  0
 17 18  1  0  0  0  0
 17 20  1  0  0  0  0
 18 19  1  0  0  0  0
 20 21  1  0  0  0  0
 22 23  4  0  0  0  0
 24 25  1  0  0  0  0
 26 27  1  0  0  0  0
 28 29  1  0  0  0  0
M  CHG  2   1   1   5   1
M  END
>  <Name_Molregno>
437320

>  <Muscarinic acetylcholine receptor M1>
7.47

>  <Muscarinic acetylcholine receptor M2>
7.42

>  <Muscarinic acetylcholine receptor M3>
7.62

>  <Muscarinic acetylcholine receptor M4>
6.92

>  <Muscarinic acetylcholine receptor M5>
6.64

$$$$
443758
  Marvin  02231216192D 0   1.00000     0.00000     0

 54 56  0  0  1  0  0  0  0  0999 V2000
   -7.8531   -1.6850    0.0000 O   0  0  0  0  0  0  0  0  0
   -7.5322   -0.9250    0.0000 C   0  0  0  0  0  0  0  0  0
   -6.7102   -0.9953    0.0000 C   0  0  0  0  0  0  0  0  0
   -6.5231   -1.7988    0.0000 N   0  0  0  0  0  0  0  0  0
   -7.2295   -2.2251    0.0000 C   0  0  0  0  0  0  0  0  0
   -7.2999   -3.0471    0.0000 C   0  0  0  0  0  0  0  0  0
   -6.6232   -3.5190    0.0000 C   0  0  0  0  0  0  0  0  0
   -6.6935   -4.3410    0.0000 C   0  0  0  0  0  0  0  0  0
   -7.4406   -4.6910    0.0000 C   0  0  0  0  0  0  0  0  0
   -8.1173   -4.2191    0.0000 C   0  0  0  0  0  0  0  0  0
   -8.0469   -3.3971    0.0000 C   0  0  0  0  0  0  0  0  0
   -8.7236   -2.9252    0.0000 O   0  0  0  0  0  0  0  0  0
   -6.1701   -0.3717    0.0000 C   0  0  0  0  0  0  0  0  0
   -6.4401    0.4079    0.0000 O   0  0  0  0  0  0  0  0  0
   -5.3600   -0.5276    0.0000 N   0  0  0  0  0  0  0  0  0
   -4.8199    0.0960    0.0000 C   0  0  0  0  0  0  0  0  0
   -5.0899    0.8756    0.0000 C   0  0  0  0  0  0  0  0  0
   -5.9001    1.0315    0.0000 C   0  0  0  0  0  0  0  0  0
   -6.1701    1.8110    0.0000 C   0  0  0  0  0  0  0  0  0
   -6.9802    1.9670    0.0000 C   0  0  0  0  0  0  0  0  0
   -7.2503    2.7465    0.0000 N   0  0  0  0  0  0  0  0  0
   -6.7102    3.3702    0.0000 O   0  0  0  0  0  0  0  0  0
   -8.0604    2.9024    0.0000 C   0  0  0  0  0  0  0  0  0
   -8.6005    2.2788    0.0000 O   0  0  0  0  0  0  0  0  0
   -8.3305    3.6820    0.0000 C   0  0  0  0  0  0  0  0  0
   -4.0097   -0.0599    0.0000 C   0  0  0  0  0  0  0  0  0
   -3.4697    0.5638    0.0000 O   0  0  0  0  0  0  0  0  0
   -2.6595    0.4079    0.0000 C   0  0  0  0  0  0  0  0  0
   -2.3895   -0.3717    0.0000 C   0  0  0  0  0  0  0  0  0
   -1.5793   -0.5276    0.0000 C   0  0  0  0  0  0  0  0  0
   -1.3093   -1.3072    0.0000 O   0  0  0  0  0  0  0  0  0
   -1.0393    0.0960    0.0000 N   0  0  0  0  0  0  0  0  0
   -0.2291   -0.0599    0.0000 C   0  0  0  0  0  0  0  0  0
    0.2629    0.6024    0.0000 C   0  0  0  0  0  0  0  0  0
    1.0874    0.6307    0.0000 C   0  0  0  0  0  0  0  0  0
    1.6236    0.0036    0.0000 C   0  0  0  0  0  0  0  0  0
    1.4676   -0.8065    0.0000 C   0  0  0  0  0  0  0  0  0
    0.7370   -1.1897    0.0000 N   0  0  0  0  0  0  0  0  0
    0.7653   -2.0142    0.0000 O   0  0  0  0  0  0  0  0  0
   -0.0181   -0.8574    0.0000 C   0  0  0  0  0  0  0  0  0
   -0.6451   -1.3936    0.0000 O   0  0  0  0  0  0  0  0  0
   -2.9296   -0.9953    0.0000 C   0  0  0  0  0  0  0  0  0
   -2.1194    1.0315    0.0000 C   0  0  0  0  0  0  0  0  0
   -1.3093    0.8756    0.0000 C   0  0  0  0  0  0  0  0  0
   -0.7692    1.4992    0.0000 C   0  0  0  0  0  0  0  0  0
    0.0409    1.3433    0.0000 C   0  0  0  0  0  0  0  0  0
    0.5810    1.9670    0.0000 C   0  0  0  0  0  0  0  0  0
    1.3912    1.8110    0.0000 C   0  0  0  0  0  0  0  0  0
    1.9312    2.4347    0.0000 C   0  0  0  0  0  0  0  0  0
    2.7414    2.2788    0.0000 C   0  0  0  0  0  0  0  0  0
    3.2815    2.9024    0.0000 C   0  0  0  0  0  0  0  0  0
    4.0916    2.7465    0.0000 C   0  0  0  0  0  0  0  0  0
    4.6317    3.3702    0.0000 C   0  0  0  0  0  0  0  0  0
   -3.7397   -0.8394    0.0000 O   0  0  0  0  0  0  0  0  0
  1  2  4  0  0  0  0
  1  5  4  0  0  0  0
  2  3  4  0  0  0  0
  3  4  4  0  0  0  0
  3 13  1  0  0  0  0
  4  5  4  0  0  0  0
  5  6  1  0  0  0  0
  6  7  4  0  0  0  0
  6 11  4  0  0  0  0
  7  8  4  0  0  0  0
  8  9  4  0  0  0  0
  9 10  4  0  0  0  0
 10 11  4  0  0  0  0
 11 12  1  0  0  0  0
 13 14  2  0  0  0  0
 13 15  1  0  0  0  0
 15 16  1  0  0  0  0
 16 17  1  0  0  0  0
 16 26  1  0  0  0  0
 17 18  1  0  0  0  0
 18 19  1  0  0  0  0
 19 20  1  0  0  0  0
 20 21  1  0  0  0  0
 21 22  1  0  0  0  0
 21 23  1  0  0  0  0
 23 24  2  0  0  0  0
 23 25  1  0  0  0  0
 26 27  1  0  0  0  0
 26 54  2  0  0  0  0
 27 28  1  0  0  0  0
 28 29  1  0  0  0  0
 28 43  1  0  0  0  0
 29 30  1  0  0  0  0
 29 42  1  0  0  0  0
 30 31  2  0  0  0  0
 30 32  1  0  0  0  0
 32 33  1  0  0  0  0
 33 34  1  0  0  0  0
 33 40  1  0  0  0  0
 34 35  1  0  0  0  0
 35 36  1  0  0  0  0
 36 37  1  0  0  0  0
 37 38  1  0  0  0  0
 38 39  1  0  0  0  0
 38 40  1  0  0  0  0
 40 41  2  0  0  0  0
 43 44  1  0  0  0  0
 44 45  1  0  0  0  0
 45 46  1  0  0  0  0
 46 47  1  0  0  0  0
 47 48  1  0  0  0  0
 48 49  1  0  0  0  0
 49 50  1  0  0  0  0
 50 51  1  0  0  0  0
 51 52  1  0  0  0  0
 52 53  1  0  0  0  0
M  END
>  <Name_Molregno>
443758

>  <Muscarinic acetylcholine receptor M1>
6.31

>  <Muscarinic acetylcholine receptor M2>
6.2

>  <Muscarinic acetylcholine receptor M3>
6.89

>  <Muscarinic acetylcholine receptor M4>
6.85

>  <Muscarinic acetylcholine receptor M5>
5.93

$$$$
448634
  Marvin  02231216192D 0   1.00000     0.00000     0

 10 11  0  0  1  0  0  0  0  0999 V2000
    1.5415   -1.5477    0.0000 O   0  0  0  0  0  0  0  0  0
    1.2866   -2.3323    0.0000 C   0  0  0  0  0  0  0  0  0
    0.4616   -2.3323    0.0000 C   0  0  0  0  0  0  0  0  0
    0.2066   -1.5477    0.0000 C   0  0  0  0  0  0  0  0  0
    0.8741   -1.0628    0.0000 C   0  0  0  0  0  0  0  0  0
    0.8741   -0.2378    0.0000 C   0  0  0  0  0  0  0  0  0
    0.2066    0.2472    0.0000 N   0  0  0  0  0  0  0  0  0
    0.4616    1.0318    0.0000 C   0  0  0  0  0  0  0  0  0
    1.2866    1.0318    0.0000 C   0  0  0  0  0  0  0  0  0
    1.5415    0.2472    0.0000 C   0  0  0  0  0  0  0  0  0
  1  2  4  0  0  0  0
  1  5  4  0  0  0  0
  2  3  4  0  0  0  0
  3  4  4  0  0  0  0
  4  5  4  0  0  0  0
  5  6  1  0  0  0  0
  6  7  1  0  0  0  0
  6 10  1  0  0  0  0
  7  8  1  0  0  0  0
  8  9  1  0  0  0  0
  9 10  1  0  0  0  0
M  END
>  <Name_Molregno>
448634

>  <Muscarinic acetylcholine receptor M1>
4.09

>  <Muscarinic acetylcholine receptor M2>
4.2

>  <Muscarinic acetylcholine receptor M3>
4.63

>  <Muscarinic acetylcholine receptor M4>
4.03

>  <Muscarinic acetylcholine receptor M5>
4.53

$$$$
448637
  Marvin  02231216192D 0   1.00000     0.00000     0

 11 12  0  0  1  0  0  0  0  0999 V2000
   -0.6541    0.4055    0.0000 O   0  0  0  0  0  0  0  0  0
   -0.9091   -0.3792    0.0000 C   0  0  0  0  0  0  0  0  0
   -1.7341   -0.3792    0.0000 C   0  0  0  0  0  0  0  0  0
   -1.9890    0.4055    0.0000 C   0  0  0  0  0  0  0  0  0
   -1.3216    0.8904    0.0000 C   0  0  0  0  0  0  0  0  0
   -1.3216    1.7154    0.0000 C   0  0  0  0  0  0  0  0  0
   -0.4241   -1.0466    0.0000 C   0  0  0  0  0  0  0  0  0
    0.4009   -1.0466    0.0000 N   0  0  0  0  0  0  0  0  0
    0.6558   -1.8312    0.0000 C   0  0  0  0  0  0  0  0  0
   -0.0116   -2.3161    0.0000 C   0  0  0  0  0  0  0  0  0
   -0.6791   -1.8312    0.0000 C   0  0  0  0  0  0  0  0  0
  1  2  4  0  0  0  0
  1  5  4  0  0  0  0
  2  3  4  0  0  0  0
  2  7  1  0  0  0  0
  3  4  4  0  0  0  0
  4  5  4  0  0  0  0
  5  6  1  0  0  0  0
  7  8  1  0  0  0  0
  7 11  1  0  0  0  0
  8  9  1  0  0  0  0
  9 10  1  0  0  0  0
 10 11  1  0  0  0  0
M  END
>  <Name_Molregno>
448637

>  <Muscarinic acetylcholine receptor M1>
4.36

>  <Muscarinic acetylcholine receptor M2>
5.13

>  <Muscarinic acetylcholine receptor M3>
4.5

>  <Muscarinic acetylcholine receptor M4>
4.17

>  <Muscarinic acetylcholine receptor M5>
4.46

$$$$
448640
  Marvin  02231216192D 0   1.00000     0.00000     0

 11 12  0  0  1  0  0  0  0  0999 V2000
    1.6506   -1.8212    0.0000 O   0  0  0  0  0  0  0  0  0
    1.3957   -2.6058    0.0000 C   0  0  0  0  0  0  0  0  0
    0.5707   -2.6058    0.0000 C   0  0  0  0  0  0  0  0  0
    0.3157   -1.8212    0.0000 C   0  0  0  0  0  0  0  0  0
    0.9832   -1.3362    0.0000 C   0  0  0  0  0  0  0  0  0
    0.9832   -0.5112    0.0000 C   0  0  0  0  0  0  0  0  0
    0.3157   -0.0263    0.0000 N   0  0  0  0  0  0  0  0  0
    0.5707    0.7583    0.0000 C   0  0  0  0  0  0  0  0  0
    1.3957    0.7583    0.0000 C   0  0  0  0  0  0  0  0  0
    1.6506   -0.0263    0.0000 C   0  0  0  0  0  0  0  0  0
   -0.4689   -0.2812    0.0000 C   0  0  0  0  0  0  0  0  0
  1  2  4  0  0  0  0
  1  5  4  0  0  0  0
  2  3  4  0  0  0  0
  3  4  4  0  0  0  0
  4  5  4  0  0  0  0
  5  6  1  0  0  0  0
  6  7  1  0  0  0  0
  6 10  1  0  0  0  0
  7  8  1  0  0  0  0
  7 11  1  0  0  0  0
  8  9  1  0  0  0  0
  9 10  1  0  0  0  0
M  END
>  <Name_Molregno>
448640

>  <Muscarinic acetylcholine receptor M1>
4.32

>  <Muscarinic acetylcholine receptor M2>
4.4

>  <Muscarinic acetylcholine receptor M3>
4.24

>  <Muscarinic acetylcholine receptor M4>
4.17

>  <Muscarinic acetylcholine receptor M5>
4.22

$$$$
448643
  Marvin  02231216192D 0   1.00000     0.00000     0

 12 13  0  0  1  0  0  0  0  0999 V2000
   -0.7232    1.6546    0.0000 O   0  0  0  0  0  0  0  0  0
   -0.9781    0.8700    0.0000 C   0  0  0  0  0  0  0  0  0
   -1.8031    0.8700    0.0000 C   0  0  0  0  0  0  0  0  0
   -2.0580    1.6546    0.0000 C   0  0  0  0  0  0  0  0  0
   -1.3906    2.1396    0.0000 C   0  0  0  0  0  0  0  0  0
   -1.3906    2.9646    0.0000 C   0  0  0  0  0  0  0  0  0
   -0.4932    0.2026    0.0000 C   0  0  0  0  0  0  0  0  0
    0.3318    0.2026    0.0000 N   0  0  0  0  0  0  0  0  0
    0.5868   -0.5820    0.0000 C   0  0  0  0  0  0  0  0  0
   -0.0807   -1.0670    0.0000 C   0  0  0  0  0  0  0  0  0
   -0.7481   -0.5820    0.0000 C   0  0  0  0  0  0  0  0  0
    0.8168    0.8700    0.0000 C   0  0  0  0  0  0  0  0  0
  1  2  4  0  0  0  0
  1  5  4  0  0  0  0
  2  3  4  0  0  0  0
  2  7  1  0  0  0  0
  3  4  4  0  0  0  0
  4  5  4  0  0  0  0
  5  6  1  0  0  0  0
  7  8  1  0  0  0  0
  7 11  1  0  0  0  0
  8  9  1  0  0  0  0
  8 12  1  0  0  0  0
  9 10  1  0  0  0  0
 10 11  1  0  0  0  0
M  END
>  <Name_Molregno>
448643

>  <Muscarinic acetylcholine receptor M1>
4.45

>  <Muscarinic acetylcholine receptor M2>
4.78

>  <Muscarinic acetylcholine receptor M3>
4.55

>  <Muscarinic acetylcholine receptor M4>
4.39

>  <Muscarinic acetylcholine receptor M5>
4.52

$$$$
473109
  Marvin  02231216192D 0   1.00000     0.00000     0

 21 22  0  0  1  0  0  0  0  0999 V2000
    6.3079    1.6156    0.0000 F   0  0  0  0  0  0  0  0  0
    5.5934    1.2031    0.0000 C   0  0  0  0  0  0  0  0  0
    5.1809    1.9176    0.0000 F   0  0  0  0  0  0  0  0  0
    6.0059    0.4887    0.0000 F   0  0  0  0  0  0  0  0  0
    4.8790    0.7906    0.0000 C   0  0  0  0  0  0  0  0  0
    4.8790   -0.0344    0.0000 C   0  0  0  0  0  0  0  0  0
    4.1645   -0.4469    0.0000 C   0  0  0  0  0  0  0  0  0
    3.4500   -0.0344    0.0000 C   0  0  0  0  0  0  0  0  0
    2.7355   -0.4469    0.0000 O   0  0  0  0  0  0  0  0  0
    2.7355   -1.2719    0.0000 C   0  0  0  0  0  0  0  0  0
    3.4500   -1.6844    0.0000 C   0  0  0  0  0  0  0  0  0
    4.1645   -1.2719    0.0000 C   0  0  0  0  0  0  0  0  0
    4.8790   -1.6844    0.0000 N   0  0  0  0  0  0  0  0  0
    2.0211   -1.6844    0.0000 C   0  0  0  0  0  0  0  0  0
    2.0211   -2.5094    0.0000 C   0  0  0  0  0  0  0  0  0
    1.3066   -2.9219    0.0000 C   0  0  0  0  0  0  0  0  0
    0.5921   -2.5094    0.0000 C   0  0  0  0  0  0  0  0  0
    0.5921   -1.6844    0.0000 C   0  0  0  0  0  0  0  0  0
    1.3066   -1.2719    0.0000 C   0  0  0  0  0  0  0  0  0
    3.4500    0.7906    0.0000 C   0  0  0  0  0  0  0  0  0
    4.1645    1.2031    0.0000 C   0  0  0  0  0  0  0  0  0
  1  2  1  0  0  0  0
  2  3  1  0  0  0  0
  2  4  1  0  0  0  0
  2  5  1  0  0  0  0
  5  6  4  0  0  0  0
  5 21  4  0  0  0  0
  6  7  4  0  0  0  0
  7  8  4  0  0  0  0
  8  9  1  0  0  0  0
  8 20  4  0  0  0  0
  9 10  1  0  0  0  0
 10 11  1  0  0  0  0
 10 14  1  0  0  0  0
 11 12  1  0  0  0  0
 12 13  1  0  0  0  0
 14 15  4  0  0  0  0
 14 19  4  0  0  0  0
 15 16  4  0  0  0  0
 16 17  4  0  0  0  0
 17 18  4  0  0  0  0
 18 19  4  0  0  0  0
 20 21  4  0  0  0  0
M  END
>  <Name_Molregno>
473109

>  <5-HT1A>
5

>  <5-HT2A>
6.53

>  <5-HT2C>
7.04

>  <DOPAMINE D2>
5

>  <Dopamine transporter>
5.59

>  <HISTAMINE H1>
5

>  <Muscarinic acetylcholine receptor M1>
5.92

>  <Muscarinic acetylcholine receptor M2>
5.34

>  <Muscarinic acetylcholine receptor M3>
6.12

>  <Muscarinic acetylcholine receptor M4>
5.59

>  <Muscarinic acetylcholine receptor M5>
5.66

>  <Norepinephrine transporter>
5.35

>  <Serotonin transporter>
7.79

$$$$
486405
  Marvin  02231216192D 0   1.00000     0.00000     0

 24 27  0  0  1  0  0  0  0  0999 V2000
    0.7075   -1.2840    0.0000 S   0  0  0  0  0  0  0  0  0
    1.4921   -1.0290    0.0000 O   0  0  0  0  0  0  0  0  0
    0.4526   -2.0686    0.0000 C   0  0  0  0  0  0  0  0  0
   -0.3724   -2.0686    0.0000 C   0  0  0  0  0  0  0  0  0
   -0.6274   -1.2840    0.0000 O   0  0  0  0  0  0  0  0  0
    0.0401   -0.7990    0.0000 C   0  0  0  0  0  0  0  0  0
    0.6474   -0.2406    0.0000 C   0  0  0  0  0  0  0  0  0
    0.4674    0.5645    0.0000 C   0  0  0  0  0  0  0  0  0
    1.0747    1.1229    0.0000 C   0  0  0  0  0  0  0  0  0
    1.8619    0.8762    0.0000 C   0  0  0  0  0  0  0  0  0
    2.0419    0.0711    0.0000 C   0  0  0  0  0  0  0  0  0
    1.4346   -0.4873    0.0000 C   0  0  0  0  0  0  0  0  0
   -0.3649   -0.0803    0.0000 C   0  0  0  0  0  0  0  0  0
   -1.1899   -0.0716    0.0000 C   0  0  0  0  0  0  0  0  0
   -1.5949    0.6471    0.0000 C   0  0  0  0  0  0  0  0  0
   -1.1749    1.3572    0.0000 C   0  0  0  0  0  0  0  0  0
   -0.3499    1.3486    0.0000 C   0  0  0  0  0  0  0  0  0
    0.0551    0.6298    0.0000 C   0  0  0  0  0  0  0  0  0
   -0.8573   -2.7360    0.0000 C   0  0  0  0  0  0  0  0  0
   -0.6024   -3.5206    0.0000 N   0  0  0  0  0  0  0  0  0
   -1.2698   -4.0056    0.0000 C   0  0  0  0  0  0  0  0  0
   -1.9373   -3.5206    0.0000 C   0  0  0  0  0  0  0  0  0
   -1.6823   -2.7360    0.0000 C   0  0  0  0  0  0  0  0  0
    0.1822   -3.7756    0.0000 C   0  0  0  0  0  0  0  0  0
  1  2  2  0  0  0  0
  1  3  1  0  0  0  0
  1  6  1  0  0  0  0
  3  4  1  0  0  0  0
  4  5  1  0  0  0  0
  4 19  1  0  0  0  0
  5  6  1  0  0  0  0
  6  7  1  0  0  0  0
  6 13  1  0  0  0  0
  7  8  1  0  0  0  0
  7 12  1  0  0  0  0
  8  9  1  0  0  0  0
  9 10  1  0  0  0  0
 10 11  1  0  0  0  0
 11 12  1  0  0  0  0
 13 14  4  0  0  0  0
 13 18  4  0  0  0  0
 14 15  4  0  0  0  0
 15 16  4  0  0  0  0
 16 17  4  0  0  0  0
 17 18  4  0  0  0  0
 19 20  1  0  0  0  0
 19 23  1  0  0  0  0
 20 21  1  0  0  0  0
 20 24  1  0  0  0  0
 21 22  1  0  0  0  0
 22 23  1  0  0  0  0
M  END
>  <Name_Molregno>
486405

>  <Muscarinic acetylcholine receptor M1>
7.11

>  <Muscarinic acetylcholine receptor M2>
6.87

>  <Muscarinic acetylcholine receptor M3>
6.74

>  <Muscarinic acetylcholine receptor M4>
6.55

>  <Muscarinic acetylcholine receptor M5>
6.68

$$$$
490353
  Marvin  02231216192D 0   1.00000     0.00000     0

 30 34  0  0  1  0  0  0  0  0999 V2000
    3.6400   -2.6515    0.0000 O   0  0  0  0  0  0  0  0  0
    3.2820   -1.9082    0.0000 C   0  0  0  0  0  0  0  0  0
    2.4570   -1.9082    0.0000 N   0  0  0  0  0  0  0  0  0
    1.9427   -1.2632    0.0000 C   0  0  0  0  0  0  0  0  0
    1.1543   -1.5063    0.0000 C   0  0  0  0  0  0  0  0  0
    0.5496   -0.9452    0.0000 C   0  0  0  0  0  0  0  0  0
    0.7331   -0.1409    0.0000 C   0  0  0  0  0  0  0  0  0
    1.5215    0.1023    0.0000 N   0  0  0  0  0  0  0  0  0
    2.1262   -0.4589    0.0000 C   0  0  0  0  0  0  0  0  0
    2.8695   -0.1009    0.0000 N   0  0  0  0  0  0  0  0  0
    3.6128   -0.4589    0.0000 C   0  0  0  0  0  0  0  0  0
    3.7964   -1.2632    0.0000 C   0  0  0  0  0  0  0  0  0
    4.5848   -1.5063    0.0000 C   0  0  0  0  0  0  0  0  0
    5.1895   -0.9452    0.0000 C   0  0  0  0  0  0  0  0  0
    5.0060   -0.1409    0.0000 C   0  0  0  0  0  0  0  0  0
    4.2176    0.1023    0.0000 C   0  0  0  0  0  0  0  0  0
    2.8695    0.7241    0.0000 C   0  0  0  0  0  0  0  0  0
    2.1551    1.1366    0.0000 O   0  0  0  0  0  0  0  0  0
    3.5840    1.1366    0.0000 C   0  0  0  0  0  0  0  0  0
    3.5840    1.9616    0.0000 N   0  0  0  0  0  0  0  0  0
    4.2985    2.3741    0.0000 C   0  0  0  0  0  0  0  0  0
    4.2985    3.1991    0.0000 C   0  0  0  0  0  0  0  0  0
    3.5840    3.6116    0.0000 N   0  0  0  0  0  0  0  0  0
    2.8695    3.1991    0.0000 C   0  0  0  0  0  0  0  0  0
    2.8695    2.3741    0.0000 C   0  0  0  0  0  0  0  0  0
    3.5840    4.4366    0.0000 C   0  0  0  0  0  0  0  0  0
    5.0130    3.6116    0.0000 C   0  0  0  0  0  0  0  0  0
    5.7274    3.1991    0.0000 C   0  0  0  0  0  0  0  0  0
    5.7274    2.3741    0.0000 C   0  0  0  0  0  0  0  0  0
    5.0130    1.9616    0.0000 C   0  0  0  0  0  0  0  0  0
  1  2  2  0  0  0  0
  2  3  1  0  0  0  0
  2 12  1  0  0  0  0
  3  4  1  0  0  0  0
  4  5  4  0  0  0  0
  4  9  4  0  0  0  0
  5  6  4  0  0  0  0
  6  7  4  0  0  0  0
  7  8  4  0  0  0  0
  8  9  4  0  0  0  0
  9 10  1  0  0  0  0
 10 11  1  0  0  0  0
 10 17  1  0  0  0  0
 11 12  4  0  0  0  0
 11 16  4  0  0  0  0
 12 13  4  0  0  0  0
 13 14  4  0  0  0  0
 14 15  4  0  0  0  0
 15 16  4  0  0  0  0
 17 18  2  0  0  0  0
 17 19  1  0  0  0  0
 19 20  1  0  0  0  0
 20 21  1  0  0  0  0
 20 25  1  0  0  0  0
 21 22  1  0  0  0  0
 21 30  1  0  0  0  0
 22 23  1  0  0  0  0
 22 27  1  0  0  0  0
 23 24  1  0  0  0  0
 23 26  1  0  0  0  0
 24 25  1  0  0  0  0
 27 28  1  0  0  0  0
 28 29  1  0  0  0  0
 29 30  1  0  0  0  0
M  END
>  <Name_Molregno>
490353

>  <Muscarinic acetylcholine receptor M1>
5.74

>  <Muscarinic acetylcholine receptor M2>
6.1

>  <Muscarinic acetylcholine receptor M3>
5

>  <Muscarinic acetylcholine receptor M4>
5.39

$$$$
513010
  Marvin  02231216192D 0   1.00000     0.00000     0

 22 24  0  0  1  0  0  0  0  0999 V2000
   -0.2296   -0.4433    0.0000 O   0  0  0  0  0  0  0  0  0
    0.5954   -0.4441    0.0000 C   0  0  0  0  0  0  0  0  0
    1.0086    0.2700    0.0000 O   0  0  0  0  0  0  0  0  0
    1.0072   -1.1590    0.0000 C   0  0  0  0  0  0  0  0  0
    1.8322   -1.1598    0.0000 C   0  0  0  0  0  0  0  0  0
    2.2440   -1.8747    0.0000 C   0  0  0  0  0  0  0  0  0
    1.8308   -2.5887    0.0000 C   0  0  0  0  0  0  0  0  0
    1.0058   -2.5879    0.0000 C   0  0  0  0  0  0  0  0  0
    0.5940   -1.8730    0.0000 C   0  0  0  0  0  0  0  0  0
   -0.6414    0.2716    0.0000 C   0  0  0  0  0  0  0  0  0
   -0.7796    1.0890    0.0000 C   0  0  0  0  0  0  0  0  0
   -1.7084    1.0735    0.0000 C   0  0  0  0  0  0  0  0  0
   -2.2690    1.5134    0.0000 N   0  0  0  0  0  0  0  0  0
   -2.1293    0.7003    0.0000 C   0  0  0  0  0  0  0  0  0
   -2.6492   -0.0120    0.0000 C   0  0  0  0  0  0  0  0  0
   -2.0289    0.3649    0.0000 C   0  0  0  0  0  0  0  0  0
   -1.1576    0.7003    0.0000 C   0  0  0  0  0  0  0  0  0
   -1.4378   -0.0757    0.0000 C   0  0  0  0  0  0  0  0  0
   -2.2499   -0.2210    0.0000 O   0  0  0  0  0  0  0  0  0
   -2.5301   -0.9969    0.0000 C   0  0  0  0  0  0  0  0  0
   -0.9059   -0.7063    0.0000 O   0  0  0  0  0  0  0  0  0
   -2.6916    2.2219    0.0000 C   0  0  0  0  0  0  0  0  0
  1  2  1  0  0  0  0
  1 10  1  0  0  0  0
  2  3  2  0  0  0  0
  2  4  1  0  0  0  0
  4  5  4  0  0  0  0
  4  9  4  0  0  0  0
  5  6  4  0  0  0  0
  6  7  4  0  0  0  0
  7  8  4  0  0  0  0
  8  9  4  0  0  0  0
 10 11  1  0  0  0  0
 10 17  1  0  0  0  0
 11 12  1  0  0  0  0
 12 13  1  0  0  0  0
 12 16  1  0  0  0  0
 13 14  1  0  0  0  0
 13 22  1  0  0  0  0
 14 15  1  0  0  0  0
 14 17  1  0  0  0  0
 15 16  1  0  0  0  0
 17 18  1  0  0  0  0
 18 19  1  0  0  0  0
 18 21  2  0  0  0  0
 19 20  1  0  0  0  0
M  END
>  <Name_Molregno>
513010

>  <5-HT1A>
5

>  <5-HT1B>
5.47

>  <5-HT1D>
5

>  <5-HT1E>
5

>  <5-HT3>
5.31

>  <5-HT5>
5

>  <5-HT6>
5

>  <5-HT7>
5

>  <Alpha-1A>
5.68

>  <Alpha-1B>
5

>  <Alpha-2A>
5

>  <Alpha-2C>
5

>  <Beta-1>
5

>  <Beta-2>
5

>  <DOPAMINE D1>
5

>  <DOPAMINE D2>
5

>  <DOPAMINE D4>
5

>  <DOPAMINE D5>
5

>  <Dopamine transporter>
6.67

>  <HISTAMINE H1>
5.67

>  <HISTAMINE H2>
5

>  <HISTAMINE H4>
5

>  <Muscarinic acetylcholine receptor M1>
5

>  <Muscarinic acetylcholine receptor M2>
5

>  <Muscarinic acetylcholine receptor M3>
5

>  <Muscarinic acetylcholine receptor M4>
5

>  <Muscarinic acetylcholine receptor M5>
5

>  <Norepinephrine transporter>
5.76

>  <Serotonin transporter>
6.68

$$$$
515852
  Marvin  02231216192D 0   1.00000     0.00000     0

 24 28  0  0  1  0  0  0  0  0999 V2000
    3.5696   -0.3324    0.0000 O   0  0  0  0  0  0  0  0  0
    3.9434   -1.0678    0.0000 C   0  0  0  0  0  0  0  0  0
    3.3594   -1.6506    0.0000 C   0  0  0  0  0  0  0  0  0
    2.6247   -1.2753    0.0000 C   0  0  0  0  0  0  0  0  0
    2.7546   -0.4606    0.0000 C   0  0  0  0  0  0  0  0  0
    2.1140    0.0593    0.0000 C   0  0  0  0  0  0  0  0  0
    1.3435   -0.2355    0.0000 C   0  0  0  0  0  0  0  0  0
    1.2136   -1.0502    0.0000 C   0  0  0  0  0  0  0  0  0
    1.8542   -1.5701    0.0000 C   0  0  0  0  0  0  0  0  0
    1.7243   -2.3848    0.0000 N   0  0  0  0  0  0  0  0  0
    0.9537   -2.6797    0.0000 C   0  0  0  0  0  0  0  0  0
    0.3131   -2.1598    0.0000 N   0  0  0  0  0  0  0  0  0
    0.4431   -1.3451    0.0000 C   0  0  0  0  0  0  0  0  0
   -0.1975   -0.8252    0.0000 N   0  0  0  0  0  0  0  0  0
   -0.9680   -1.1201    0.0000 C   0  0  0  0  0  0  0  0  0
   -1.6086   -0.6002    0.0000 C   0  0  0  0  0  0  0  0  0
   -1.4787    0.2145    0.0000 N   0  0  0  0  0  0  0  0  0
   -0.7082    0.5094    0.0000 C   0  0  0  0  0  0  0  0  0
   -0.0676   -0.0105    0.0000 C   0  0  0  0  0  0  0  0  0
    0.8238   -3.4944    0.0000 N   0  0  0  0  0  0  0  0  0
    3.5721   -2.4477    0.0000 C   0  0  0  0  0  0  0  0  0
    4.3687   -2.6621    0.0000 C   0  0  0  0  0  0  0  0  0
    4.9527   -2.0793    0.0000 C   0  0  0  0  0  0  0  0  0
    4.7400   -1.2822    0.0000 C   0  0  0  0  0  0  0  0  0
  1  2  1  0  0  0  0
  1  5  1  0  0  0  0
  2  3  1  0  0  0  0
  2 24  1  0  0  0  0
  3  4  1  0  0  0  0
  3 21  1  0  0  0  0
  4  5  2  0  0  0  0
  4  9  1  0  0  0  0
  5  6  1  0  0  0  0
  6  7  1  0  0  0  0
  7  8  1  0  0  0  0
  8  9  4  0  0  0  0
  8 13  4  0  0  0  0
  9 10  4  0  0  0  0
 10 11  4  0  0  0  0
 11 12  4  0  0  0  0
 11 20  1  0  0  0  0
 12 13  4  0  0  0  0
 13 14  1  0  0  0  0
 14 15  1  0  0  0  0
 14 19  1  0  0  0  0
 15 16  1  0  0  0  0
 16 17  1  0  0  0  0
 17 18  1  0  0  0  0
 18 19  1  0  0  0  0
 21 22  1  0  0  0  0
 22 23  1  0  0  0  0
 23 24  1  0  0  0  0
M  END
>  <Name_Molregno>
515852

>  <5-HT1A>
9.18

>  <5-HT1B>
7.74

>  <5-HT2A>
8.89

>  <5-HT2C>
8.41

>  <5-HT3>
8.18

>  <5-HT5>
6.96

>  <5-HT6>
7.03

>  <5-HT7>
9.66

>  <Beta-1>
6.37

>  <Beta-2>
9.3

>  <DOPAMINE D1>
9.42

>  <DOPAMINE D2>
8.54

>  <DOPAMINE D3>
8.85

>  <DOPAMINE D5>
9.32

>  <Dopamine transporter>
8.05

>  <HISTAMINE H1>
7.05

>  <HISTAMINE H2>
5.91

>  <HISTAMINE H3>
6.03

>  <HISTAMINE H4>
8.24

>  <Muscarinic acetylcholine receptor M1>
7.6

>  <Muscarinic acetylcholine receptor M2>
7.44

>  <Muscarinic acetylcholine receptor M3>
9.38

>  <Muscarinic acetylcholine receptor M4>
9.18

>  <Muscarinic acetylcholine receptor M5>
9.38

>  <Norepinephrine transporter>
8.17

>  <Serotonin transporter>
8.49

$$$$
553887
  Marvin  02231216192D 0   1.00000     0.00000     0

 23 25  0  0  1  0  0  0  0  0999 V2000
    0.6714   -1.2321    0.0000 S   0  0  0  0  0  0  0  0  0
    1.4560   -0.9772    0.0000 O   0  0  0  0  0  0  0  0  0
    0.4164   -2.0168    0.0000 C   0  0  0  0  0  0  0  0  0
   -0.4086   -2.0168    0.0000 C   0  0  0  0  0  0  0  0  0
   -0.6635   -1.2321    0.0000 O   0  0  0  0  0  0  0  0  0
    0.0039   -0.7472    0.0000 C   0  0  0  0  0  0  0  0  0
    0.6112   -0.1888    0.0000 C   0  0  0  0  0  0  0  0  0
    0.4312    0.6163    0.0000 C   0  0  0  0  0  0  0  0  0
    1.0385    1.1748    0.0000 C   0  0  0  0  0  0  0  0  0
    1.8258    0.9280    0.0000 C   0  0  0  0  0  0  0  0  0
    2.0057    0.1229    0.0000 C   0  0  0  0  0  0  0  0  0
    1.3985   -0.4355    0.0000 C   0  0  0  0  0  0  0  0  0
   -0.4011   -0.0285    0.0000 C   0  0  0  0  0  0  0  0  0
   -1.2260   -0.0198    0.0000 C   0  0  0  0  0  0  0  0  0
   -1.6310    0.6989    0.0000 C   0  0  0  0  0  0  0  0  0
   -1.2111    1.4090    0.0000 C   0  0  0  0  0  0  0  0  0
   -0.3861    1.4004    0.0000 C   0  0  0  0  0  0  0  0  0
    0.0189    0.6816    0.0000 C   0  0  0  0  0  0  0  0  0
   -0.8935   -2.6842    0.0000 C   0  0  0  0  0  0  0  0  0
   -0.5579   -3.4379    0.0000 N   0  3  0  0  0  0  0  0  0
   -0.2224   -4.1916    0.0000 C   0  0  0  0  0  0  0  0  0
   -1.3116   -3.7734    0.0000 C   0  0  0  0  0  0  0  0  0
    0.1957   -3.1023    0.0000 C   0  0  0  0  0  0  0  0  0
  1  2  2  0  0  0  0
  1  3  1  0  0  0  0
  1  6  1  0  0  0  0
  3  4  1  0  0  0  0
  4  5  1  0  0  0  0
  4 19  1  0  0  0  0
  5  6  1  0  0  0  0
  6  7  1  0  0  0  0
  6 13  1  0  0  0  0
  7  8  1  0  0  0  0
  7 12  1  0  0  0  0
  8  9  1  0  0  0  0
  9 10  1  0  0  0  0
 10 11  1  0  0  0  0
 11 12  1  0  0  0  0
 13 14  4  0  0  0  0
 13 18  4  0  0  0  0
 14 15  4  0  0  0  0
 15 16  4  0  0  0  0
 16 17  4  0  0  0  0
 17 18  4  0  0  0  0
 19 20  1  0  0  0  0
 20 21  1  0  0  0  0
 20 22  1  0  0  0  0
 20 23  1  0  0  0  0
M  CHG  1  20   1
M  END
>  <Name_Molregno>
553887

>  <Muscarinic acetylcholine receptor M1>
7.66

>  <Muscarinic acetylcholine receptor M2>
7.13

>  <Muscarinic acetylcholine receptor M3>
7.46

>  <Muscarinic acetylcholine receptor M4>
7.02

>  <Muscarinic acetylcholine receptor M5>
6.85

$$$$
553977
  Marvin  02231216192D 0   1.00000     0.00000     0

 14 15  0  0  1  0  0  0  0  0999 V2000
   -2.0508    0.9462    0.0000 S   0  0  0  0  0  0  0  0  0
   -2.0508    1.7712    0.0000 O   0  0  0  0  0  0  0  0  0
   -1.3833    0.4612    0.0000 C   0  0  0  0  0  0  0  0  0
   -1.6383   -0.3234    0.0000 C   0  0  0  0  0  0  0  0  0
   -2.4633   -0.3234    0.0000 O   0  0  0  0  0  0  0  0  0
   -2.7182    0.4612    0.0000 C   0  0  0  0  0  0  0  0  0
   -3.5028    0.7162    0.0000 C   0  0  0  0  0  0  0  0  0
   -1.1533   -0.9908    0.0000 C   0  0  0  0  0  0  0  0  0
   -0.3283   -0.9908    0.0000 N   0  3  0  0  0  0  0  0  0
   -0.0734   -1.7754    0.0000 C   0  0  0  0  0  0  0  0  0
   -0.7408   -2.2604    0.0000 C   0  0  0  0  0  0  0  0  0
   -1.4083   -1.7754    0.0000 C   0  0  0  0  0  0  0  0  0
   -0.2335   -0.1713    0.0000 C   0  0  0  0  0  0  0  0  0
    0.4218   -0.6474    0.0000 C   0  0  0  0  0  0  0  0  0
  1  2  2  0  0  0  0
  1  3  1  0  0  0  0
  1  6  1  0  0  0  0
  3  4  1  0  0  0  0
  4  5  1  0  0  0  0
  4  8  1  0  0  0  0
  5  6  1  0  0  0  0
  6  7  1  0  0  0  0
  8  9  1  0  0  0  0
  8 12  1  0  0  0  0
  9 10  1  0  0  0  0
  9 13  1  0  0  0  0
  9 14  1  0  0  0  0
 10 11  1  0  0  0  0
 11 12  1  0  0  0  0
M  CHG  1   9   1
M  END
>  <Name_Molregno>
553977

>  <Muscarinic acetylcholine receptor M1>
4.01

>  <Muscarinic acetylcholine receptor M2>
4.41

>  <Muscarinic acetylcholine receptor M3>
4.06

>  <Muscarinic acetylcholine receptor M4>
4.04

>  <Muscarinic acetylcholine receptor M5>
4.14

$$$$
553979
  Marvin  02231216192D 0   1.00000     0.00000     0

 12 13  0  0  1  0  0  0  0  0999 V2000
    1.9603   -1.7757    0.0000 O   0  0  0  0  0  0  0  0  0
    1.7053   -2.5603    0.0000 C   0  0  0  0  0  0  0  0  0
    0.8803   -2.5603    0.0000 C   0  0  0  0  0  0  0  0  0
    0.6254   -1.7757    0.0000 C   0  0  0  0  0  0  0  0  0
    1.2928   -1.2908    0.0000 C   0  0  0  0  0  0  0  0  0
    1.2928   -0.4658    0.0000 C   0  0  0  0  0  0  0  0  0
    0.6254    0.0192    0.0000 N   0  3  0  0  0  0  0  0  0
    0.8803    0.8038    0.0000 C   0  0  0  0  0  0  0  0  0
    1.7053    0.8038    0.0000 C   0  0  0  0  0  0  0  0  0
    1.9603    0.0192    0.0000 C   0  0  0  0  0  0  0  0  0
    0.0670   -0.5881    0.0000 C   0  0  0  0  0  0  0  0  0
   -0.1833    0.1822    0.0000 C   0  0  0  0  0  0  0  0  0
  1  2  4  0  0  0  0
  1  5  4  0  0  0  0
  2  3  4  0  0  0  0
  3  4  4  0  0  0  0
  4  5  4  0  0  0  0
  5  6  1  0  0  0  0
  6  7  1  0  0  0  0
  6 10  1  0  0  0  0
  7  8  1  0  0  0  0
  7 11  1  0  0  0  0
  7 12  1  0  0  0  0
  8  9  1  0  0  0  0
  9 10  1  0  0  0  0
M  CHG  1   7   1
M  END
>  <Name_Molregno>
553979

>  <Muscarinic acetylcholine receptor M1>
4.69

>  <Muscarinic acetylcholine receptor M2>
5.14

>  <Muscarinic acetylcholine receptor M3>
4.99

>  <Muscarinic acetylcholine receptor M4>
4.8

>  <Muscarinic acetylcholine receptor M5>
4.94

$$$$
554062
  Marvin  02231216192D 0   1.00000     0.00000     0

 25 28  0  0  1  0  0  0  0  0999 V2000
    0.6517    0.7088    0.0000 S   0  0  0  0  0  0  0  0  0
    1.4363    0.9637    0.0000 O   0  0  0  0  0  0  0  0  0
    0.3968   -0.0758    0.0000 C   0  0  0  0  0  0  0  0  0
   -0.4282   -0.0758    0.0000 C   0  0  0  0  0  0  0  0  0
   -0.6832    0.7088    0.0000 O   0  0  0  0  0  0  0  0  0
   -0.0157    1.1937    0.0000 C   0  0  0  0  0  0  0  0  0
    0.5915    1.7521    0.0000 C   0  0  0  0  0  0  0  0  0
    0.4116    2.5573    0.0000 C   0  0  0  0  0  0  0  0  0
    1.0189    3.1157    0.0000 C   0  0  0  0  0  0  0  0  0
    1.8061    2.8690    0.0000 C   0  0  0  0  0  0  0  0  0
    1.9861    2.0639    0.0000 C   0  0  0  0  0  0  0  0  0
    1.3788    1.5054    0.0000 C   0  0  0  0  0  0  0  0  0
   -0.4207    1.9125    0.0000 C   0  0  0  0  0  0  0  0  0
   -1.2457    1.9211    0.0000 C   0  0  0  0  0  0  0  0  0
   -1.6507    2.6399    0.0000 C   0  0  0  0  0  0  0  0  0
   -1.2307    3.3500    0.0000 C   0  0  0  0  0  0  0  0  0
   -0.4058    3.3413    0.0000 C   0  0  0  0  0  0  0  0  0
   -0.0008    2.6226    0.0000 C   0  0  0  0  0  0  0  0  0
   -0.9132   -0.7433    0.0000 C   0  0  0  0  0  0  0  0  0
   -0.6582   -1.5279    0.0000 N   0  3  0  0  0  0  0  0  0
   -1.3257   -2.0128    0.0000 C   0  0  0  0  0  0  0  0  0
   -1.9931   -1.5279    0.0000 C   0  0  0  0  0  0  0  0  0
   -1.7382   -0.7433    0.0000 C   0  0  0  0  0  0  0  0  0
    0.1505   -1.3648    0.0000 C   0  0  0  0  0  0  0  0  0
   -0.0998   -2.1352    0.0000 C   0  0  0  0  0  0  0  0  0
  1  2  2  0  0  0  0
  1  3  1  0  0  0  0
  1  6  1  0  0  0  0
  3  4  1  0  0  0  0
  4  5  1  0  0  0  0
  4 19  1  0  0  0  0
  5  6  1  0  0  0  0
  6  7  1  0  0  0  0
  6 13  1  0  0  0  0
  7  8  1  0  0  0  0
  7 12  1  0  0  0  0
  8  9  1  0  0  0  0
  9 10  1  0  0  0  0
 10 11  1  0  0  0  0
 11 12  1  0  0  0  0
 13 14  4  0  0  0  0
 13 18  4  0  0  0  0
 14 15  4  0  0  0  0
 15 16  4  0  0  0  0
 16 17  4  0  0  0  0
 17 18  4  0  0  0  0
 19 20  1  0  0  0  0
 19 23  1  0  0  0  0
 20 21  1  0  0  0  0
 20 24  1  0  0  0  0
 20 25  1  0  0  0  0
 21 22  1  0  0  0  0
 22 23  1  0  0  0  0
M  CHG  1  20   1
M  END
>  <Name_Molregno>
554062

>  <Muscarinic acetylcholine receptor M1>
7.45

>  <Muscarinic acetylcholine receptor M2>
7.11

>  <Muscarinic acetylcholine receptor M3>
7.04

>  <Muscarinic acetylcholine receptor M4>
6.78

>  <Muscarinic acetylcholine receptor M5>
7.09

$$$$
554086
  Marvin  02231216192D 0   1.00000     0.00000     0

 13 14  0  0  1  0  0  0  0  0999 V2000
   -1.0414    1.5946    0.0000 O   0  0  0  0  0  0  0  0  0
   -1.2963    0.8100    0.0000 C   0  0  0  0  0  0  0  0  0
   -2.1213    0.8100    0.0000 C   0  0  0  0  0  0  0  0  0
   -2.3763    1.5946    0.0000 C   0  0  0  0  0  0  0  0  0
   -1.7088    2.0795    0.0000 C   0  0  0  0  0  0  0  0  0
   -1.7088    2.9045    0.0000 C   0  0  0  0  0  0  0  0  0
   -0.8114    0.1425    0.0000 C   0  0  0  0  0  0  0  0  0
    0.0136    0.1425    0.0000 N   0  3  0  0  0  0  0  0  0
    0.2685   -0.6421    0.0000 C   0  0  0  0  0  0  0  0  0
   -0.3989   -1.1270    0.0000 C   0  0  0  0  0  0  0  0  0
   -1.0663   -0.6421    0.0000 C   0  0  0  0  0  0  0  0  0
    0.1084    0.9621    0.0000 C   0  0  0  0  0  0  0  0  0
    0.7637    0.4860    0.0000 C   0  0  0  0  0  0  0  0  0
  1  2  4  0  0  0  0
  1  5  4  0  0  0  0
  2  3  4  0  0  0  0
  2  7  1  0  0  0  0
  3  4  4  0  0  0  0
  4  5  4  0  0  0  0
  5  6  1  0  0  0  0
  7  8  1  0  0  0  0
  7 11  1  0  0  0  0
  8  9  1  0  0  0  0
  8 12  1  0  0  0  0
  8 13  1  0  0  0  0
  9 10  1  0  0  0  0
 10 11  1  0  0  0  0
M  CHG  1   8   1
M  END
>  <Name_Molregno>
554086

>  <Muscarinic acetylcholine receptor M1>
5.08

>  <Muscarinic acetylcholine receptor M2>
5.69

>  <Muscarinic acetylcholine receptor M3>
5.28

>  <Muscarinic acetylcholine receptor M4>
5.17

>  <Muscarinic acetylcholine receptor M5>
5.26

$$$$
560798
  Marvin  02231216192D 0   1.00000     0.00000     0

 23 25  0  0  1  0  0  0  0  0999 V2000
   -1.7793    0.3152    0.0000 F   0  0  0  0  0  0  0  0  0
   -1.7793    1.1402    0.0000 C   0  0  0  0  0  0  0  0  0
   -0.9543    1.1402    0.0000 F   0  0  0  0  0  0  0  0  0
   -2.6043    1.1402    0.0000 F   0  0  0  0  0  0  0  0  0
   -1.7793    1.9652    0.0000 C   0  0  0  0  0  0  0  0  0
   -2.4938    2.3777    0.0000 C   0  0  0  0  0  0  0  0  0
   -2.4938    3.2027    0.0000 C   0  0  0  0  0  0  0  0  0
   -1.7793    3.6152    0.0000 C   0  0  0  0  0  0  0  0  0
   -1.0648    3.2027    0.0000 C   0  0  0  0  0  0  0  0  0
   -1.0648    2.3777    0.0000 C   0  0  0  0  0  0  0  0  0
   -0.3503    1.9652    0.0000 C   0  0  0  0  0  0  0  0  0
    0.3641    2.3777    0.0000 O   0  0  0  0  0  0  0  0  0
   -0.3503    1.1402    0.0000 N   0  0  0  0  0  0  0  0  0
   -1.0648    0.7277    0.0000 C   0  0  0  0  0  0  0  0  0
   -1.0648   -0.0973    0.0000 C   0  0  0  0  0  0  0  0  0
   -0.4815   -0.6806    0.0000 C   0  0  0  0  0  0  0  0  0
   -1.0648   -1.2640    0.0000 C   0  0  0  0  0  0  0  0  0
   -1.6482   -0.6806    0.0000 C   0  0  0  0  0  0  0  0  0
    0.3641    0.7277    0.0000 C   0  0  0  0  0  0  0  0  0
    0.4504   -0.0928    0.0000 C   0  0  0  0  0  0  0  0  0
    1.2573   -0.2643    0.0000 C   0  0  0  0  0  0  0  0  0
    1.6698    0.4502    0.0000 N   0  0  0  0  0  0  0  0  0
    1.1178    1.0633    0.0000 C   0  0  0  0  0  0  0  0  0
  1  2  1  0  0  0  0
  2  3  1  0  0  0  0
  2  4  1  0  0  0  0
  2  5  1  0  0  0  0
  5  6  4  0  0  0  0
  5 10  4  0  0  0  0
  6  7  4  0  0  0  0
  7  8  4  0  0  0  0
  8  9  4  0  0  0  0
  9 10  4  0  0  0  0
 10 11  1  0  0  0  0
 11 12  2  0  0  0  0
 11 13  1  0  0  0  0
 13 14  1  0  0  0  0
 13 19  1  0  0  0  0
 14 15  1  0  0  0  0
 15 16  1  0  0  0  0
 15 18  1  0  0  0  0
 16 17  1  0  0  0  0
 17 18  1  0  0  0  0
 19 20  1  0  0  0  0
 19 23  1  0  0  0  0
 20 21  1  0  0  0  0
 21 22  1  0  0  0  0
 22 23  1  0  0  0  0
M  END
>  <Name_Molregno>
560798

>  <Dopamine transporter>
5.52

>  <Muscarinic acetylcholine receptor M4>
5.37

>  <Muscarinic acetylcholine receptor M5>
5.74

>  <Norepinephrine transporter>
7.09

>  <Serotonin transporter>
6.22

$$$$
579658
  Marvin  02231216192D 0   1.00000     0.00000     0

 26 29  0  0  1  0  0  0  0  0999 V2000
    1.2570   -0.0134    0.0000 O   0  0  0  0  0  0  0  0  0
    1.0021   -0.7980    0.0000 C   0  0  0  0  0  0  0  0  0
    0.1771   -0.7980    0.0000 C   0  0  0  0  0  0  0  0  0
   -0.0778   -0.0134    0.0000 C   0  0  0  0  0  0  0  0  0
    0.5896    0.4715    0.0000 C   0  0  0  0  0  0  0  0  0
    0.5896    1.2965    0.0000 C   0  0  0  0  0  0  0  0  0
    1.4146    1.2965    0.0000 O   0  0  0  0  0  0  0  0  0
    0.5896    2.1215    0.0000 C   0  0  0  0  0  0  0  0  0
   -0.1249    2.5340    0.0000 C   0  0  0  0  0  0  0  0  0
   -0.1249    3.3590    0.0000 C   0  0  0  0  0  0  0  0  0
    0.5896    3.7715    0.0000 C   0  0  0  0  0  0  0  0  0
    1.3041    3.3590    0.0000 C   0  0  0  0  0  0  0  0  0
    1.3041    2.5340    0.0000 C   0  0  0  0  0  0  0  0  0
   -0.2354    1.2965    0.0000 C   0  0  0  0  0  0  0  0  0
   -0.6479    0.5820    0.0000 C   0  0  0  0  0  0  0  0  0
   -1.4729    0.5820    0.0000 C   0  0  0  0  0  0  0  0  0
   -1.8854    1.2965    0.0000 C   0  0  0  0  0  0  0  0  0
   -1.4729    2.0110    0.0000 C   0  0  0  0  0  0  0  0  0
   -0.6479    2.0110    0.0000 C   0  0  0  0  0  0  0  0  0
    1.4870   -1.4655    0.0000 C   0  0  0  0  0  0  0  0  0
    2.3120   -1.4655    0.0000 N   0  3  0  0  0  0  0  0  0
    2.5670   -2.2501    0.0000 C   0  0  0  0  0  0  0  0  0
    1.8995   -2.7350    0.0000 C   0  0  0  0  0  0  0  0  0
    1.2321   -2.2501    0.0000 C   0  0  0  0  0  0  0  0  0
    2.4068   -0.6459    0.0000 C   0  0  0  0  0  0  0  0  0
    3.0621   -1.1220    0.0000 C   0  0  0  0  0  0  0  0  0
  1  2  4  0  0  0  0
  1  5  4  0  0  0  0
  2  3  4  0  0  0  0
  2 20  1  0  0  0  0
  3  4  4  0  0  0  0
  4  5  4  0  0  0  0
  5  6  1  0  0  0  0
  6  7  1  0  0  0  0
  6  8  1  0  0  0  0
  6 14  1  0  0  0  0
  8  9  1  0  0  0  0
  8 13  1  0  0  0  0
  9 10  1  0  0  0  0
 10 11  1  0  0  0  0
 11 12  1  0  0  0  0
 12 13  1  0  0  0  0
 14 15  4  0  0  0  0
 14 19  4  0  0  0  0
 15 16  4  0  0  0  0
 16 17  4  0  0  0  0
 17 18  4  0  0  0  0
 18 19  4  0  0  0  0
 20 21  1  0  0  0  0
 20 24  1  0  0  0  0
 21 22  1  0  0  0  0
 21 25  1  0  0  0  0
 21 26  1  0  0  0  0
 22 23  1  0  0  0  0
 23 24  1  0  0  0  0
M  CHG  1  21   1
M  END
>  <Name_Molregno>
579658

>  <Muscarinic acetylcholine receptor M1>
7.89

>  <Muscarinic acetylcholine receptor M2>
7.5

>  <Muscarinic acetylcholine receptor M3>
7.59

>  <Muscarinic acetylcholine receptor M4>
7.15

>  <Muscarinic acetylcholine receptor M5>
7.47

$$$$
579659
  Marvin  02231216192D 0   1.00000     0.00000     0

 25 28  0  0  1  0  0  0  0  0999 V2000
    0.6445   -0.1524    0.0000 O   0  0  0  0  0  0  0  0  0
    0.3896   -0.9370    0.0000 C   0  0  0  0  0  0  0  0  0
   -0.4354   -0.9370    0.0000 C   0  0  0  0  0  0  0  0  0
   -0.6903   -0.1524    0.0000 C   0  0  0  0  0  0  0  0  0
   -0.0229    0.3326    0.0000 C   0  0  0  0  0  0  0  0  0
   -0.0229    1.1576    0.0000 C   0  0  0  0  0  0  0  0  0
   -0.7374    1.5701    0.0000 C   0  0  0  0  0  0  0  0  0
   -1.4518    1.1576    0.0000 C   0  0  0  0  0  0  0  0  0
   -2.1663    1.5701    0.0000 C   0  0  0  0  0  0  0  0  0
   -2.1663    2.3951    0.0000 C   0  0  0  0  0  0  0  0  0
   -1.4518    2.8076    0.0000 C   0  0  0  0  0  0  0  0  0
   -0.7374    2.3951    0.0000 C   0  0  0  0  0  0  0  0  0
    0.6916    1.5701    0.0000 C   0  0  0  0  0  0  0  0  0
    0.6916    2.3951    0.0000 C   0  0  0  0  0  0  0  0  0
    1.4060    2.8076    0.0000 C   0  0  0  0  0  0  0  0  0
    2.1205    2.3951    0.0000 C   0  0  0  0  0  0  0  0  0
    2.1205    1.5701    0.0000 C   0  0  0  0  0  0  0  0  0
    1.4060    1.1576    0.0000 C   0  0  0  0  0  0  0  0  0
    0.8745   -1.6044    0.0000 C   0  0  0  0  0  0  0  0  0
    1.6995   -1.6044    0.0000 N   0  3  0  0  0  0  0  0  0
    1.9545   -2.3891    0.0000 C   0  0  0  0  0  0  0  0  0
    1.2870   -2.8740    0.0000 C   0  0  0  0  0  0  0  0  0
    0.6196   -2.3891    0.0000 C   0  0  0  0  0  0  0  0  0
    1.7943   -0.7849    0.0000 C   0  0  0  0  0  0  0  0  0
    2.4496   -1.2610    0.0000 C   0  0  0  0  0  0  0  0  0
  1  2  4  0  0  0  0
  1  5  4  0  0  0  0
  2  3  4  0  0  0  0
  2 19  1  0  0  0  0
  3  4  4  0  0  0  0
  4  5  4  0  0  0  0
  5  6  1  0  0  0  0
  6  7  1  0  0  0  0
  6 13  1  0  0  0  0
  7  8  4  0  0  0  0
  7 12  4  0  0  0  0
  8  9  4  0  0  0  0
  9 10  4  0  0  0  0
 10 11  4  0  0  0  0
 11 12  4  0  0  0  0
 13 14  4  0  0  0  0
 13 18  4  0  0  0  0
 14 15  4  0  0  0  0
 15 16  4  0  0  0  0
 16 17  4  0  0  0  0
 17 18  4  0  0  0  0
 19 20  1  0  0  0  0
 19 23  1  0  0  0  0
 20 21  1  0  0  0  0
 20 24  1  0  0  0  0
 20 25  1  0  0  0  0
 21 22  1  0  0  0  0
 22 23  1  0  0  0  0
M  CHG  1  20   1
M  END
>  <Name_Molregno>
579659

>  <Muscarinic acetylcholine receptor M1>
8.06

>  <Muscarinic acetylcholine receptor M2>
7.82

>  <Muscarinic acetylcholine receptor M3>
7.84

>  <Muscarinic acetylcholine receptor M4>
7.57

>  <Muscarinic acetylcholine receptor M5>
7.65

$$$$
579694
  Marvin  02231216192D 0   1.00000     0.00000     0

 25 28  0  0  1  0  0  0  0  0999 V2000
    1.2346    0.1128    0.0000 O   0  0  0  0  0  0  0  0  0
    0.9797   -0.6718    0.0000 C   0  0  0  0  0  0  0  0  0
    0.1547   -0.6718    0.0000 C   0  0  0  0  0  0  0  0  0
   -0.1003    0.1128    0.0000 C   0  0  0  0  0  0  0  0  0
    0.5672    0.5977    0.0000 C   0  0  0  0  0  0  0  0  0
    0.5672    1.4227    0.0000 C   0  0  0  0  0  0  0  0  0
    1.3922    1.4227    0.0000 O   0  0  0  0  0  0  0  0  0
    0.5672    2.2477    0.0000 C   0  0  0  0  0  0  0  0  0
   -0.1473    2.6602    0.0000 C   0  0  0  0  0  0  0  0  0
   -0.1473    3.4852    0.0000 C   0  0  0  0  0  0  0  0  0
    0.5672    3.8977    0.0000 C   0  0  0  0  0  0  0  0  0
    1.2816    3.4852    0.0000 C   0  0  0  0  0  0  0  0  0
    1.2816    2.6602    0.0000 C   0  0  0  0  0  0  0  0  0
   -0.2578    1.4227    0.0000 C   0  0  0  0  0  0  0  0  0
   -0.6703    0.7082    0.0000 C   0  0  0  0  0  0  0  0  0
   -1.4953    0.7082    0.0000 C   0  0  0  0  0  0  0  0  0
   -1.9078    1.4227    0.0000 C   0  0  0  0  0  0  0  0  0
   -1.4953    2.1372    0.0000 C   0  0  0  0  0  0  0  0  0
   -0.6703    2.1372    0.0000 C   0  0  0  0  0  0  0  0  0
    1.4646   -1.3393    0.0000 C   0  0  0  0  0  0  0  0  0
    2.2896   -1.3393    0.0000 N   0  0  0  0  0  0  0  0  0
    2.5445   -2.1239    0.0000 C   0  0  0  0  0  0  0  0  0
    1.8771   -2.6088    0.0000 C   0  0  0  0  0  0  0  0  0
    1.2096   -2.1239    0.0000 C   0  0  0  0  0  0  0  0  0
    2.7745   -0.6718    0.0000 C   0  0  0  0  0  0  0  0  0
  1  2  4  0  0  0  0
  1  5  4  0  0  0  0
  2  3  4  0  0  0  0
  2 20  1  0  0  0  0
  3  4  4  0  0  0  0
  4  5  4  0  0  0  0
  5  6  1  0  0  0  0
  6  7  1  0  0  0  0
  6  8  1  0  0  0  0
  6 14  1  0  0  0  0
  8  9  1  0  0  0  0
  8 13  1  0  0  0  0
  9 10  1  0  0  0  0
 10 11  1  0  0  0  0
 11 12  1  0  0  0  0
 12 13  1  0  0  0  0
 14 15  4  0  0  0  0
 14 19  4  0  0  0  0
 15 16  4  0  0  0  0
 16 17  4  0  0  0  0
 17 18  4  0  0  0  0
 18 19  4  0  0  0  0
 20 21  1  0  0  0  0
 20 24  1  0  0  0  0
 21 22  1  0  0  0  0
 21 25  1  0  0  0  0
 22 23  1  0  0  0  0
 23 24  1  0  0  0  0
M  END
>  <Name_Molregno>
579694

>  <Muscarinic acetylcholine receptor M1>
7.59

>  <Muscarinic acetylcholine receptor M2>
7.2

>  <Muscarinic acetylcholine receptor M3>
7.3

>  <Muscarinic acetylcholine receptor M4>
7.04

>  <Muscarinic acetylcholine receptor M5>
7.22

$$$$
579792
  Marvin  02231216192D 0   1.00000     0.00000     0

 24 27  0  0  1  0  0  0  0  0999 V2000
    0.9637   -0.5567    0.0000 O   0  0  0  0  0  0  0  0  0
    0.7088   -1.3414    0.0000 C   0  0  0  0  0  0  0  0  0
   -0.1162   -1.3414    0.0000 C   0  0  0  0  0  0  0  0  0
   -0.3712   -0.5567    0.0000 C   0  0  0  0  0  0  0  0  0
    0.2963   -0.0718    0.0000 C   0  0  0  0  0  0  0  0  0
    0.2963    0.7532    0.0000 C   0  0  0  0  0  0  0  0  0
   -0.4182    1.1657    0.0000 C   0  0  0  0  0  0  0  0  0
   -1.1327    0.7532    0.0000 C   0  0  0  0  0  0  0  0  0
   -1.8471    1.1657    0.0000 C   0  0  0  0  0  0  0  0  0
   -1.8471    1.9907    0.0000 C   0  0  0  0  0  0  0  0  0
   -1.1327    2.4032    0.0000 C   0  0  0  0  0  0  0  0  0
   -0.4182    1.9907    0.0000 C   0  0  0  0  0  0  0  0  0
    1.0107    1.1657    0.0000 C   0  0  0  0  0  0  0  0  0
    1.0107    1.9907    0.0000 C   0  0  0  0  0  0  0  0  0
    1.7252    2.4032    0.0000 C   0  0  0  0  0  0  0  0  0
    2.4397    1.9907    0.0000 C   0  0  0  0  0  0  0  0  0
    2.4397    1.1657    0.0000 C   0  0  0  0  0  0  0  0  0
    1.7252    0.7532    0.0000 C   0  0  0  0  0  0  0  0  0
    1.1937   -2.0088    0.0000 C   0  0  0  0  0  0  0  0  0
    2.0187   -2.0088    0.0000 N   0  0  0  0  0  0  0  0  0
    2.2736   -2.7934    0.0000 C   0  0  0  0  0  0  0  0  0
    1.6062   -3.2783    0.0000 C   0  0  0  0  0  0  0  0  0
    0.9387   -2.7934    0.0000 C   0  0  0  0  0  0  0  0  0
    2.5036   -1.3414    0.0000 C   0  0  0  0  0  0  0  0  0
  1  2  4  0  0  0  0
  1  5  4  0  0  0  0
  2  3  4  0  0  0  0
  2 19  1  0  0  0  0
  3  4  4  0  0  0  0
  4  5  4  0  0  0  0
  5  6  1  0  0  0  0
  6  7  1  0  0  0  0
  6 13  1  0  0  0  0
  7  8  4  0  0  0  0
  7 12  4  0  0  0  0
  8  9  4  0  0  0  0
  9 10  4  0  0  0  0
 10 11  4  0  0  0  0
 11 12  4  0  0  0  0
 13 14  4  0  0  0  0
 13 18  4  0  0  0  0
 14 15  4  0  0  0  0
 15 16  4  0  0  0  0
 16 17  4  0  0  0  0
 17 18  4  0  0  0  0
 19 20  1  0  0  0  0
 19 23  1  0  0  0  0
 20 21  1  0  0  0  0
 20 24  1  0  0  0  0
 21 22  1  0  0  0  0
 22 23  1  0  0  0  0
M  END
>  <Name_Molregno>
579792

>  <Muscarinic acetylcholine receptor M1>
7.62

>  <Muscarinic acetylcholine receptor M2>
7.02

>  <Muscarinic acetylcholine receptor M3>
7.27

>  <Muscarinic acetylcholine receptor M4>
6.96

>  <Muscarinic acetylcholine receptor M5>
7.12

$$$$
591110
  Marvin  02231216192D 0   1.00000     0.00000     0

 27 31  0  0  1  0  0  0  0  0999 V2000
    0.4188    1.2437    0.0000 O   0  0  0  0  0  0  0  0  0
   -0.3658    0.9887    0.0000 C   0  0  0  0  0  0  0  0  0
   -0.3658    0.1637    0.0000 C   0  0  0  0  0  0  0  0  0
    0.4188   -0.0912    0.0000 O   0  0  0  0  0  0  0  0  0
    0.9037    0.5762    0.0000 C   0  0  0  0  0  0  0  0  0
   -1.0803   -0.2488    0.0000 C   0  0  0  0  0  0  0  0  0
   -1.7947    0.1637    0.0000 C   0  0  0  0  0  0  0  0  0
   -2.5092   -0.2488    0.0000 C   0  0  0  0  0  0  0  0  0
   -3.2237    0.1637    0.0000 C   0  0  0  0  0  0  0  0  0
   -3.9382   -0.2488    0.0000 N   0  0  0  0  0  0  0  0  0
   -4.6526    0.1637    0.0000 C   0  0  0  0  0  0  0  0  0
   -4.6526    0.9887    0.0000 C   0  0  0  0  0  0  0  0  0
   -3.9382    1.4012    0.0000 C   0  0  0  0  0  0  0  0  0
   -3.9382    2.2262    0.0000 C   0  0  0  0  0  0  0  0  0
   -3.2237    2.6387    0.0000 C   0  0  0  0  0  0  0  0  0
   -3.2237    3.4637    0.0000 C   0  0  0  0  0  0  0  0  0
   -3.9382    3.8762    0.0000 O   0  0  0  0  0  0  0  0  0
   -2.5092    3.8762    0.0000 C   0  0  0  0  0  0  0  0  0
   -2.5092    2.2262    0.0000 C   0  0  0  0  0  0  0  0  0
   -2.5092    1.4012    0.0000 C   0  0  0  0  0  0  0  0  0
   -3.2237    0.9887    0.0000 C   0  0  0  0  0  0  0  0  0
   -1.7947    0.9887    0.0000 C   0  0  0  0  0  0  0  0  0
   -1.0803    1.4012    0.0000 C   0  0  0  0  0  0  0  0  0
   -1.7947    2.6387    0.0000 C   0  0  0  0  0  0  0  0  0
   -1.0803    2.2262    0.0000 O   0  0  0  0  0  0  0  0  0
   -1.7947    3.4637    0.0000 C   0  0  0  0  0  0  0  0  0
   -3.9382   -1.0738    0.0000 C   0  0  0  0  0  0  0  0  0
  1  2  1  0  0  0  0
  1  5  1  0  0  0  0
  2  3  4  0  0  0  0
  2 23  4  0  0  0  0
  3  4  1  0  0  0  0
  3  6  4  0  0  0  0
  4  5  1  0  0  0  0
  6  7  4  0  0  0  0
  7  8  1  0  0  0  0
  7 22  4  0  0  0  0
  8  9  1  0  0  0  0
  9 10  1  0  0  0  0
  9 21  1  0  0  0  0
 10 11  1  0  0  0  0
 10 27  1  0  0  0  0
 11 12  1  0  0  0  0
 12 13  1  0  0  0  0
 13 14  4  0  0  0  0
 13 21  4  0  0  0  0
 14 15  4  0  0  0  0
 15 16  1  0  0  0  0
 15 19  4  0  0  0  0
 16 17  2  0  0  0  0
 16 18  1  0  0  0  0
 19 20  4  0  0  0  0
 19 24  1  0  0  0  0
 20 21  4  0  0  0  0
 20 22  1  0  0  0  0
 22 23  4  0  0  0  0
 24 25  2  0  0  0  0
 24 26  1  0  0  0  0
M  END
>  <Name_Molregno>
591110

>  <5-HT1B>
7

>  <5-HT1D>
7.31

>  <5-HT1E>
5

>  <5-HT2A>
6.08

>  <5-HT2C>
5.97

>  <5-HT3>
5

>  <5-HT5>
5.65

>  <5-HT6>
6.59

>  <5-HT7>
7.17

>  <Alpha-1A>
8.7

>  <Alpha-1B>
5.92

>  <Alpha-2A>
5.89

>  <Alpha-2B>
6.6

>  <Alpha-2C>
6.74

>  <Beta-1>
5.07

>  <Beta-2>
5

>  <DOPAMINE D1>
6.05

>  <DOPAMINE D2>
6.07

>  <DOPAMINE D3>
6.51

>  <DOPAMINE D4>
6.58

>  <DOPAMINE D5>
5.62

>  <Dopamine transporter>
5

>  <HISTAMINE H1>
5

>  <HISTAMINE H2>
6.17

>  <HISTAMINE H3>
5

>  <HISTAMINE H4>
5

>  <Muscarinic acetylcholine receptor M1>
5

>  <Muscarinic acetylcholine receptor M2>
5

>  <Muscarinic acetylcholine receptor M3>
5

>  <Muscarinic acetylcholine receptor M4>
5

>  <Norepinephrine transporter>
5

>  <Serotonin transporter>
6.61

$$$$
594645
  Marvin  02231216192D 0   1.00000     0.00000     0

 12 12  0  0  1  0  0  0  0  0999 V2000
    1.3116   -0.7167    0.0000 O   0  0  0  0  0  0  0  0  0
    1.3116   -1.5417    0.0000 C   0  0  0  0  0  0  0  0  0
    0.5972   -1.9542    0.0000 C   0  0  0  0  0  0  0  0  0
   -0.1173   -1.5417    0.0000 O   0  0  0  0  0  0  0  0  0
   -0.1173   -0.7167    0.0000 C   0  0  0  0  0  0  0  0  0
    0.5972   -0.3042    0.0000 C   0  0  0  0  0  0  0  0  0
    0.5972    0.5208    0.0000 C   0  0  0  0  0  0  0  0  0
   -0.1173    0.9333    0.0000 N   0  3  0  0  0  0  0  0  0
   -0.8318    1.3458    0.0000 C   0  0  0  0  0  0  0  0  0
   -0.5298    0.2189    0.0000 C   0  0  0  0  0  0  0  0  0
    0.2952    1.6478    0.0000 C   0  0  0  0  0  0  0  0  0
    0.5972   -2.7792    0.0000 C   0  0  0  0  0  0  0  0  0
  1  2  1  0  0  0  0
  1  6  1  0  0  0  0
  2  3  1  0  0  0  0
  3  4  1  0  0  0  0
  3 12  1  0  0  0  0
  4  5  1  0  0  0  0
  5  6  1  0  0  0  0
  6  7  1  0  0  0  0
  7  8  1  0  0  0  0
  8  9  1  0  0  0  0
  8 10  1  0  0  0  0
  8 11  1  0  0  0  0
M  CHG  1   8   1
M  END
>  <Name_Molregno>
594645

>  <Muscarinic acetylcholine receptor M1>
4

>  <Muscarinic acetylcholine receptor M2>
4.86

>  <Muscarinic acetylcholine receptor M3>
4.26

>  <Muscarinic acetylcholine receptor M4>
4.02

>  <Muscarinic acetylcholine receptor M5>
4.12

$$$$
594646
  Marvin  02231216192D 0   1.00000     0.00000     0

 13 13  0  0  1  0  0  0  0  0999 V2000
    1.4723   -0.8357    0.0000 O   0  0  0  0  0  0  0  0  0
    1.4723   -1.6607    0.0000 C   0  0  0  0  0  0  0  0  0
    2.1868   -2.0732    0.0000 C   0  0  0  0  0  0  0  0  0
    0.7579   -2.0732    0.0000 C   0  0  0  0  0  0  0  0  0
    0.0434   -1.6607    0.0000 O   0  0  0  0  0  0  0  0  0
    0.0434   -0.8357    0.0000 C   0  0  0  0  0  0  0  0  0
    0.7579   -0.4232    0.0000 C   0  0  0  0  0  0  0  0  0
    0.7579    0.4018    0.0000 C   0  0  0  0  0  0  0  0  0
    0.0434    0.8143    0.0000 N   0  3  0  0  0  0  0  0  0
   -0.6711    1.2268    0.0000 C   0  0  0  0  0  0  0  0  0
   -0.3691    0.0999    0.0000 C   0  0  0  0  0  0  0  0  0
    0.4559    1.5288    0.0000 C   0  0  0  0  0  0  0  0  0
    0.7579   -2.8982    0.0000 C   0  0  0  0  0  0  0  0  0
  1  2  1  0  0  0  0
  1  7  1  0  0  0  0
  2  3  1  0  0  0  0
  2  4  1  0  0  0  0
  4  5  1  0  0  0  0
  4 13  1  0  0  0  0
  5  6  1  0  0  0  0
  6  7  1  0  0  0  0
  7  8  1  0  0  0  0
  8  9  1  0  0  0  0
  9 10  1  0  0  0  0
  9 11  1  0  0  0  0
  9 12  1  0  0  0  0
M  CHG  1   9   1
M  END
>  <Name_Molregno>
594646

>  <Muscarinic acetylcholine receptor M1>
4.15

>  <Muscarinic acetylcholine receptor M2>
4.6

>  <Muscarinic acetylcholine receptor M3>
4.24

>  <Muscarinic acetylcholine receptor M4>
4.13

>  <Muscarinic acetylcholine receptor M5>
4.21

$$$$
594719
  Marvin  02231216192D 0   1.00000     0.00000     0

 13 13  0  0  1  0  0  0  0  0999 V2000
    0.4402    0.2765    0.0000 O   0  0  0  0  0  0  0  0  0
    1.1547    0.6890    0.0000 C   0  0  0  0  0  0  0  0  0
    1.8691    0.2765    0.0000 C   0  0  0  0  0  0  0  0  0
    1.8691   -0.5485    0.0000 O   0  0  0  0  0  0  0  0  0
    1.1547   -0.9610    0.0000 C   0  0  0  0  0  0  0  0  0
    0.4402   -0.5485    0.0000 C   0  0  0  0  0  0  0  0  0
   -0.2743   -0.9610    0.0000 C   0  0  0  0  0  0  0  0  0
   -0.2743   -1.7860    0.0000 N   0  3  0  0  0  0  0  0  0
   -0.2743   -2.6110    0.0000 C   0  0  0  0  0  0  0  0  0
   -1.0993   -1.7860    0.0000 C   0  0  0  0  0  0  0  0  0
    0.5507   -1.7860    0.0000 C   0  0  0  0  0  0  0  0  0
    0.7673    1.4174    0.0000 C   0  0  0  0  0  0  0  0  0
    1.5420    1.4174    0.0000 C   0  0  0  0  0  0  0  0  0
  1  2  1  0  0  0  0
  1  6  1  0  0  0  0
  2  3  1  0  0  0  0
  2 12  1  0  0  0  0
  2 13  1  0  0  0  0
  3  4  1  0  0  0  0
  4  5  1  0  0  0  0
  5  6  1  0  0  0  0
  6  7  1  0  0  0  0
  7  8  1  0  0  0  0
  8  9  1  0  0  0  0
  8 10  1  0  0  0  0
  8 11  1  0  0  0  0
M  CHG  1   8   1
M  END
>  <Name_Molregno>
594719

>  <Muscarinic acetylcholine receptor M1>
4.32

>  <Muscarinic acetylcholine receptor M2>
4.74

>  <Muscarinic acetylcholine receptor M3>
4.67

>  <Muscarinic acetylcholine receptor M4>
4.35

>  <Muscarinic acetylcholine receptor M5>
4.55

$$$$
594720
  Marvin  02231216192D 0   1.00000     0.00000     0

 13 13  0  0  1  0  0  0  0  0999 V2000
   -0.5034    0.5368    0.0000 O   0  0  0  0  0  0  0  0  0
   -0.5034   -0.2882    0.0000 C   0  0  0  0  0  0  0  0  0
   -1.2179   -0.7007    0.0000 C   0  0  0  0  0  0  0  0  0
   -1.9324   -0.2882    0.0000 O   0  0  0  0  0  0  0  0  0
   -1.9324    0.5368    0.0000 C   0  0  0  0  0  0  0  0  0
   -1.2179    0.9493    0.0000 C   0  0  0  0  0  0  0  0  0
   -0.8306    1.6778    0.0000 C   0  0  0  0  0  0  0  0  0
   -1.6052    1.6778    0.0000 C   0  0  0  0  0  0  0  0  0
   -1.2179   -1.5257    0.0000 C   0  0  0  0  0  0  0  0  0
   -0.5034   -1.9382    0.0000 N   0  3  0  0  0  0  0  0  0
    0.2110   -2.3507    0.0000 C   0  0  0  0  0  0  0  0  0
   -0.9159   -2.6526    0.0000 C   0  0  0  0  0  0  0  0  0
   -0.0909   -1.2237    0.0000 C   0  0  0  0  0  0  0  0  0
  1  2  1  0  0  0  0
  1  6  1  0  0  0  0
  2  3  1  0  0  0  0
  3  4  1  0  0  0  0
  3  9  1  0  0  0  0
  4  5  1  0  0  0  0
  5  6  1  0  0  0  0
  6  7  1  0  0  0  0
  6  8  1  0  0  0  0
  9 10  1  0  0  0  0
 10 11  1  0  0  0  0
 10 12  1  0  0  0  0
 10 13  1  0  0  0  0
M  CHG  1  10   1
M  END
>  <Name_Molregno>
594720

>  <Muscarinic acetylcholine receptor M1>
4

>  <Muscarinic acetylcholine receptor M2>
4.02

>  <Muscarinic acetylcholine receptor M3>
4.11

>  <Muscarinic acetylcholine receptor M4>
4

>  <Muscarinic acetylcholine receptor M5>
4

$$$$
594721
  Marvin  02231216192D 0   1.00000     0.00000     0

 14 14  0  0  1  0  0  0  0  0999 V2000
   -0.4049   -0.6653    0.0000 O   0  0  0  0  0  0  0  0  0
   -0.4049    0.1597    0.0000 C   0  0  0  0  0  0  0  0  0
   -1.1194    0.5722    0.0000 C   0  0  0  0  0  0  0  0  0
    0.3095    0.5722    0.0000 C   0  0  0  0  0  0  0  0  0
    1.0240    0.1597    0.0000 O   0  0  0  0  0  0  0  0  0
    1.0240   -0.6653    0.0000 C   0  0  0  0  0  0  0  0  0
    0.3095   -1.0778    0.0000 C   0  0  0  0  0  0  0  0  0
    0.3095   -1.9028    0.0000 C   0  0  0  0  0  0  0  0  0
    1.0240   -2.3153    0.0000 N   0  3  0  0  0  0  0  0  0
    1.7385   -2.7278    0.0000 C   0  0  0  0  0  0  0  0  0
    1.4365   -1.6008    0.0000 C   0  0  0  0  0  0  0  0  0
    0.6115   -3.0297    0.0000 C   0  0  0  0  0  0  0  0  0
   -0.0778    1.3007    0.0000 C   0  0  0  0  0  0  0  0  0
    0.6968    1.3007    0.0000 C   0  0  0  0  0  0  0  0  0
  1  2  1  0  0  0  0
  1  7  1  0  0  0  0
  2  3  1  0  0  0  0
  2  4  1  0  0  0  0
  4  5  1  0  0  0  0
  4 13  1  0  0  0  0
  4 14  1  0  0  0  0
  5  6  1  0  0  0  0
  6  7  1  0  0  0  0
  7  8  1  0  0  0  0
  8  9  1  0  0  0  0
  9 10  1  0  0  0  0
  9 11  1  0  0  0  0
  9 12  1  0  0  0  0
M  CHG  1   9   1
M  END
>  <Name_Molregno>
594721

>  <Muscarinic acetylcholine receptor M1>
4.1

>  <Muscarinic acetylcholine receptor M2>
4.18

>  <Muscarinic acetylcholine receptor M3>
4.41

>  <Muscarinic acetylcholine receptor M4>
4.15

>  <Muscarinic acetylcholine receptor M5>
4.18

$$$$
594756
  Marvin  02231216192D 0   1.00000     0.00000     0

 14 14  0  0  1  0  0  0  0  0999 V2000
    0.1563    0.1258    0.0000 O   0  0  0  0  0  0  0  0  0
    0.8707    0.5383    0.0000 C   0  0  0  0  0  0  0  0  0
    0.3404    1.1702    0.0000 C   0  0  0  0  0  0  0  0  0
    1.4010    1.1702    0.0000 C   0  0  0  0  0  0  0  0  0
    1.5852    0.1258    0.0000 C   0  0  0  0  0  0  0  0  0
    1.5852   -0.6992    0.0000 O   0  0  0  0  0  0  0  0  0
    0.8707   -1.1117    0.0000 C   0  0  0  0  0  0  0  0  0
    0.1563   -0.6992    0.0000 C   0  0  0  0  0  0  0  0  0
   -0.5582   -1.1117    0.0000 C   0  0  0  0  0  0  0  0  0
   -0.5582   -1.9367    0.0000 N   0  3  0  0  0  0  0  0  0
   -0.5582   -2.7617    0.0000 C   0  0  0  0  0  0  0  0  0
    0.2668   -1.9367    0.0000 C   0  0  0  0  0  0  0  0  0
   -1.3832   -1.9367    0.0000 C   0  0  0  0  0  0  0  0  0
    2.2997    0.5383    0.0000 C   0  0  0  0  0  0  0  0  0
  1  2  1  0  0  0  0
  1  8  1  0  0  0  0
  2  3  1  0  0  0  0
  2  4  1  0  0  0  0
  2  5  1  0  0  0  0
  5  6  1  0  0  0  0
  5 14  1  0  0  0  0
  6  7  1  0  0  0  0
  7  8  1  0  0  0  0
  8  9  1  0  0  0  0
  9 10  1  0  0  0  0
 10 11  1  0  0  0  0
 10 12  1  0  0  0  0
 10 13  1  0  0  0  0
M  CHG  1  10   1
M  END
>  <Name_Molregno>
594756

>  <Muscarinic acetylcholine receptor M1>
4.56

>  <Muscarinic acetylcholine receptor M2>
4.51

>  <Muscarinic acetylcholine receptor M3>
4.89

>  <Muscarinic acetylcholine receptor M4>
4.56

>  <Muscarinic acetylcholine receptor M5>
4.64

$$$$
594758
  Marvin  02231216192D 0   1.00000     0.00000     0

 15 15  0  0  1  0  0  0  0  0999 V2000
   -0.4377   -0.7003    0.0000 O   0  0  0  0  0  0  0  0  0
   -0.4377    0.1247    0.0000 C   0  0  0  0  0  0  0  0  0
   -1.2501   -0.0186    0.0000 C   0  0  0  0  0  0  0  0  0
   -0.7198    0.8999    0.0000 C   0  0  0  0  0  0  0  0  0
    0.2768    0.5372    0.0000 C   0  0  0  0  0  0  0  0  0
    0.9913    0.1247    0.0000 O   0  0  0  0  0  0  0  0  0
    0.9913   -0.7003    0.0000 C   0  0  0  0  0  0  0  0  0
    0.2768   -1.1128    0.0000 C   0  0  0  0  0  0  0  0  0
    0.2768   -1.9378    0.0000 C   0  0  0  0  0  0  0  0  0
    0.9913   -2.3503    0.0000 N   0  3  0  0  0  0  0  0  0
    1.7057   -2.7628    0.0000 C   0  0  0  0  0  0  0  0  0
    1.4038   -1.6359    0.0000 C   0  0  0  0  0  0  0  0  0
    0.5788   -3.0648    0.0000 C   0  0  0  0  0  0  0  0  0
   -0.1105    1.2656    0.0000 C   0  0  0  0  0  0  0  0  0
    0.6641    1.2656    0.0000 C   0  0  0  0  0  0  0  0  0
  1  2  1  0  0  0  0
  1  8  1  0  0  0  0
  2  3  1  0  0  0  0
  2  4  1  0  0  0  0
  2  5  1  0  0  0  0
  5  6  1  0  0  0  0
  5 14  1  0  0  0  0
  5 15  1  0  0  0  0
  6  7  1  0  0  0  0
  7  8  1  0  0  0  0
  8  9  1  0  0  0  0
  9 10  1  0  0  0  0
 10 11  1  0  0  0  0
 10 12  1  0  0  0  0
 10 13  1  0  0  0  0
M  CHG  1  10   1
M  END
>  <Name_Molregno>
594758

>  <Muscarinic acetylcholine receptor M1>
4

>  <Muscarinic acetylcholine receptor M2>
4.33

>  <Muscarinic acetylcholine receptor M3>
4.39

>  <Muscarinic acetylcholine receptor M4>
4.27

>  <Muscarinic acetylcholine receptor M5>
4.18

$$$$
608576
  Marvin  02231216192D 0   1.00000     0.00000     0

 26 29  0  0  1  0  0  0  0  0999 V2000
    0.8469   -3.8121    0.0000 S   0  0  0  0  0  0  0  0  0
    1.5614   -3.3996    0.0000 C   0  0  0  0  0  0  0  0  0
    1.5614   -2.5746    0.0000 C   0  0  0  0  0  0  0  0  0
    0.8469   -2.1621    0.0000 N   0  0  0  0  0  0  0  0  0
    0.1324   -2.5746    0.0000 C   0  0  0  0  0  0  0  0  0
    0.1324   -3.3996    0.0000 C   0  0  0  0  0  0  0  0  0
   -0.5820   -3.8121    0.0000 C   0  0  0  0  0  0  0  0  0
   -1.2965   -3.3996    0.0000 C   0  0  0  0  0  0  0  0  0
   -1.2965   -2.5746    0.0000 C   0  0  0  0  0  0  0  0  0
   -0.5820   -2.1621    0.0000 C   0  0  0  0  0  0  0  0  0
    0.8469   -1.3371    0.0000 C   0  0  0  0  0  0  0  0  0
    0.1324   -0.9246    0.0000 C   0  0  0  0  0  0  0  0  0
    0.1324   -0.0996    0.0000 C   0  0  0  0  0  0  0  0  0
   -0.5820    0.3129    0.0000 N   0  0  0  0  0  0  0  0  0
   -0.5820    1.1379    0.0000 C   0  0  0  0  0  0  0  0  0
    0.1324    1.5504    0.0000 C   0  0  0  0  0  0  0  0  0
    0.8469    1.1379    0.0000 C   0  0  0  0  0  0  0  0  0
    0.8469    0.3129    0.0000 C   0  0  0  0  0  0  0  0  0
   -1.2965   -0.0996    0.0000 C   0  0  0  0  0  0  0  0  0
    2.2758   -2.1621    0.0000 C   0  0  0  0  0  0  0  0  0
    2.9903   -2.5746    0.0000 C   0  0  0  0  0  0  0  0  0
    3.7048   -2.1621    0.0000 S   0  0  0  0  0  0  0  0  0
    3.7048   -1.3371    0.0000 O   0  0  0  0  0  0  0  0  0
    4.4193   -2.5746    0.0000 C   0  0  0  0  0  0  0  0  0
    2.9903   -3.3996    0.0000 C   0  0  0  0  0  0  0  0  0
    2.2758   -3.8121    0.0000 C   0  0  0  0  0  0  0  0  0
  1  2  1  0  0  0  0
  1  6  1  0  0  0  0
  2  3  4  0  0  0  0
  2 26  4  0  0  0  0
  3  4  1  0  0  0  0
  3 20  4  0  0  0  0
  4  5  1  0  0  0  0
  4 11  1  0  0  0  0
  5  6  4  0  0  0  0
  5 10  4  0  0  0  0
  6  7  4  0  0  0  0
  7  8  4  0  0  0  0
  8  9  4  0  0  0  0
  9 10  4  0  0  0  0
 11 12  1  0  0  0  0
 12 13  1  0  0  0  0
 13 14  1  0  0  0  0
 13 18  1  0  0  0  0
 14 15  1  0  0  0  0
 14 19  1  0  0  0  0
 15 16  1  0  0  0  0
 16 17  1  0  0  0  0
 17 18  1  0  0  0  0
 20 21  4  0  0  0  0
 21 22  1  0  0  0  0
 21 25  4  0  0  0  0
 22 23  2  0  0  0  0
 22 24  1  0  0  0  0
 25 26  4  0  0  0  0
M  END
>  <Name_Molregno>
608576

>  <5-HT1A>
6.76

>  <5-HT2A>
8.12

>  <5-HT2C>
6.8

>  <5-HT6>
6.42

>  <DOPAMINE D1>
6.35

>  <DOPAMINE D2>
7.31

>  <DOPAMINE D3>
7.51

>  <DOPAMINE D4>
8.04

>  <HISTAMINE H1>
8.74

>  <Muscarinic acetylcholine receptor M1>
8

>  <Muscarinic acetylcholine receptor M2>
7.82

>  <Muscarinic acetylcholine receptor M3>
7.05

>  <Muscarinic acetylcholine receptor M4>
7.72

>  <Muscarinic acetylcholine receptor M5>
7.22

$$$$
608578
  Marvin  02231216192D 0   1.00000     0.00000     0

 13 14  0  0  1  0  0  0  0  0999 V2000
   -1.8574    0.8511    0.0000 S   0  0  0  0  0  0  0  0  0
   -1.8574    1.6761    0.0000 O   0  0  0  0  0  0  0  0  0
   -1.1899    0.3662    0.0000 C   0  0  0  0  0  0  0  0  0
   -1.4449   -0.4185    0.0000 C   0  0  0  0  0  0  0  0  0
   -2.2699   -0.4185    0.0000 O   0  0  0  0  0  0  0  0  0
   -2.5248    0.3662    0.0000 C   0  0  0  0  0  0  0  0  0
   -3.3094    0.6211    0.0000 C   0  0  0  0  0  0  0  0  0
   -0.9599   -1.0859    0.0000 C   0  0  0  0  0  0  0  0  0
   -0.1349   -1.0859    0.0000 N   0  0  0  0  0  0  0  0  0
    0.1200   -1.8705    0.0000 C   0  0  0  0  0  0  0  0  0
   -0.5474   -2.3555    0.0000 C   0  0  0  0  0  0  0  0  0
   -1.2149   -1.8705    0.0000 C   0  0  0  0  0  0  0  0  0
    0.3500   -0.4185    0.0000 C   0  0  0  0  0  0  0  0  0
  1  2  2  0  0  0  0
  1  3  1  0  0  0  0
  1  6  1  0  0  0  0
  3  4  1  0  0  0  0
  4  5  1  0  0  0  0
  4  8  1  0  0  0  0
  5  6  1  0  0  0  0
  6  7  1  0  0  0  0
  8  9  1  0  0  0  0
  8 12  1  0  0  0  0
  9 10  1  0  0  0  0
  9 13  1  0  0  0  0
 10 11  1  0  0  0  0
 11 12  1  0  0  0  0
M  END
>  <Name_Molregno>
608578

>  <Muscarinic acetylcholine receptor M1>
4

>  <Muscarinic acetylcholine receptor M2>
4.01

>  <Muscarinic acetylcholine receptor M3>
4

>  <Muscarinic acetylcholine receptor M4>
4

>  <Muscarinic acetylcholine receptor M5>
4

$$$$
608723
  Marvin  02231216192D 0   1.00000     0.00000     0

 12 13  0  0  1  0  0  0  0  0999 V2000
   -1.7465    0.9687    0.0000 O   0  0  0  0  0  0  0  0  0
   -2.4547    0.5455    0.0000 C   0  0  0  0  0  0  0  0  0
   -3.1752    0.9473    0.0000 O   0  0  0  0  0  0  0  0  0
   -2.4423   -0.2794    0.0000 C   0  0  0  0  0  0  0  0  0
   -1.0259    0.5670    0.0000 C   0  0  0  0  0  0  0  0  0
   -0.2221    0.9189    0.0000 C   0  0  0  0  0  0  0  0  0
    0.5165    0.5866    0.0000 C   0  0  0  0  0  0  0  0  0
    0.6691   -0.1764    0.0000 C   0  0  0  0  0  0  0  0  0
   -0.0794    0.1705    0.0000 N   0  0  0  0  0  0  0  0  0
   -0.9187   -0.1884    0.0000 C   0  0  0  0  0  0  0  0  0
    0.0603    1.2091    0.0000 C   0  0  0  0  0  0  0  0  0
   -0.1844    1.8150    0.0000 C   0  0  0  0  0  0  0  0  0
  1  2  1  0  0  0  0
  1  5  1  0  0  0  0
  2  3  2  0  0  0  0
  2  4  1  0  0  0  0
  5  6  1  0  0  0  0
  5 10  1  0  0  0  0
  6  7  1  0  0  0  0
  6 12  1  0  0  0  0
  7  8  1  0  0  0  0
  8  9  1  0  0  0  0
  9 10  1  0  0  0  0
  9 11  1  0  0  0  0
 11 12  1  0  0  0  0
M  END
>  <Name_Molregno>
608723

>  <Muscarinic acetylcholine receptor M2>
5.93

>  <Muscarinic acetylcholine receptor M4>
5.19

$$$$
675999
  Marvin  02231216192D 0   1.00000     0.00000     0

 27 27  0  0  0  0  0  0  0  0999 V2000
  -10.4077   -0.0135    0.0000 O   0  0  0  0  0  0  0  0  0
  -11.1221   -0.4260    0.0000 C   0  0  0  0  0  0  0  0  0
  -11.8366   -0.8385    0.0000 C   0  0  0  0  0  0  0  0  0
  -10.7096   -1.1405    0.0000 C   0  0  0  0  0  0  0  0  0
  -11.5346    0.2885    0.0000 C   0  0  0  0  0  0  0  0  0
   -9.6932   -0.4260    0.0000 C   0  0  0  0  0  0  0  0  0
   -9.6932   -1.2510    0.0000 O   0  0  0  0  0  0  0  0  0
   -8.9787   -0.0135    0.0000 N   0  0  0  0  0  0  0  0  0
   -8.2643   -0.4260    0.0000 C   0  0  0  0  0  0  0  0  0
   -7.5498   -0.0135    0.0000 C   0  0  0  0  0  0  0  0  0
   -6.8353   -0.4260    0.0000 C   0  0  0  0  0  0  0  0  0
   -6.1209   -0.0135    0.0000 C   0  0  0  0  0  0  0  0  0
   -5.4064   -0.4260    0.0000 C   0  0  0  0  0  0  0  0  0
   -4.6919   -0.0135    0.0000 C   0  0  0  0  0  0  0  0  0
   -3.9774   -0.4260    0.0000 C   0  0  0  0  0  0  0  0  0
   -3.9774   -1.2510    0.0000 O   0  0  0  0  0  0  0  0  0
   -3.2630   -0.0135    0.0000 N   0  0  0  0  0  0  0  0  0
   -2.5485   -0.4260    0.0000 C   0  0  0  0  0  0  0  0  0
   -1.8340   -0.0135    0.0000 C   0  0  0  0  0  0  0  0  0
   -1.1196    0.3990    0.0000 C   0  0  0  0  0  0  0  0  0
   -0.4051    0.8115    0.0000 C   0  0  0  0  0  0  0  0  0
    0.3094    0.3990    0.0000 N   0  0  0  0  0  0  0  0  0
    1.0631    0.7346    0.0000 C   0  0  0  0  0  0  0  0  0
    1.6151    0.1215    0.0000 C   0  0  0  0  0  0  0  0  0
    1.2026   -0.5930    0.0000 C   0  0  0  0  0  0  0  0  0
    0.3956   -0.4215    0.0000 C   0  0  0  0  0  0  0  0  0
   -3.2630    0.8115    0.0000 C   0  0  0  0  0  0  0  0  0
  1  2  1  0  0  0  0
  1  6  1  0  0  0  0
  2  3  1  0  0  0  0
  2  4  1  0  0  0  0
  2  5  1  0  0  0  0
  6  7  2  0  0  0  0
  6  8  1  0  0  0  0
  8  9  1  0  0  0  0
  9 10  1  0  0  0  0
 10 11  1  0  0  0  0
 11 12  1  0  0  0  0
 12 13  1  0  0  0  0
 13 14  1  0  0  0  0
 14 15  1  0  0  0  0
 15 16  2  0  0  0  0
 15 17  1  0  0  0  0
 17 18  1  0  0  0  0
 17 27  1  0  0  0  0
 18 19  1  0  0  0  0
 19 20  3  0  0  0  0
 20 21  1  0  0  0  0
 21 22  1  0  0  0  0
 22 23  1  0  0  0  0
 22 26  1  0  0  0  0
 23 24  1  0  0  0  0
 24 25  1  0  0  0  0
 25 26  1  0  0  0  0
M  END
>  <Name_Molregno>
675999

>  <Muscarinic acetylcholine receptor M1>
4.96

>  <Muscarinic acetylcholine receptor M2>
4.96

>  <Muscarinic acetylcholine receptor M3>
4.96

>  <Muscarinic acetylcholine receptor M4>
4.96

>  <Muscarinic acetylcholine receptor M5>
4.96

$$$$
676003
  Marvin  02231216192D 0   1.00000     0.00000     0

 28 28  0  0  0  0  0  0  0  0999 V2000
  -10.7168    0.7284    0.0000 O   0  0  0  0  0  0  0  0  0
  -11.4313    1.1409    0.0000 C   0  0  0  0  0  0  0  0  0
  -12.1458    1.5534    0.0000 C   0  0  0  0  0  0  0  0  0
  -11.8438    0.4265    0.0000 C   0  0  0  0  0  0  0  0  0
  -11.0188    1.8554    0.0000 C   0  0  0  0  0  0  0  0  0
  -10.0024    1.1409    0.0000 C   0  0  0  0  0  0  0  0  0
  -10.0024    1.9659    0.0000 O   0  0  0  0  0  0  0  0  0
   -9.2879    0.7284    0.0000 N   0  0  0  0  0  0  0  0  0
   -8.5734    1.1409    0.0000 C   0  0  0  0  0  0  0  0  0
   -7.8589    0.7284    0.0000 C   0  0  0  0  0  0  0  0  0
   -7.1445    1.1409    0.0000 C   0  0  0  0  0  0  0  0  0
   -6.4300    0.7284    0.0000 C   0  0  0  0  0  0  0  0  0
   -5.7155    1.1409    0.0000 C   0  0  0  0  0  0  0  0  0
   -5.0011    0.7284    0.0000 C   0  0  0  0  0  0  0  0  0
   -4.2866    1.1409    0.0000 C   0  0  0  0  0  0  0  0  0
   -3.5721    0.7284    0.0000 C   0  0  0  0  0  0  0  0  0
   -3.5721   -0.0966    0.0000 O   0  0  0  0  0  0  0  0  0
   -2.8576    1.1409    0.0000 N   0  0  0  0  0  0  0  0  0
   -2.1432    0.7284    0.0000 C   0  0  0  0  0  0  0  0  0
   -1.4287    1.1409    0.0000 C   0  0  0  0  0  0  0  0  0
   -0.7142    1.5534    0.0000 C   0  0  0  0  0  0  0  0  0
    0.0002    1.9659    0.0000 C   0  0  0  0  0  0  0  0  0
    0.7147    1.5534    0.0000 N   0  0  0  0  0  0  0  0  0
    1.4684    1.8890    0.0000 C   0  0  0  0  0  0  0  0  0
    2.0204    1.2759    0.0000 C   0  0  0  0  0  0  0  0  0
    1.6079    0.5614    0.0000 C   0  0  0  0  0  0  0  0  0
    0.8009    0.7330    0.0000 C   0  0  0  0  0  0  0  0  0
   -2.8576    1.9659    0.0000 C   0  0  0  0  0  0  0  0  0
  1  2  1  0  0  0  0
  1  6  1  0  0  0  0
  2  3  1  0  0  0  0
  2  4  1  0  0  0  0
  2  5  1  0  0  0  0
  6  7  2  0  0  0  0
  6  8  1  0  0  0  0
  8  9  1  0  0  0  0
  9 10  1  0  0  0  0
 10 11  1  0  0  0  0
 11 12  1  0  0  0  0
 12 13  1  0  0  0  0
 13 14  1  0  0  0  0
 14 15  1  0  0  0  0
 15 16  1  0  0  0  0
 16 17  2  0  0  0  0
 16 18  1  0  0  0  0
 18 19  1  0  0  0  0
 18 28  1  0  0  0  0
 19 20  1  0  0  0  0
 20 21  3  0  0  0  0
 21 22  1  0  0  0  0
 22 23  1  0  0  0  0
 23 24  1  0  0  0  0
 23 27  1  0  0  0  0
 24 25  1  0  0  0  0
 25 26  1  0  0  0  0
 26 27  1  0  0  0  0
M  END
>  <Name_Molregno>
676003

>  <Muscarinic acetylcholine receptor M1>
5.31

>  <Muscarinic acetylcholine receptor M2>
5.31

>  <Muscarinic acetylcholine receptor M3>
5.31

>  <Muscarinic acetylcholine receptor M4>
5.31

>  <Muscarinic acetylcholine receptor M5>
5.31

$$$$
676014
  Marvin  02231216192D 0   1.00000     0.00000     0

 30 33  0  0  1  0  0  0  0  0999 V2000
    3.3174    3.7165    0.0000 O   0  0  0  0  0  0  0  0  0
    3.6754    2.9732    0.0000 C   0  0  0  0  0  0  0  0  0
    4.5004    2.9732    0.0000 N   0  0  0  0  0  0  0  0  0
    5.0148    2.3282    0.0000 C   0  0  0  0  0  0  0  0  0
    5.8031    2.5714    0.0000 C   0  0  0  0  0  0  0  0  0
    6.4079    2.0102    0.0000 C   0  0  0  0  0  0  0  0  0
    6.2243    1.2059    0.0000 C   0  0  0  0  0  0  0  0  0
    5.4359    0.9627    0.0000 N   0  0  0  0  0  0  0  0  0
    4.8312    1.5239    0.0000 C   0  0  0  0  0  0  0  0  0
    4.0879    1.1659    0.0000 N   0  0  0  0  0  0  0  0  0
    3.3446    1.5239    0.0000 C   0  0  0  0  0  0  0  0  0
    3.1610    2.3282    0.0000 C   0  0  0  0  0  0  0  0  0
    2.3727    2.5714    0.0000 C   0  0  0  0  0  0  0  0  0
    1.7679    2.0102    0.0000 C   0  0  0  0  0  0  0  0  0
    1.9515    1.2059    0.0000 C   0  0  0  0  0  0  0  0  0
    2.7398    0.9627    0.0000 C   0  0  0  0  0  0  0  0  0
    4.0879    0.3409    0.0000 C   0  0  0  0  0  0  0  0  0
    4.8023   -0.0716    0.0000 O   0  0  0  0  0  0  0  0  0
    3.3734   -0.0716    0.0000 C   0  0  0  0  0  0  0  0  0
    3.3734   -0.8966    0.0000 N   0  0  0  0  0  0  0  0  0
    4.0879   -1.3091    0.0000 C   0  0  0  0  0  0  0  0  0
    2.6589   -1.3091    0.0000 C   0  0  0  0  0  0  0  0  0
    2.6589   -2.1341    0.0000 C   0  0  0  0  0  0  0  0  0
    1.9445   -2.5466    0.0000 C   0  0  0  0  0  0  0  0  0
    1.2300   -2.1341    0.0000 C   0  0  0  0  0  0  0  0  0
    1.2300   -1.3091    0.0000 C   0  0  0  0  0  0  0  0  0
    1.9445   -0.8966    0.0000 C   0  0  0  0  0  0  0  0  0
    1.9445   -0.0716    0.0000 N   0  0  0  0  0  0  0  0  0
    1.2300    0.3409    0.0000 C   0  0  0  0  0  0  0  0  0
    2.6589    0.3409    0.0000 C   0  0  0  0  0  0  0  0  0
  1  2  2  0  0  0  0
  2  3  1  0  0  0  0
  2 12  1  0  0  0  0
  3  4  1  0  0  0  0
  4  5  4  0  0  0  0
  4  9  4  0  0  0  0
  5  6  4  0  0  0  0
  6  7  4  0  0  0  0
  7  8  4  0  0  0  0
  8  9  4  0  0  0  0
  9 10  1  0  0  0  0
 10 11  1  0  0  0  0
 10 17  1  0  0  0  0
 11 12  4  0  0  0  0
 11 16  4  0  0  0  0
 12 13  4  0  0  0  0
 13 14  4  0  0  0  0
 14 15  4  0  0  0  0
 15 16  4  0  0  0  0
 17 18  2  0  0  0  0
 17 19  1  0  0  0  0
 19 20  1  0  0  0  0
 20 21  1  0  0  0  0
 20 22  1  0  0  0  0
 22 23  1  0  0  0  0
 22 27  1  0  0  0  0
 23 24  1  0  0  0  0
 24 25  1  0  0  0  0
 25 26  1  0  0  0  0
 26 27  1  0  0  0  0
 27 28  1  0  0  0  0
 28 29  1  0  0  0  0
 28 30  1  0  0  0  0
M  END
>  <Name_Molregno>
676014

>  <Muscarinic acetylcholine receptor M1>
7.77

>  <Muscarinic acetylcholine receptor M2>
8.37

>  <Muscarinic acetylcholine receptor M3>
7.36

>  <Muscarinic acetylcholine receptor M4>
7.83

$$$$
676082
  Marvin  02231216192D 0   1.00000     0.00000     0

 20 20  0  0  0  0  0  0  0  0999 V2000
    2.0432   -1.8132    0.0000 O   0  0  0  0  0  0  0  0  0
    2.0432   -0.9882    0.0000 C   0  0  0  0  0  0  0  0  0
    1.3287   -0.5757    0.0000 N   0  0  0  0  0  0  0  0  0
    0.6143   -0.9882    0.0000 C   0  0  0  0  0  0  0  0  0
   -0.1002   -0.5757    0.0000 C   0  0  0  0  0  0  0  0  0
   -0.8147   -0.1632    0.0000 C   0  0  0  0  0  0  0  0  0
   -1.5291    0.2493    0.0000 C   0  0  0  0  0  0  0  0  0
   -2.2436   -0.1632    0.0000 N   0  0  0  0  0  0  0  0  0
   -2.3299   -0.9837    0.0000 C   0  0  0  0  0  0  0  0  0
   -3.1368   -1.1552    0.0000 C   0  0  0  0  0  0  0  0  0
   -3.5493   -0.4408    0.0000 C   0  0  0  0  0  0  0  0  0
   -2.9973    0.1723    0.0000 C   0  0  0  0  0  0  0  0  0
    1.3287    0.2493    0.0000 C   0  0  0  0  0  0  0  0  0
    2.7577   -0.5757    0.0000 C   0  0  0  0  0  0  0  0  0
    3.4721   -0.9882    0.0000 C   0  0  0  0  0  0  0  0  0
    4.1866   -0.5757    0.0000 C   0  0  0  0  0  0  0  0  0
    4.9011   -0.9882    0.0000 C   0  0  0  0  0  0  0  0  0
    5.6156   -0.5757    0.0000 C   0  0  0  0  0  0  0  0  0
    6.3300   -0.9882    0.0000 C   0  0  0  0  0  0  0  0  0
    7.0445   -0.5757    0.0000 N   0  0  0  0  0  0  0  0  0
  1  2  2  0  0  0  0
  2  3  1  0  0  0  0
  2 14  1  0  0  0  0
  3  4  1  0  0  0  0
  3 13  1  0  0  0  0
  4  5  1  0  0  0  0
  5  6  3  0  0  0  0
  6  7  1  0  0  0  0
  7  8  1  0  0  0  0
  8  9  1  0  0  0  0
  8 12  1  0  0  0  0
  9 10  1  0  0  0  0
 10 11  1  0  0  0  0
 11 12  1  0  0  0  0
 14 15  1  0  0  0  0
 15 16  1  0  0  0  0
 16 17  1  0  0  0  0
 17 18  1  0  0  0  0
 18 19  1  0  0  0  0
 19 20  1  0  0  0  0
M  END
>  <Name_Molregno>
676082

>  <Muscarinic acetylcholine receptor M1>
5.17

>  <Muscarinic acetylcholine receptor M2>
5.17

>  <Muscarinic acetylcholine receptor M3>
5.17

>  <Muscarinic acetylcholine receptor M4>
5.17

>  <Muscarinic acetylcholine receptor M5>
5.17

$$$$
676085
  Marvin  02231216192D 0   1.00000     0.00000     0

 21 21  0  0  0  0  0  0  0  0999 V2000
   -0.4817   -0.7308    0.0000 O   0  0  0  0  0  0  0  0  0
   -0.4817   -1.5558    0.0000 C   0  0  0  0  0  0  0  0  0
   -1.1962   -1.9683    0.0000 N   0  0  0  0  0  0  0  0  0
   -1.9106   -1.5558    0.0000 C   0  0  0  0  0  0  0  0  0
   -2.6251   -1.9683    0.0000 C   0  0  0  0  0  0  0  0  0
   -3.3396   -2.3808    0.0000 C   0  0  0  0  0  0  0  0  0
   -4.0541   -2.7933    0.0000 C   0  0  0  0  0  0  0  0  0
   -4.7685   -2.3808    0.0000 N   0  0  0  0  0  0  0  0  0
   -5.5222   -2.7164    0.0000 C   0  0  0  0  0  0  0  0  0
   -6.0742   -2.1033    0.0000 C   0  0  0  0  0  0  0  0  0
   -5.6617   -1.3888    0.0000 C   0  0  0  0  0  0  0  0  0
   -4.8548   -1.5603    0.0000 C   0  0  0  0  0  0  0  0  0
   -1.1962   -2.7933    0.0000 C   0  0  0  0  0  0  0  0  0
    0.2328   -1.9683    0.0000 C   0  0  0  0  0  0  0  0  0
    0.9472   -1.5558    0.0000 C   0  0  0  0  0  0  0  0  0
    1.6617   -1.9683    0.0000 C   0  0  0  0  0  0  0  0  0
    2.3762   -1.5558    0.0000 C   0  0  0  0  0  0  0  0  0
    3.0907   -1.9683    0.0000 C   0  0  0  0  0  0  0  0  0
    3.8051   -1.5558    0.0000 C   0  0  0  0  0  0  0  0  0
    4.5196   -1.9683    0.0000 C   0  0  0  0  0  0  0  0  0
    5.2341   -1.5558    0.0000 N   0  0  0  0  0  0  0  0  0
  1  2  2  0  0  0  0
  2  3  1  0  0  0  0
  2 14  1  0  0  0  0
  3  4  1  0  0  0  0
  3 13  1  0  0  0  0
  4  5  1  0  0  0  0
  5  6  3  0  0  0  0
  6  7  1  0  0  0  0
  7  8  1  0  0  0  0
  8  9  1  0  0  0  0
  8 12  1  0  0  0  0
  9 10  1  0  0  0  0
 10 11  1  0  0  0  0
 11 12  1  0  0  0  0
 14 15  1  0  0  0  0
 15 16  1  0  0  0  0
 16 17  1  0  0  0  0
 17 18  1  0  0  0  0
 18 19  1  0  0  0  0
 19 20  1  0  0  0  0
 20 21  1  0  0  0  0
M  END
>  <Name_Molregno>
676085

>  <Muscarinic acetylcholine receptor M1>
5.85

>  <Muscarinic acetylcholine receptor M2>
5.85

>  <Muscarinic acetylcholine receptor M3>
5.85

>  <Muscarinic acetylcholine receptor M4>
5.85

>  <Muscarinic acetylcholine receptor M5>
5.85

$$$$
(R)-Hexbutinol
  Marvin  02231216192D 0   1.00000     0.00000     0

 23 25  0  0  1  0  0  0  0  0999 V2000
    0.9978    3.0831    0.0000 O   0  0  0  0  0  0  0  0  0
    1.4103    2.3686    0.0000 C   0  0  0  0  0  0  0  0  0
    0.6958    1.9561    0.0000 C   0  0  0  0  0  0  0  0  0
   -0.0187    1.5436    0.0000 C   0  0  0  0  0  0  0  0  0
   -0.7331    1.1311    0.0000 C   0  0  0  0  0  0  0  0  0
   -0.7331    0.3061    0.0000 N   0  0  0  0  0  0  0  0  0
   -0.0187   -0.1064    0.0000 C   0  0  0  0  0  0  0  0  0
   -0.0187   -0.9314    0.0000 C   0  0  0  0  0  0  0  0  0
   -0.7331   -1.3439    0.0000 C   0  0  0  0  0  0  0  0  0
   -1.4476   -0.9314    0.0000 C   0  0  0  0  0  0  0  0  0
   -1.4476   -0.1064    0.0000 C   0  0  0  0  0  0  0  0  0
    2.1248    2.7811    0.0000 C   0  0  0  0  0  0  0  0  0
    2.1248    3.6061    0.0000 C   0  0  0  0  0  0  0  0  0
    2.8392    4.0186    0.0000 C   0  0  0  0  0  0  0  0  0
    3.5537    3.6061    0.0000 C   0  0  0  0  0  0  0  0  0
    3.5537    2.7811    0.0000 C   0  0  0  0  0  0  0  0  0
    2.8392    2.3686    0.0000 C   0  0  0  0  0  0  0  0  0
    1.8228    1.6541    0.0000 C   0  0  0  0  0  0  0  0  0
    2.6478    1.6541    0.0000 C   0  0  0  0  0  0  0  0  0
    3.0603    0.9397    0.0000 C   0  0  0  0  0  0  0  0  0
    2.6478    0.2252    0.0000 C   0  0  0  0  0  0  0  0  0
    1.8228    0.2252    0.0000 C   0  0  0  0  0  0  0  0  0
    1.4103    0.9397    0.0000 C   0  0  0  0  0  0  0  0  0
  1  2  1  0  0  0  0
  2  3  1  0  0  0  0
  2 12  1  0  0  0  0
  2 18  1  0  0  0  0
  3  4  3  0  0  0  0
  4  5  1  0  0  0  0
  5  6  1  0  0  0  0
  6  7  1  0  0  0  0
  6 11  1  0  0  0  0
  7  8  1  0  0  0  0
  8  9  1  0  0  0  0
  9 10  1  0  0  0  0
 10 11  1  0  0  0  0
 12 13  1  0  0  0  0
 12 17  1  0  0  0  0
 13 14  1  0  0  0  0
 14 15  1  0  0  0  0
 15 16  1  0  0  0  0
 16 17  1  0  0  0  0
 18 19  4  0  0  0  0
 18 23  4  0  0  0  0
 19 20  4  0  0  0  0
 20 21  4  0  0  0  0
 21 22  4  0  0  0  0
 22 23  4  0  0  0  0
M  END
>  <Name_Molregno>
(R)-Hexbutinol

>  <Muscarinic acetylcholine receptor M1>
8.13

>  <Muscarinic acetylcholine receptor M2>
7.41

>  <Muscarinic acetylcholine receptor M3>
8.01

>  <Muscarinic acetylcholine receptor M4>
8.12

>  <Muscarinic acetylcholine receptor M5>
7.69

$$$$
(R)-Trihexyphenidyl
  Marvin  02231216192D 0   1.00000     0.00000     0

 22 24  0  0  1  0  0  0  0  0999 V2000
   -1.5924   -0.6309    0.0000 O   0  0  0  0  0  0  0  0  0
   -0.7674   -0.6309    0.0000 C   0  0  0  0  0  0  0  0  0
   -0.7674   -1.4559    0.0000 C   0  0  0  0  0  0  0  0  0
   -0.0530   -1.8684    0.0000 C   0  0  0  0  0  0  0  0  0
   -0.0530   -2.6934    0.0000 N   0  0  0  0  0  0  0  0  0
    0.6615   -3.1059    0.0000 C   0  0  0  0  0  0  0  0  0
    0.6615   -3.9309    0.0000 C   0  0  0  0  0  0  0  0  0
   -0.0530   -4.3434    0.0000 C   0  0  0  0  0  0  0  0  0
   -0.7674   -3.9309    0.0000 C   0  0  0  0  0  0  0  0  0
   -0.7674   -3.1059    0.0000 C   0  0  0  0  0  0  0  0  0
   -0.7674    0.1941    0.0000 C   0  0  0  0  0  0  0  0  0
   -1.4819    0.6066    0.0000 C   0  0  0  0  0  0  0  0  0
   -1.4819    1.4316    0.0000 C   0  0  0  0  0  0  0  0  0
   -0.7674    1.8441    0.0000 C   0  0  0  0  0  0  0  0  0
   -0.0530    1.4316    0.0000 C   0  0  0  0  0  0  0  0  0
   -0.0530    0.6066    0.0000 C   0  0  0  0  0  0  0  0  0
    0.0576   -0.6309    0.0000 C   0  0  0  0  0  0  0  0  0
    0.4701    0.0835    0.0000 C   0  0  0  0  0  0  0  0  0
    1.2951    0.0835    0.0000 C   0  0  0  0  0  0  0  0  0
    1.7076   -0.6309    0.0000 C   0  0  0  0  0  0  0  0  0
    1.2951   -1.3454    0.0000 C   0  0  0  0  0  0  0  0  0
    0.4701   -1.3454    0.0000 C   0  0  0  0  0  0  0  0  0
  1  2  1  0  0  0  0
  2  3  1  0  0  0  0
  2 11  1  0  0  0  0
  2 17  1  0  0  0  0
  3  4  1  0  0  0  0
  4  5  1  0  0  0  0
  5  6  1  0  0  0  0
  5 10  1  0  0  0  0
  6  7  1  0  0  0  0
  7  8  1  0  0  0  0
  8  9  1  0  0  0  0
  9 10  1  0  0  0  0
 11 12  1  0  0  0  0
 11 16  1  0  0  0  0
 12 13  1  0  0  0  0
 13 14  1  0  0  0  0
 14 15  1  0  0  0  0
 15 16  1  0  0  0  0
 17 18  4  0  0  0  0
 17 22  4  0  0  0  0
 18 19  4  0  0  0  0
 19 20  4  0  0  0  0
 20 21  4  0  0  0  0
 21 22  4  0  0  0  0
M  END
>  <Name_Molregno>
(R)-Trihexyphenidyl

>  <Muscarinic acetylcholine receptor M1>
8.38

>  <Muscarinic acetylcholine receptor M2>
7.54

>  <Muscarinic acetylcholine receptor M3>
7.56

>  <Muscarinic acetylcholine receptor M4>
8.08

>  <Muscarinic acetylcholine receptor M5>
7.42

$$$$
9-OH-risperidone
  Marvin  02231216192D 0   1.00000     0.00000     0

 31 35  0  0  1  0  0  0  0  0999 V2000
    1.7758   -2.6889    0.0000 F   0  0  0  0  0  0  0  0  0
    2.0308   -1.9043    0.0000 C   0  0  0  0  0  0  0  0  0
    1.4788   -1.2912    0.0000 C   0  0  0  0  0  0  0  0  0
    1.7337   -0.5066    0.0000 C   0  0  0  0  0  0  0  0  0
    1.3212    0.2079    0.0000 O   0  0  0  0  0  0  0  0  0
    1.8732    0.8210    0.0000 N   0  0  0  0  0  0  0  0  0
    2.6269    0.4854    0.0000 C   0  0  0  0  0  0  0  0  0
    2.5407   -0.3350    0.0000 C   0  0  0  0  0  0  0  0  0
    3.0927   -0.9481    0.0000 C   0  0  0  0  0  0  0  0  0
    2.8378   -1.7327    0.0000 C   0  0  0  0  0  0  0  0  0
    3.3414    0.8979    0.0000 C   0  0  0  0  0  0  0  0  0
    3.3414    1.7229    0.0000 C   0  0  0  0  0  0  0  0  0
    4.0558    2.1354    0.0000 C   0  0  0  0  0  0  0  0  0
    4.7703    1.7229    0.0000 N   0  0  0  0  0  0  0  0  0
    4.7703    0.8979    0.0000 C   0  0  0  0  0  0  0  0  0
    4.0558    0.4854    0.0000 C   0  0  0  0  0  0  0  0  0
    5.4848    2.1354    0.0000 C   0  0  0  0  0  0  0  0  0
    6.1993    1.7229    0.0000 C   0  0  0  0  0  0  0  0  0
    6.9137    2.1354    0.0000 C   0  0  0  0  0  0  0  0  0
    7.6282    1.7229    0.0000 C   0  0  0  0  0  0  0  0  0
    7.6282    0.8979    0.0000 O   0  0  0  0  0  0  0  0  0
    8.3427    2.1354    0.0000 N   0  0  0  0  0  0  0  0  0
    8.3427    2.9604    0.0000 C   0  0  0  0  0  0  0  0  0
    7.6282    3.3729    0.0000 N   0  0  0  0  0  0  0  0  0
    6.9137    2.9604    0.0000 C   0  0  0  0  0  0  0  0  0
    6.1993    3.3729    0.0000 C   0  0  0  0  0  0  0  0  0
    9.0571    3.3729    0.0000 C   0  0  0  0  0  0  0  0  0
    9.0571    4.1979    0.0000 O   0  0  0  0  0  0  0  0  0
    9.7716    2.9604    0.0000 C   0  0  0  0  0  0  0  0  0
    9.7716    2.1354    0.0000 C   0  0  0  0  0  0  0  0  0
    9.0571    1.7229    0.0000 C   0  0  0  0  0  0  0  0  0
  1  2  1  0  0  0  0
  2  3  4  0  0  0  0
  2 10  4  0  0  0  0
  3  4  4  0  0  0  0
  4  5  4  0  0  0  0
  4  8  4  0  0  0  0
  5  6  4  0  0  0  0
  6  7  4  0  0  0  0
  7  8  4  0  0  0  0
  7 11  1  0  0  0  0
  8  9  4  0  0  0  0
  9 10  4  0  0  0  0
 11 12  1  0  0  0  0
 11 16  1  0  0  0  0
 12 13  1  0  0  0  0
 13 14  1  0  0  0  0
 14 15  1  0  0  0  0
 14 17  1  0  0  0  0
 15 16  1  0  0  0  0
 17 18  1  0  0  0  0
 18 19  1  0  0  0  0
 19 20  1  0  0  0  0
 19 25  2  0  0  0  0
 20 21  2  0  0  0  0
 20 22  1  0  0  0  0
 22 23  1  0  0  0  0
 22 31  1  0  0  0  0
 23 24  2  0  0  0  0
 23 27  1  0  0  0  0
 24 25  1  0  0  0  0
 25 26  1  0  0  0  0
 27 28  1  0  0  0  0
 27 29  1  0  0  0  0
 29 30  1  0  0  0  0
 30 31  1  0  0  0  0
M  END
>  <Name_Molregno>
9-OH-risperidone

>  <5-HT1A>
6.24

>  <5-HT1B>
7.51

>  <5-HT1D>
7.44

>  <5-HT1E>
5.49

>  <5-HT2A>
9

>  <5-HT2C>
7.32

>  <5-HT3>
5

>  <5-HT5>
6.56

>  <5-HT6>
5.62

>  <5-HT7>
8.57

>  <Alpha-1A>
8.6

>  <Alpha-1B>
9.15

>  <Alpha-2A>
7.92

>  <Alpha-2B>
7.63

>  <Alpha-2C>
8.2

>  <Beta-1>
5.15

>  <Beta-2>
5.15

>  <DOPAMINE D1>
7.39

>  <DOPAMINE D2>
8.61

>  <DOPAMINE D3>
9.07

>  <DOPAMINE D4>
7.4

>  <DOPAMINE D5>
7.54

>  <Dopamine transporter>
5

>  <HISTAMINE H1>
8.07

>  <HISTAMINE H2>
6.92

>  <HISTAMINE H4>
5.06

>  <Muscarinic acetylcholine receptor M1>
5

>  <Muscarinic acetylcholine receptor M2>
5

>  <Muscarinic acetylcholine receptor M3>
5

>  <Muscarinic acetylcholine receptor M4>
5

>  <Muscarinic acetylcholine receptor M5>
5

>  <Norepinephrine transporter>
5

>  <Serotonin transporter>
5.71

$$$$
Acetylcholine
  Marvin  02231216192D 0   1.00000     0.00000     0

 10  9  0  0  0  0  0  0  0  0999 V2000
   -1.6924   -0.0107    0.0000 O   0  0  0  0  0  0  0  0  0
   -2.4069    0.4018    0.0000 C   0  0  0  0  0  0  0  0  0
   -3.1214   -0.0107    0.0000 O   0  0  0  0  0  0  0  0  0
   -2.4069    1.2268    0.0000 C   0  0  0  0  0  0  0  0  0
   -0.9780    0.4018    0.0000 C   0  0  0  0  0  0  0  0  0
   -0.2635   -0.0107    0.0000 C   0  0  0  0  0  0  0  0  0
    0.4510    0.4018    0.0000 N   0  3  0  0  0  0  0  0  0
    1.1654    0.8143    0.0000 C   0  0  0  0  0  0  0  0  0
    0.8635   -0.3127    0.0000 C   0  0  0  0  0  0  0  0  0
    0.0385    1.1163    0.0000 C   0  0  0  0  0  0  0  0  0
  1  2  1  0  0  0  0
  1  5  1  0  0  0  0
  2  3  2  0  0  0  0
  2  4  1  0  0  0  0
  5  6  1  0  0  0  0
  6  7  1  0  0  0  0
  7  8  1  0  0  0  0
  7  9  1  0  0  0  0
  7 10  1  0  0  0  0
M  CHG  1   7   1
M  END
>  <Name_Molregno>
Acetylcholine

>  <Muscarinic acetylcholine receptor M1>
6.67

>  <Muscarinic acetylcholine receptor M2>
6.58

>  <Muscarinic acetylcholine receptor M3>
5.27

>  <Muscarinic acetylcholine receptor M4>
5.17

>  <Muscarinic acetylcholine receptor M5>
5.56

$$$$
Adinazolam
  Marvin  02231216192D 0   1.00000     0.00000     0

 25 28  0  0  0  0  0  0  0  0999 V2000
    1.5378   -2.9359    0.0000 Cl  0  0  0  0  0  0  0  0  0
    0.7178   -2.8449    0.0000 C   0  0  0  0  0  0  0  0  0
    0.3867   -2.0893    0.0000 C   0  0  0  0  0  0  0  0  0
   -0.4333   -1.9983    0.0000 C   0  0  0  0  0  0  0  0  0
   -0.9221   -2.6628    0.0000 C   0  0  0  0  0  0  0  0  0
   -1.7465   -2.6950    0.0000 N   0  0  0  0  0  0  0  0  0
   -2.2856   -2.0706    0.0000 C   0  0  0  0  0  0  0  0  0
   -3.0461   -2.3904    0.0000 N   0  0  0  0  0  0  0  0  0
   -2.9770   -3.2125    0.0000 N   0  0  0  0  0  0  0  0  0
   -2.1738   -3.4008    0.0000 C   0  0  0  0  0  0  0  0  0
   -1.8539   -4.1613    0.0000 C   0  0  0  0  0  0  0  0  0
   -2.3526   -4.8185    0.0000 N   0  0  0  0  0  0  0  0  0
   -2.0328   -5.5790    0.0000 C   0  0  0  0  0  0  0  0  0
   -3.1712   -4.7152    0.0000 C   0  0  0  0  0  0  0  0  0
   -2.1336   -1.2597    0.0000 C   0  0  0  0  0  0  0  0  0
   -1.4048   -0.8730    0.0000 N   0  0  0  0  0  0  0  0  0
   -0.6481   -1.2017    0.0000 C   0  0  0  0  0  0  0  0  0
   -0.0237   -0.6626    0.0000 C   0  0  0  0  0  0  0  0  0
   -0.1784    0.1478    0.0000 C   0  0  0  0  0  0  0  0  0
    0.4460    0.6870    0.0000 C   0  0  0  0  0  0  0  0  0
    1.2252    0.4158    0.0000 C   0  0  0  0  0  0  0  0  0
    1.3799   -0.3946    0.0000 C   0  0  0  0  0  0  0  0  0
    0.7555   -0.9338    0.0000 C   0  0  0  0  0  0  0  0  0
   -0.5910   -3.4185    0.0000 C   0  0  0  0  0  0  0  0  0
    0.2290   -3.5095    0.0000 C   0  0  0  0  0  0  0  0  0
  1  2  1  0  0  0  0
  2  3  4  0  0  0  0
  2 25  4  0  0  0  0
  3  4  4  0  0  0  0
  4  5  4  0  0  0  0
  4 17  1  0  0  0  0
  5  6  1  0  0  0  0
  5 24  4  0  0  0  0
  6  7  4  0  0  0  0
  6 10  4  0  0  0  0
  7  8  4  0  0  0  0
  7 15  1  0  0  0  0
  8  9  4  0  0  0  0
  9 10  4  0  0  0  0
 10 11  1  0  0  0  0
 11 12  1  0  0  0  0
 12 13  1  0  0  0  0
 12 14  1  0  0  0  0
 15 16  1  0  0  0  0
 16 17  2  0  0  0  0
 17 18  1  0  0  0  0
 18 19  4  0  0  0  0
 18 23  4  0  0  0  0
 19 20  4  0  0  0  0
 20 21  4  0  0  0  0
 21 22  4  0  0  0  0
 22 23  4  0  0  0  0
 24 25  4  0  0  0  0
M  END
>  <Name_Molregno>
Adinazolam

>  <5-HT1A>
5

>  <DOPAMINE D2>
5

>  <HISTAMINE H1>
5

>  <Muscarinic acetylcholine receptor M1>
5

>  <Muscarinic acetylcholine receptor M2>
5

>  <Muscarinic acetylcholine receptor M3>
5

>  <Muscarinic acetylcholine receptor M4>
5

>  <Muscarinic acetylcholine receptor M5>
5

$$$$
AF-DX384
  Marvin  02231216192D 0   1.00000     0.00000     0

 35 38  0  0  1  0  0  0  0  0999 V2000
    6.3743    3.3717    0.0000 O   0  0  0  0  0  0  0  0  0
    6.3127    2.5490    0.0000 C   0  0  0  0  0  0  0  0  0
    7.0271    2.1365    0.0000 N   0  0  0  0  0  0  0  0  0
    7.1501    1.3207    0.0000 C   0  0  0  0  0  0  0  0  0
    7.9544    1.1371    0.0000 C   0  0  0  0  0  0  0  0  0
    8.1976    0.3488    0.0000 C   0  0  0  0  0  0  0  0  0
    7.6364   -0.2560    0.0000 C   0  0  0  0  0  0  0  0  0
    6.8321   -0.0724    0.0000 N   0  0  0  0  0  0  0  0  0
    6.5889    0.7159    0.0000 C   0  0  0  0  0  0  0  0  0
    5.7663    0.7776    0.0000 N   0  0  0  0  0  0  0  0  0
    5.3015    1.4592    0.0000 C   0  0  0  0  0  0  0  0  0
    5.5447    2.2476    0.0000 C   0  0  0  0  0  0  0  0  0
    4.9835    2.8524    0.0000 C   0  0  0  0  0  0  0  0  0
    4.1792    2.6688    0.0000 C   0  0  0  0  0  0  0  0  0
    3.9361    1.8804    0.0000 C   0  0  0  0  0  0  0  0  0
    4.4972    1.2757    0.0000 C   0  0  0  0  0  0  0  0  0
    5.3538    0.0631    0.0000 C   0  0  0  0  0  0  0  0  0
    5.7663   -0.6513    0.0000 O   0  0  0  0  0  0  0  0  0
    4.5288    0.0631    0.0000 N   0  0  0  0  0  0  0  0  0
    4.1163   -0.6513    0.0000 C   0  0  0  0  0  0  0  0  0
    3.2913   -0.6513    0.0000 C   0  0  0  0  0  0  0  0  0
    2.8788   -1.3658    0.0000 N   0  0  0  0  0  0  0  0  0
    3.2913   -2.0803    0.0000 C   0  0  0  0  0  0  0  0  0
    2.8788   -2.7948    0.0000 C   0  0  0  0  0  0  0  0  0
    2.0538   -2.7948    0.0000 C   0  0  0  0  0  0  0  0  0
    1.6413   -2.0803    0.0000 C   0  0  0  0  0  0  0  0  0
    2.0538   -1.3658    0.0000 C   0  0  0  0  0  0  0  0  0
    1.6413   -0.6513    0.0000 C   0  0  0  0  0  0  0  0  0
    2.0538    0.0631    0.0000 N   0  0  0  0  0  0  0  0  0
    1.6413    0.7776    0.0000 C   0  0  0  0  0  0  0  0  0
    0.8163    0.7776    0.0000 C   0  0  0  0  0  0  0  0  0
    0.4038    1.4921    0.0000 C   0  0  0  0  0  0  0  0  0
    2.8788    0.0631    0.0000 C   0  0  0  0  0  0  0  0  0
    3.2913    0.7776    0.0000 C   0  0  0  0  0  0  0  0  0
    4.1163    0.7776    0.0000 C   0  0  0  0  0  0  0  0  0
  1  2  2  0  0  0  0
  2  3  1  0  0  0  0
  2 12  1  0  0  0  0
  3  4  1  0  0  0  0
  4  5  4  0  0  0  0
  4  9  4  0  0  0  0
  5  6  4  0  0  0  0
  6  7  4  0  0  0  0
  7  8  4  0  0  0  0
  8  9  4  0  0  0  0
  9 10  1  0  0  0  0
 10 11  1  0  0  0  0
 10 17  1  0  0  0  0
 11 12  4  0  0  0  0
 11 16  4  0  0  0  0
 12 13  4  0  0  0  0
 13 14  4  0  0  0  0
 14 15  4  0  0  0  0
 15 16  4  0  0  0  0
 17 18  2  0  0  0  0
 17 19  1  0  0  0  0
 19 20  1  0  0  0  0
 20 21  1  0  0  0  0
 21 22  1  0  0  0  0
 22 23  1  0  0  0  0
 22 27  1  0  0  0  0
 23 24  1  0  0  0  0
 24 25  1  0  0  0  0
 25 26  1  0  0  0  0
 26 27  1  0  0  0  0
 27 28  1  0  0  0  0
 28 29  1  0  0  0  0
 29 30  1  0  0  0  0
 29 33  1  0  0  0  0
 30 31  1  0  0  0  0
 31 32  1  0  0  0  0
 33 34  1  0  0  0  0
 34 35  1  0  0  0  0
M  END
>  <Name_Molregno>
AF-DX384

>  <Muscarinic acetylcholine receptor M1>
7.51

>  <Muscarinic acetylcholine receptor M2>
8.22

>  <Muscarinic acetylcholine receptor M3>
7.18

>  <Muscarinic acetylcholine receptor M4>
8

>  <Muscarinic acetylcholine receptor M5>
6.27

$$$$
Amentoflavone
  Marvin  02231216192D 0   1.00000     0.00000     0

 40 45  0  0  0  0  0  0  0  0999 V2000
   -3.5941   -0.9772    0.0000 O   0  0  0  0  0  0  0  0  0
   -3.5941   -0.1522    0.0000 C   0  0  0  0  0  0  0  0  0
   -4.3085    0.2603    0.0000 C   0  0  0  0  0  0  0  0  0
   -5.0230   -0.1522    0.0000 C   0  0  0  0  0  0  0  0  0
   -5.7375    0.2603    0.0000 O   0  0  0  0  0  0  0  0  0
   -5.0230   -0.9772    0.0000 C   0  0  0  0  0  0  0  0  0
   -4.3085   -1.3897    0.0000 C   0  0  0  0  0  0  0  0  0
   -4.3085   -2.2147    0.0000 C   0  0  0  0  0  0  0  0  0
   -3.5941   -2.6272    0.0000 C   0  0  0  0  0  0  0  0  0
   -3.5941   -3.4522    0.0000 C   0  0  0  0  0  0  0  0  0
   -4.3085   -3.8647    0.0000 C   0  0  0  0  0  0  0  0  0
   -4.3085   -4.6897    0.0000 O   0  0  0  0  0  0  0  0  0
   -5.0230   -3.4522    0.0000 C   0  0  0  0  0  0  0  0  0
   -5.0230   -2.6272    0.0000 C   0  0  0  0  0  0  0  0  0
   -4.3085    1.0853    0.0000 C   0  0  0  0  0  0  0  0  0
   -5.0230    1.4978    0.0000 O   0  0  0  0  0  0  0  0  0
   -3.5941    1.4978    0.0000 C   0  0  0  0  0  0  0  0  0
   -2.8796    1.0853    0.0000 C   0  0  0  0  0  0  0  0  0
   -2.1651    1.4978    0.0000 O   0  0  0  0  0  0  0  0  0
   -2.8796    0.2603    0.0000 C   0  0  0  0  0  0  0  0  0
   -2.1651   -0.1522    0.0000 C   0  0  0  0  0  0  0  0  0
   -1.4507    0.2603    0.0000 C   0  0  0  0  0  0  0  0  0
   -0.7362   -0.1522    0.0000 C   0  0  0  0  0  0  0  0  0
   -0.7362   -0.9772    0.0000 C   0  0  0  0  0  0  0  0  0
   -1.4507   -1.3897    0.0000 C   0  0  0  0  0  0  0  0  0
   -2.1651   -0.9772    0.0000 C   0  0  0  0  0  0  0  0  0
   -2.8796   -1.3897    0.0000 O   0  0  0  0  0  0  0  0  0
   -0.0217    0.2603    0.0000 C   0  0  0  0  0  0  0  0  0
    0.6928   -0.1522    0.0000 O   0  0  0  0  0  0  0  0  0
    1.4072    0.2603    0.0000 C   0  0  0  0  0  0  0  0  0
    1.4072    1.0853    0.0000 C   0  0  0  0  0  0  0  0  0
    0.6928    1.4978    0.0000 C   0  0  0  0  0  0  0  0  0
    0.6928    2.3228    0.0000 O   0  0  0  0  0  0  0  0  0
   -0.0217    1.0853    0.0000 C   0  0  0  0  0  0  0  0  0
    2.1217    1.4978    0.0000 C   0  0  0  0  0  0  0  0  0
    2.1217    2.3228    0.0000 O   0  0  0  0  0  0  0  0  0
    2.8362    1.0853    0.0000 C   0  0  0  0  0  0  0  0  0
    2.8362    0.2603    0.0000 C   0  0  0  0  0  0  0  0  0
    3.5506   -0.1522    0.0000 O   0  0  0  0  0  0  0  0  0
    2.1217   -0.1522    0.0000 C   0  0  0  0  0  0  0  0  0
  1  2  1  0  0  0  0
  1  7  1  0  0  0  0
  2  3  4  0  0  0  0
  2 20  4  0  0  0  0
  3  4  1  0  0  0  0
  3 15  4  0  0  0  0
  4  5  2  0  0  0  0
  4  6  1  0  0  0  0
  6  7  2  0  0  0  0
  7  8  1  0  0  0  0
  8  9  4  0  0  0  0
  8 14  4  0  0  0  0
  9 10  4  0  0  0  0
 10 11  4  0  0  0  0
 11 12  1  0  0  0  0
 11 13  4  0  0  0  0
 13 14  4  0  0  0  0
 15 16  1  0  0  0  0
 15 17  4  0  0  0  0
 17 18  4  0  0  0  0
 18 19  1  0  0  0  0
 18 20  4  0  0  0  0
 20 21  1  0  0  0  0
 21 22  4  0  0  0  0
 21 26  4  0  0  0  0
 22 23  4  0  0  0  0
 23 24  4  0  0  0  0
 23 28  1  0  0  0  0
 24 25  4  0  0  0  0
 25 26  4  0  0  0  0
 26 27  1  0  0  0  0
 28 29  1  0  0  0  0
 28 34  2  0  0  0  0
 29 30  1  0  0  0  0
 30 31  4  0  0  0  0
 30 40  4  0  0  0  0
 31 32  1  0  0  0  0
 31 35  4  0  0  0  0
 32 33  2  0  0  0  0
 32 34  1  0  0  0  0
 35 36  1  0  0  0  0
 35 37  4  0  0  0  0
 37 38  4  0  0  0  0
 38 39  1  0  0  0  0
 38 40  4  0  0  0  0
M  END
>  <Name_Molregno>
Amentoflavone

>  <5-HT1A>
5

>  <5-HT1B>
5.39

>  <5-HT1D>
5

>  <5-HT2C>
5.59

>  <5-HT3>
5

>  <5-HT5>
5

>  <5-HT6>
5

>  <5-HT7>
5

>  <Alpha-1A>
5

>  <Alpha-1B>
5

>  <Alpha-2A>
5

>  <Alpha-2B>
5

>  <Alpha-2C>
5

>  <DOPAMINE D1>
5

>  <DOPAMINE D5>
5

>  <Muscarinic acetylcholine receptor M1>
5

>  <Muscarinic acetylcholine receptor M2>
5

>  <Muscarinic acetylcholine receptor M3>
5

>  <Muscarinic acetylcholine receptor M4>
5

>  <Muscarinic acetylcholine receptor M5>
5

>  <Norepinephrine transporter>
5

>  <Serotonin transporter>
5

$$$$
AMITRIPTYLINE
  Marvin  02231216192D 0   1.00000     0.00000     0

 21 23  0  0  0  0  0  0  0  0999 V2000
    0.4326    2.9044    0.0000 N   0  0  0  0  0  0  0  0  0
    1.1470    2.4919    0.0000 C   0  0  0  0  0  0  0  0  0
    1.8615    2.9044    0.0000 C   0  0  0  0  0  0  0  0  0
    2.5760    2.4919    0.0000 C   0  0  0  0  0  0  0  0  0
    2.5760    1.6669    0.0000 C   0  0  0  0  0  0  0  0  0
    3.3193    1.3089    0.0000 C   0  0  0  0  0  0  0  0  0
    3.5029    0.5046    0.0000 C   0  0  0  0  0  0  0  0  0
    2.9885   -0.1404    0.0000 C   0  0  0  0  0  0  0  0  0
    2.1635   -0.1404    0.0000 C   0  0  0  0  0  0  0  0  0
    1.6491    0.5046    0.0000 C   0  0  0  0  0  0  0  0  0
    1.8327    1.3089    0.0000 C   0  0  0  0  0  0  0  0  0
    1.2279    1.8701    0.0000 C   0  0  0  0  0  0  0  0  0
    0.4396    1.6269    0.0000 C   0  0  0  0  0  0  0  0  0
    0.2560    0.8226    0.0000 C   0  0  0  0  0  0  0  0  0
    0.8608    0.2615    0.0000 C   0  0  0  0  0  0  0  0  0
    4.2912    0.2615    0.0000 C   0  0  0  0  0  0  0  0  0
    4.8960    0.8226    0.0000 C   0  0  0  0  0  0  0  0  0
    4.7124    1.6269    0.0000 C   0  0  0  0  0  0  0  0  0
    3.9241    1.8701    0.0000 C   0  0  0  0  0  0  0  0  0
   -0.2819    2.4919    0.0000 C   0  0  0  0  0  0  0  0  0
    0.4326    3.7294    0.0000 C   0  0  0  0  0  0  0  0  0
  1  2  1  0  0  0  0
  1 20  1  0  0  0  0
  1 21  1  0  0  0  0
  2  3  1  0  0  0  0
  3  4  1  0  0  0  0
  4  5  2  0  0  0  0
  5  6  1  0  0  0  0
  5 11  1  0  0  0  0
  6  7  4  0  0  0  0
  6 19  4  0  0  0  0
  7  8  1  0  0  0  0
  7 16  4  0  0  0  0
  8  9  1  0  0  0  0
  9 10  1  0  0  0  0
 10 11  4  0  0  0  0
 10 15  4  0  0  0  0
 11 12  4  0  0  0  0
 12 13  4  0  0  0  0
 13 14  4  0  0  0  0
 14 15  4  0  0  0  0
 16 17  4  0  0  0  0
 17 18  4  0  0  0  0
 18 19  4  0  0  0  0
M  END
>  <Name_Molregno>
AMITRIPTYLINE

>  <5-HT1A>
6.35

>  <5-HT2A>
7.64

>  <5-HT6>
7.02

>  <DOPAMINE D1>
7.05

>  <DOPAMINE D2>
6.42

>  <DOPAMINE D3>
6.69

>  <DOPAMINE D5>
6.77

>  <Dopamine transporter>
5.4

>  <HISTAMINE H1>
9.08

>  <HISTAMINE H3>
6

>  <HISTAMINE H4>
7.47

>  <Muscarinic acetylcholine receptor M1>
7.89

>  <Muscarinic acetylcholine receptor M2>
7.93

>  <Muscarinic acetylcholine receptor M3>
7.65

>  <Muscarinic acetylcholine receptor M4>
8.14

>  <Muscarinic acetylcholine receptor M5>
7.71

>  <Norepinephrine transporter>
7.45

>  <Serotonin transporter>
8

$$$$
AQ-RA741
  Marvin  02231216192D 0   1.00000     0.00000     0

 34 37  0  0  0  0  0  0  0  0999 V2000
    0.0493   -0.8180    0.0000 O   0  0  0  0  0  0  0  0  0
    0.7926   -0.4600    0.0000 C   0  0  0  0  0  0  0  0  0
    0.7926    0.3650    0.0000 N   0  0  0  0  0  0  0  0  0
    1.4376    0.8794    0.0000 C   0  0  0  0  0  0  0  0  0
    1.1944    1.6677    0.0000 C   0  0  0  0  0  0  0  0  0
    1.7556    2.2725    0.0000 C   0  0  0  0  0  0  0  0  0
    2.5599    2.0889    0.0000 C   0  0  0  0  0  0  0  0  0
    2.8031    1.3005    0.0000 N   0  0  0  0  0  0  0  0  0
    2.2419    0.6958    0.0000 C   0  0  0  0  0  0  0  0  0
    2.5999   -0.0475    0.0000 N   0  0  0  0  0  0  0  0  0
    2.2419   -0.7908    0.0000 C   0  0  0  0  0  0  0  0  0
    1.4376   -0.9744    0.0000 C   0  0  0  0  0  0  0  0  0
    1.1944   -1.7628    0.0000 C   0  0  0  0  0  0  0  0  0
    1.7556   -2.3675    0.0000 C   0  0  0  0  0  0  0  0  0
    2.5599   -2.1839    0.0000 C   0  0  0  0  0  0  0  0  0
    2.8031   -1.3956    0.0000 C   0  0  0  0  0  0  0  0  0
    3.4249   -0.0475    0.0000 C   0  0  0  0  0  0  0  0  0
    3.8374   -0.7620    0.0000 O   0  0  0  0  0  0  0  0  0
    3.8374    0.6669    0.0000 C   0  0  0  0  0  0  0  0  0
    4.6624    0.6669    0.0000 N   0  0  0  0  0  0  0  0  0
    5.0749    1.3814    0.0000 C   0  0  0  0  0  0  0  0  0
    5.8999    1.3814    0.0000 C   0  0  0  0  0  0  0  0  0
    6.3124    0.6669    0.0000 C   0  0  0  0  0  0  0  0  0
    5.8999   -0.0475    0.0000 C   0  0  0  0  0  0  0  0  0
    5.0749   -0.0475    0.0000 C   0  0  0  0  0  0  0  0  0
    7.1374    0.6669    0.0000 C   0  0  0  0  0  0  0  0  0
    7.5499   -0.0475    0.0000 C   0  0  0  0  0  0  0  0  0
    8.3749   -0.0475    0.0000 C   0  0  0  0  0  0  0  0  0
    8.7874   -0.7620    0.0000 C   0  0  0  0  0  0  0  0  0
    9.6124   -0.7620    0.0000 N   0  0  0  0  0  0  0  0  0
   10.0249   -1.4765    0.0000 C   0  0  0  0  0  0  0  0  0
   10.8499   -1.4765    0.0000 C   0  0  0  0  0  0  0  0  0
   10.0249   -0.0475    0.0000 C   0  0  0  0  0  0  0  0  0
   10.8499   -0.0475    0.0000 C   0  0  0  0  0  0  0  0  0
  1  2  2  0  0  0  0
  2  3  1  0  0  0  0
  2 12  1  0  0  0  0
  3  4  1  0  0  0  0
  4  5  4  0  0  0  0
  4  9  4  0  0  0  0
  5  6  4  0  0  0  0
  6  7  4  0  0  0  0
  7  8  4  0  0  0  0
  8  9  4  0  0  0  0
  9 10  1  0  0  0  0
 10 11  1  0  0  0  0
 10 17  1  0  0  0  0
 11 12  4  0  0  0  0
 11 16  4  0  0  0  0
 12 13  4  0  0  0  0
 13 14  4  0  0  0  0
 14 15  4  0  0  0  0
 15 16  4  0  0  0  0
 17 18  2  0  0  0  0
 17 19  1  0  0  0  0
 19 20  1  0  0  0  0
 20 21  1  0  0  0  0
 20 25  1  0  0  0  0
 21 22  1  0  0  0  0
 22 23  1  0  0  0  0
 23 24  1  0  0  0  0
 23 26  1  0  0  0  0
 24 25  1  0  0  0  0
 26 27  1  0  0  0  0
 27 28  1  0  0  0  0
 28 29  1  0  0  0  0
 29 30  1  0  0  0  0
 30 31  1  0  0  0  0
 30 33  1  0  0  0  0
 31 32  1  0  0  0  0
 33 34  1  0  0  0  0
M  END
>  <Name_Molregno>
AQ-RA741

>  <Muscarinic acetylcholine receptor M1>
7.54

>  <Muscarinic acetylcholine receptor M2>
8.37

>  <Muscarinic acetylcholine receptor M3>
7.2

>  <Muscarinic acetylcholine receptor M4>
8.19

>  <Muscarinic acetylcholine receptor M5>
6.08

$$$$
ARECOLINE
  Marvin  02231216192D 0   1.00000     0.00000     0

 11 11  0  0  0  0  0  0  0  0999 V2000
   -0.1142   -0.9846    0.0000 O   0  0  0  0  0  0  0  0  0
    0.6003   -1.3971    0.0000 C   0  0  0  0  0  0  0  0  0
    0.6003   -2.2221    0.0000 O   0  0  0  0  0  0  0  0  0
    1.3147   -0.9846    0.0000 C   0  0  0  0  0  0  0  0  0
    1.3147   -0.1596    0.0000 C   0  0  0  0  0  0  0  0  0
    2.0292    0.2529    0.0000 N   0  0  0  0  0  0  0  0  0
    2.7437   -0.1596    0.0000 C   0  0  0  0  0  0  0  0  0
    2.7437   -0.9846    0.0000 C   0  0  0  0  0  0  0  0  0
    2.0292   -1.3971    0.0000 C   0  0  0  0  0  0  0  0  0
    2.0292    1.0779    0.0000 C   0  0  0  0  0  0  0  0  0
   -0.8287   -1.3971    0.0000 C   0  0  0  0  0  0  0  0  0
  1  2  1  0  0  0  0
  1 11  1  0  0  0  0
  2  3  2  0  0  0  0
  2  4  1  0  0  0  0
  4  5  1  0  0  0  0
  4  9  2  0  0  0  0
  5  6  1  0  0  0  0
  6  7  1  0  0  0  0
  6 10  1  0  0  0  0
  7  8  1  0  0  0  0
  8  9  1  0  0  0  0
M  END
>  <Name_Molregno>
ARECOLINE

>  <Muscarinic acetylcholine receptor M1>
7.08

>  <Muscarinic acetylcholine receptor M2>
7.26

>  <Muscarinic acetylcholine receptor M3>
7.37

>  <Muscarinic acetylcholine receptor M4>
6.51

>  <Muscarinic acetylcholine receptor M5>
5.75

$$$$
ARIPIPRAZOLE
  Marvin  02231216192D 0   1.00000     0.00000     0

 30 33  0  0  0  0  0  0  0  0999 V2000
   -8.7485    0.0493    0.0000 Cl  0  0  0  0  0  0  0  0  0
   -8.7485   -0.7757    0.0000 C   0  0  0  0  0  0  0  0  0
   -8.0340   -1.1882    0.0000 C   0  0  0  0  0  0  0  0  0
   -7.3195   -0.7757    0.0000 N   0  0  0  0  0  0  0  0  0
   -7.3195    0.0493    0.0000 C   0  0  0  0  0  0  0  0  0
   -6.6051    0.4618    0.0000 C   0  0  0  0  0  0  0  0  0
   -5.8906    0.0493    0.0000 N   0  0  0  0  0  0  0  0  0
   -5.8906   -0.7757    0.0000 C   0  0  0  0  0  0  0  0  0
   -6.6051   -1.1882    0.0000 C   0  0  0  0  0  0  0  0  0
   -5.1761    0.4618    0.0000 C   0  0  0  0  0  0  0  0  0
   -4.4616    0.0493    0.0000 C   0  0  0  0  0  0  0  0  0
   -3.7472    0.4618    0.0000 C   0  0  0  0  0  0  0  0  0
   -3.0327    0.0493    0.0000 C   0  0  0  0  0  0  0  0  0
   -2.3182    0.4618    0.0000 O   0  0  0  0  0  0  0  0  0
   -1.6038    0.0493    0.0000 C   0  0  0  0  0  0  0  0  0
   -0.8893    0.4618    0.0000 C   0  0  0  0  0  0  0  0  0
   -0.1748    0.0493    0.0000 C   0  0  0  0  0  0  0  0  0
    0.5397    0.4618    0.0000 N   0  0  0  0  0  0  0  0  0
    1.2541    0.0493    0.0000 C   0  0  0  0  0  0  0  0  0
    1.9686    0.4618    0.0000 O   0  0  0  0  0  0  0  0  0
    1.2541   -0.7757    0.0000 C   0  0  0  0  0  0  0  0  0
    0.5397   -1.1882    0.0000 C   0  0  0  0  0  0  0  0  0
   -0.1748   -0.7757    0.0000 C   0  0  0  0  0  0  0  0  0
   -0.8893   -1.1882    0.0000 C   0  0  0  0  0  0  0  0  0
   -1.6038   -0.7757    0.0000 C   0  0  0  0  0  0  0  0  0
   -8.0340   -2.0132    0.0000 C   0  0  0  0  0  0  0  0  0
   -8.7485   -2.4257    0.0000 C   0  0  0  0  0  0  0  0  0
   -9.4629   -2.0132    0.0000 C   0  0  0  0  0  0  0  0  0
   -9.4629   -1.1882    0.0000 C   0  0  0  0  0  0  0  0  0
  -10.1774   -0.7757    0.0000 Cl  0  0  0  0  0  0  0  0  0
  1  2  1  0  0  0  0
  2  3  4  0  0  0  0
  2 29  4  0  0  0  0
  3  4  1  0  0  0  0
  3 26  4  0  0  0  0
  4  5  1  0  0  0  0
  4  9  1  0  0  0  0
  5  6  1  0  0  0  0
  6  7  1  0  0  0  0
  7  8  1  0  0  0  0
  7 10  1  0  0  0  0
  8  9  1  0  0  0  0
 10 11  1  0  0  0  0
 11 12  1  0  0  0  0
 12 13  1  0  0  0  0
 13 14  1  0  0  0  0
 14 15  1  0  0  0  0
 15 16  4  0  0  0  0
 15 25  4  0  0  0  0
 16 17  4  0  0  0  0
 17 18  1  0  0  0  0
 17 23  4  0  0  0  0
 18 19  1  0  0  0  0
 19 20  2  0  0  0  0
 19 21  1  0  0  0  0
 21 22  1  0  0  0  0
 22 23  1  0  0  0  0
 23 24  4  0  0  0  0
 24 25  4  0  0  0  0
 26 27  4  0  0  0  0
 27 28  4  0  0  0  0
 28 29  4  0  0  0  0
 29 30  1  0  0  0  0
M  END
>  <Name_Molregno>
ARIPIPRAZOLE

>  <5-HT1A>
8.21

>  <5-HT1B>
6.08

>  <5-HT1D>
7.18

>  <5-HT1E>
5.1

>  <5-HT2A>
7.85

>  <5-HT2C>
7.48

>  <5-HT3>
6.25

>  <5-HT5>
5.91

>  <5-HT6>
6.32

>  <5-HT7>
7.81

>  <Alpha-1A>
7.59

>  <Alpha-1B>
7.46

>  <Alpha-2A>
7.13

>  <Alpha-2B>
6.99

>  <Alpha-2C>
7.42

>  <Beta-1>
6.85

>  <Beta-2>
6.79

>  <DOPAMINE D1>
6.06

>  <DOPAMINE D2>
8.72

>  <DOPAMINE D3>
8.45

>  <DOPAMINE D4>
6.51

>  <DOPAMINE D5>
5.69

>  <Dopamine transporter>
5.49

>  <HISTAMINE H1>
7.56

>  <HISTAMINE H2>
5

>  <HISTAMINE H4>
5

>  <Muscarinic acetylcholine receptor M1>
5.17

>  <Muscarinic acetylcholine receptor M2>
5.45

>  <Muscarinic acetylcholine receptor M3>
5.33

>  <Muscarinic acetylcholine receptor M4>
5.82

>  <Muscarinic acetylcholine receptor M5>
5.63

>  <Norepinephrine transporter>
5.68

>  <Serotonin transporter>
6.48

$$$$
ATR
  Marvin  02231216192D 0   1.00000     0.00000     0

 21 23  0  0  1  0  0  0  0  0999 V2000
    1.2790    0.7485    0.0000 O   0  0  0  0  0  0  0  0  0
    0.8658    0.0345    0.0000 C   0  0  0  0  0  0  0  0  0
    0.0408    0.0353    0.0000 O   0  0  0  0  0  0  0  0  0
    1.2776   -0.6804    0.0000 C   0  0  0  0  0  0  0  0  0
    2.1026   -0.6812    0.0000 C   0  0  0  0  0  0  0  0  0
    2.5144   -1.3961    0.0000 O   0  0  0  0  0  0  0  0  0
    0.8644   -1.3945    0.0000 C   0  0  0  0  0  0  0  0  0
    1.2762   -2.1093    0.0000 C   0  0  0  0  0  0  0  0  0
    0.8630   -2.8234    0.0000 C   0  0  0  0  0  0  0  0  0
    0.0380   -2.8226    0.0000 C   0  0  0  0  0  0  0  0  0
   -0.3738   -2.1077    0.0000 C   0  0  0  0  0  0  0  0  0
    0.0394   -1.3937    0.0000 C   0  0  0  0  0  0  0  0  0
    0.8672    1.4634    0.0000 C   0  0  0  0  0  0  0  0  0
    0.7290    2.2808    0.0000 C   0  0  0  0  0  0  0  0  0
   -0.1998    2.2653    0.0000 C   0  0  0  0  0  0  0  0  0
   -0.7604    2.7052    0.0000 N   0  0  0  0  0  0  0  0  0
   -0.6207    1.8921    0.0000 C   0  0  0  0  0  0  0  0  0
    0.3510    1.8921    0.0000 C   0  0  0  0  0  0  0  0  0
   -1.1406    1.1798    0.0000 C   0  0  0  0  0  0  0  0  0
   -0.5203    1.5567    0.0000 C   0  0  0  0  0  0  0  0  0
   -1.1830    3.4137    0.0000 C   0  0  0  0  0  0  0  0  0
  1  2  1  0  0  0  0
  1 13  1  0  0  0  0
  2  3  2  0  0  0  0
  2  4  1  0  0  0  0
  4  5  1  0  0  0  0
  4  7  1  0  0  0  0
  5  6  1  0  0  0  0
  7  8  4  0  0  0  0
  7 12  4  0  0  0  0
  8  9  4  0  0  0  0
  9 10  4  0  0  0  0
 10 11  4  0  0  0  0
 11 12  4  0  0  0  0
 13 14  1  0  0  0  0
 13 18  1  0  0  0  0
 14 15  1  0  0  0  0
 15 16  1  0  0  0  0
 15 20  1  0  0  0  0
 16 17  1  0  0  0  0
 16 21  1  0  0  0  0
 17 18  1  0  0  0  0
 17 19  1  0  0  0  0
 19 20  1  0  0  0  0
M  END
>  <Name_Molregno>
ATR

>  <5-HT2A>
5.15

>  <5-HT3>
5

>  <HISTAMINE H1>
5.86

>  <Muscarinic acetylcholine receptor M1>
9.33

>  <Muscarinic acetylcholine receptor M2>
8.97

>  <Muscarinic acetylcholine receptor M3>
9.48

>  <Muscarinic acetylcholine receptor M4>
9.4

>  <Muscarinic acetylcholine receptor M5>
9.33

$$$$
BENZTROPINE
  Marvin  02231216192D 0   1.00000     0.00000     0

 23 26  0  0  1  0  0  0  0  0999 V2000
    0.7540    0.7490    0.0000 O   0  0  0  0  0  0  0  0  0
    0.3408    0.0350    0.0000 C   0  0  0  0  0  0  0  0  0
    0.7526   -0.6799    0.0000 C   0  0  0  0  0  0  0  0  0
    1.5776   -0.6807    0.0000 C   0  0  0  0  0  0  0  0  0
    1.9894   -1.3956    0.0000 C   0  0  0  0  0  0  0  0  0
    1.5762   -2.1097    0.0000 C   0  0  0  0  0  0  0  0  0
    0.7512   -2.1089    0.0000 C   0  0  0  0  0  0  0  0  0
    0.3394   -1.3940    0.0000 C   0  0  0  0  0  0  0  0  0
   -0.4842    0.0358    0.0000 C   0  0  0  0  0  0  0  0  0
   -0.8974   -0.6783    0.0000 C   0  0  0  0  0  0  0  0  0
   -1.7224   -0.6775    0.0000 C   0  0  0  0  0  0  0  0  0
   -2.1342    0.0374    0.0000 C   0  0  0  0  0  0  0  0  0
   -1.7209    0.7515    0.0000 C   0  0  0  0  0  0  0  0  0
   -0.8959    0.7507    0.0000 C   0  0  0  0  0  0  0  0  0
    0.3423    1.4639    0.0000 C   0  0  0  0  0  0  0  0  0
    0.2041    2.2813    0.0000 C   0  0  0  0  0  0  0  0  0
   -0.7247    2.2658    0.0000 C   0  0  0  0  0  0  0  0  0
   -1.2853    2.7057    0.0000 N   0  0  0  0  0  0  0  0  0
   -1.1456    1.8926    0.0000 C   0  0  0  0  0  0  0  0  0
   -0.1739    1.8926    0.0000 C   0  0  0  0  0  0  0  0  0
   -1.6655    1.1803    0.0000 C   0  0  0  0  0  0  0  0  0
   -1.0452    1.5572    0.0000 C   0  0  0  0  0  0  0  0  0
   -1.7080    3.4142    0.0000 C   0  0  0  0  0  0  0  0  0
  1  2  1  0  0  0  0
  1 15  1  0  0  0  0
  2  3  1  0  0  0  0
  2  9  1  0  0  0  0
  3  4  4  0  0  0  0
  3  8  4  0  0  0  0
  4  5  4  0  0  0  0
  5  6  4  0  0  0  0
  6  7  4  0  0  0  0
  7  8  4  0  0  0  0
  9 10  4  0  0  0  0
  9 14  4  0  0  0  0
 10 11  4  0  0  0  0
 11 12  4  0  0  0  0
 12 13  4  0  0  0  0
 13 14  4  0  0  0  0
 15 16  1  0  0  0  0
 15 20  1  0  0  0  0
 16 17  1  0  0  0  0
 17 18  1  0  0  0  0
 17 22  1  0  0  0  0
 18 19  1  0  0  0  0
 18 23  1  0  0  0  0
 19 20  1  0  0  0  0
 19 21  1  0  0  0  0
 21 22  1  0  0  0  0
M  END
>  <Name_Molregno>
BENZTROPINE

>  <HISTAMINE H1>
8.96

>  <Muscarinic acetylcholine receptor M1>
9.64

>  <Muscarinic acetylcholine receptor M2>
8.85

>  <Muscarinic acetylcholine receptor M3>
8.96

>  <Muscarinic acetylcholine receptor M4>
8.96

>  <Muscarinic acetylcholine receptor M5>
8.55

$$$$
Biperidine
  Marvin  02231216192D 0   1.00000     0.00000     0

 23 26  0  0  1  0  0  0  0  0999 V2000
   -0.8660    0.2452    0.0000 O   0  0  0  0  0  0  0  0  0
   -0.2941   -0.3494    0.0000 C   0  0  0  0  0  0  0  0  0
   -0.8887   -0.9213    0.0000 C   0  0  0  0  0  0  0  0  0
   -0.6907   -1.7222    0.0000 C   0  0  0  0  0  0  0  0  0
   -1.2853   -2.2941    0.0000 N   0  0  0  0  0  0  0  0  0
   -1.0873   -3.0950    0.0000 C   0  0  0  0  0  0  0  0  0
   -1.6819   -3.6669    0.0000 C   0  0  0  0  0  0  0  0  0
   -2.4745   -3.4379    0.0000 C   0  0  0  0  0  0  0  0  0
   -2.6725   -2.6370    0.0000 C   0  0  0  0  0  0  0  0  0
   -2.0779   -2.0651    0.0000 C   0  0  0  0  0  0  0  0  0
    0.3005    0.2225    0.0000 C   0  0  0  0  0  0  0  0  0
    1.0760    0.6128    0.0000 C   0  0  0  0  0  0  0  0  0
    1.1461    2.1486    0.0000 C   0  0  0  0  0  0  0  0  0
    1.3061    1.3332    0.0000 C   0  0  0  0  0  0  0  0  0
    0.6658    0.8830    0.0000 C   0  0  0  0  0  0  0  0  0
    2.1016    0.8679    0.0000 C   0  0  0  0  0  0  0  0  0
    1.8065    0.2425    0.0000 C   0  0  0  0  0  0  0  0  0
    0.2778   -0.9440    0.0000 C   0  0  0  0  0  0  0  0  0
    1.0787   -0.7460    0.0000 C   0  0  0  0  0  0  0  0  0
    1.6506   -1.3406    0.0000 C   0  0  0  0  0  0  0  0  0
    1.4216   -2.1332    0.0000 C   0  0  0  0  0  0  0  0  0
    0.6207   -2.3312    0.0000 C   0  0  0  0  0  0  0  0  0
    0.0488   -1.7366    0.0000 C   0  0  0  0  0  0  0  0  0
  1  2  1  0  0  0  0
  2  3  1  0  0  0  0
  2 11  1  0  0  0  0
  2 18  1  0  0  0  0
  3  4  1  0  0  0  0
  4  5  1  0  0  0  0
  5  6  1  0  0  0  0
  5 10  1  0  0  0  0
  6  7  1  0  0  0  0
  7  8  1  0  0  0  0
  8  9  1  0  0  0  0
  9 10  1  0  0  0  0
 11 12  1  0  0  0  0
 11 15  1  0  0  0  0
 12 13  1  0  0  0  0
 12 17  1  0  0  0  0
 13 14  1  0  0  0  0
 14 15  1  0  0  0  0
 14 16  1  0  0  0  0
 16 17  2  0  0  0  0
 18 19  4  0  0  0  0
 18 23  4  0  0  0  0
 19 20  4  0  0  0  0
 20 21  4  0  0  0  0
 21 22  4  0  0  0  0
 22 23  4  0  0  0  0
M  END
>  <Name_Molregno>
Biperidine

>  <Muscarinic acetylcholine receptor M1>
9.32

>  <Muscarinic acetylcholine receptor M2>
8.2

>  <Muscarinic acetylcholine receptor M3>
8.41

>  <Muscarinic acetylcholine receptor M4>
8.62

>  <Muscarinic acetylcholine receptor M5>
8.2

$$$$
BROMPERIDOL
  Marvin  02231216192D 0   1.00000     0.00000     0

 26 28  0  0  0  0  0  0  0  0999 V2000
    1.7138    2.6466    0.0000 Br  0  0  0  0  0  0  0  0  0
    1.9960    1.8714    0.0000 C   0  0  0  0  0  0  0  0  0
    2.8084    1.7281    0.0000 C   0  0  0  0  0  0  0  0  0
    3.0906    0.9529    0.0000 C   0  0  0  0  0  0  0  0  0
    2.5603    0.3209    0.0000 C   0  0  0  0  0  0  0  0  0
    1.7478    0.4642    0.0000 C   0  0  0  0  0  0  0  0  0
    1.4657    1.2394    0.0000 C   0  0  0  0  0  0  0  0  0
    2.8425   -0.4543    0.0000 C   0  0  0  0  0  0  0  0  0
    2.0300   -0.5976    0.0000 O   0  0  0  0  0  0  0  0  0
    3.5569   -0.0418    0.0000 C   0  0  0  0  0  0  0  0  0
    4.2714   -0.4543    0.0000 C   0  0  0  0  0  0  0  0  0
    4.2714   -1.2793    0.0000 N   0  0  0  0  0  0  0  0  0
    3.5569   -1.6918    0.0000 C   0  0  0  0  0  0  0  0  0
    2.8425   -1.2793    0.0000 C   0  0  0  0  0  0  0  0  0
    4.9859   -1.6918    0.0000 C   0  0  0  0  0  0  0  0  0
    5.7003   -1.2793    0.0000 C   0  0  0  0  0  0  0  0  0
    6.4148   -1.6918    0.0000 C   0  0  0  0  0  0  0  0  0
    7.1293   -1.2793    0.0000 C   0  0  0  0  0  0  0  0  0
    7.1293   -0.4543    0.0000 O   0  0  0  0  0  0  0  0  0
    7.8438   -1.6918    0.0000 C   0  0  0  0  0  0  0  0  0
    8.5582   -1.2793    0.0000 C   0  0  0  0  0  0  0  0  0
    9.2727   -1.6918    0.0000 C   0  0  0  0  0  0  0  0  0
    9.2727   -2.5168    0.0000 C   0  0  0  0  0  0  0  0  0
    9.9872   -2.9293    0.0000 F   0  0  0  0  0  0  0  0  0
    8.5582   -2.9293    0.0000 C   0  0  0  0  0  0  0  0  0
    7.8438   -2.5168    0.0000 C   0  0  0  0  0  0  0  0  0
  1  2  1  0  0  0  0
  2  3  4  0  0  0  0
  2  7  4  0  0  0  0
  3  4  4  0  0  0  0
  4  5  4  0  0  0  0
  5  6  4  0  0  0  0
  5  8  1  0  0  0  0
  6  7  4  0  0  0  0
  8  9  1  0  0  0  0
  8 10  1  0  0  0  0
  8 14  1  0  0  0  0
 10 11  1  0  0  0  0
 11 12  1  0  0  0  0
 12 13  1  0  0  0  0
 12 15  1  0  0  0  0
 13 14  1  0  0  0  0
 15 16  1  0  0  0  0
 16 17  1  0  0  0  0
 17 18  1  0  0  0  0
 18 19  2  0  0  0  0
 18 20  1  0  0  0  0
 20 21  4  0  0  0  0
 20 26  4  0  0  0  0
 21 22  4  0  0  0  0
 22 23  4  0  0  0  0
 23 24  1  0  0  0  0
 23 25  4  0  0  0  0
 25 26  4  0  0  0  0
M  END
>  <Name_Molregno>
BROMPERIDOL

>  <DOPAMINE D2>
8.84

>  <DOPAMINE D3>
9.17

>  <DOPAMINE D4>
7.32

>  <Muscarinic acetylcholine receptor M1>
5.12

>  <Muscarinic acetylcholine receptor M2>
5.74

>  <Muscarinic acetylcholine receptor M3>
5.15

>  <Muscarinic acetylcholine receptor M4>
5.77

>  <Muscarinic acetylcholine receptor M5>
5.32

$$$$
BUPROPION
  Marvin  02231216192D 0   1.00000     0.00000     0

 16 16  0  0  1  0  0  0  0  0999 V2000
    1.2680    2.2852    0.0000 Cl  0  0  0  0  0  0  0  0  0
    1.2680    1.4602    0.0000 C   0  0  0  0  0  0  0  0  0
    1.9824    1.0477    0.0000 C   0  0  0  0  0  0  0  0  0
    1.9824    0.2227    0.0000 C   0  0  0  0  0  0  0  0  0
    1.2680   -0.1898    0.0000 C   0  0  0  0  0  0  0  0  0
    0.5535    0.2227    0.0000 C   0  0  0  0  0  0  0  0  0
    0.5535    1.0477    0.0000 C   0  0  0  0  0  0  0  0  0
    2.6969   -0.1898    0.0000 C   0  0  0  0  0  0  0  0  0
    2.6969   -1.0148    0.0000 O   0  0  0  0  0  0  0  0  0
    3.4114    0.2227    0.0000 C   0  0  0  0  0  0  0  0  0
    4.1259   -0.1898    0.0000 N   0  0  0  0  0  0  0  0  0
    4.8403    0.2227    0.0000 C   0  0  0  0  0  0  0  0  0
    5.5548    0.6352    0.0000 C   0  0  0  0  0  0  0  0  0
    5.2528   -0.4917    0.0000 C   0  0  0  0  0  0  0  0  0
    4.4278    0.9372    0.0000 C   0  0  0  0  0  0  0  0  0
    3.4114    1.0477    0.0000 C   0  0  0  0  0  0  0  0  0
  1  2  1  0  0  0  0
  2  3  4  0  0  0  0
  2  7  4  0  0  0  0
  3  4  4  0  0  0  0
  4  5  4  0  0  0  0
  4  8  1  0  0  0  0
  5  6  4  0  0  0  0
  6  7  4  0  0  0  0
  8  9  2  0  0  0  0
  8 10  1  0  0  0  0
 10 11  1  0  0  0  0
 10 16  1  0  0  0  0
 11 12  1  0  0  0  0
 12 13  1  0  0  0  0
 12 14  1  0  0  0  0
 12 15  1  0  0  0  0
M  END
>  <Name_Molregno>
BUPROPION

>  <5-HT1A>
5

>  <DOPAMINE D2>
5

>  <Dopamine transporter>
6.15

>  <HISTAMINE H1>
5

>  <Muscarinic acetylcholine receptor M1>
5

>  <Muscarinic acetylcholine receptor M2>
5

>  <Muscarinic acetylcholine receptor M3>
5

>  <Muscarinic acetylcholine receptor M4>
5

>  <Muscarinic acetylcholine receptor M5>
5

>  <Norepinephrine transporter>
5.08

>  <Serotonin transporter>
5.01

$$$$
CARBACHOL
  Marvin  02231216192D 0   1.00000     0.00000     0

 10  9  0  0  0  0  0  0  0  0999 V2000
    1.6924    0.8143    0.0000 O   0  0  0  0  0  0  0  0  0
    0.9780    0.4018    0.0000 C   0  0  0  0  0  0  0  0  0
    0.2635    0.8143    0.0000 C   0  0  0  0  0  0  0  0  0
   -0.4510    0.4018    0.0000 N   0  3  0  0  0  0  0  0  0
   -1.1654   -0.0107    0.0000 C   0  0  0  0  0  0  0  0  0
   -0.0385   -0.3127    0.0000 C   0  0  0  0  0  0  0  0  0
   -0.8635    1.1163    0.0000 C   0  0  0  0  0  0  0  0  0
    2.4069    0.4018    0.0000 C   0  0  0  0  0  0  0  0  0
    3.1214    0.8143    0.0000 O   0  0  0  0  0  0  0  0  0
    2.4069   -0.4232    0.0000 N   0  0  0  0  0  0  0  0  0
  1  2  1  0  0  0  0
  1  8  1  0  0  0  0
  2  3  1  0  0  0  0
  3  4  1  0  0  0  0
  4  5  1  0  0  0  0
  4  6  1  0  0  0  0
  4  7  1  0  0  0  0
  8  9  2  0  0  0  0
  8 10  1  0  0  0  0
M  CHG  1   4   1
M  END
>  <Name_Molregno>
CARBACHOL

>  <5-HT2A>
5

>  <Muscarinic acetylcholine receptor M1>
5.36

>  <Muscarinic acetylcholine receptor M2>
6.57

>  <Muscarinic acetylcholine receptor M3>
5.05

>  <Muscarinic acetylcholine receptor M4>
5.99

>  <Muscarinic acetylcholine receptor M5>
4.89

$$$$
Cathinone
  Marvin  02231216192D 0   1.00000     0.00000     0

 11 11  0  0  1  0  0  0  0  0999 V2000
    1.9974    0.2298    0.0000 O   0  0  0  0  0  0  0  0  0
    1.2829   -0.1827    0.0000 C   0  0  0  0  0  0  0  0  0
    0.5684    0.2298    0.0000 C   0  0  0  0  0  0  0  0  0
    0.5684    1.0548    0.0000 N   0  0  0  0  0  0  0  0  0
   -0.1461   -0.1827    0.0000 C   0  0  0  0  0  0  0  0  0
    1.2829   -1.0077    0.0000 C   0  0  0  0  0  0  0  0  0
    1.9974   -1.4202    0.0000 C   0  0  0  0  0  0  0  0  0
    1.9974   -2.2452    0.0000 C   0  0  0  0  0  0  0  0  0
    1.2829   -2.6577    0.0000 C   0  0  0  0  0  0  0  0  0
    0.5684   -2.2452    0.0000 C   0  0  0  0  0  0  0  0  0
    0.5684   -1.4202    0.0000 C   0  0  0  0  0  0  0  0  0
  1  2  2  0  0  0  0
  2  3  1  0  0  0  0
  2  6  1  0  0  0  0
  3  4  1  0  0  0  0
  3  5  1  0  0  0  0
  6  7  4  0  0  0  0
  6 11  4  0  0  0  0
  7  8  4  0  0  0  0
  8  9  4  0  0  0  0
  9 10  4  0  0  0  0
 10 11  4  0  0  0  0
M  END
>  <Name_Molregno>
Cathinone

>  <5-HT1A>
5

>  <5-HT1B>
5

>  <5-HT1D>
5

>  <5-HT1E>
5

>  <5-HT3>
5

>  <5-HT5>
5

>  <5-HT6>
5

>  <5-HT7>
5.57

>  <Alpha-1A>
5

>  <Alpha-1B>
5

>  <Alpha-2A>
5.17

>  <Alpha-2B>
6.04

>  <Alpha-2C>
6.12

>  <Beta-1>
5

>  <Beta-2>
5

>  <DOPAMINE D1>
5

>  <DOPAMINE D2>
5

>  <DOPAMINE D4>
5

>  <DOPAMINE D5>
5

>  <Dopamine transporter>
6.37

>  <HISTAMINE H1>
5

>  <HISTAMINE H2>
5

>  <HISTAMINE H4>
5

>  <Muscarinic acetylcholine receptor M1>
5

>  <Muscarinic acetylcholine receptor M2>
5

>  <Muscarinic acetylcholine receptor M3>
5

>  <Muscarinic acetylcholine receptor M4>
5

>  <Muscarinic acetylcholine receptor M5>
5

>  <Norepinephrine transporter>
6.76

>  <Serotonin transporter>
5.32

$$$$
CHLORPROMAZINE
  Marvin  02231216192D 0   1.00000     0.00000     0

 21 23  0  0  0  0  0  0  0  0999 V2000
   -1.3730   -3.5598    0.0000 Cl  0  0  0  0  0  0  0  0  0
   -2.0875   -3.1473    0.0000 C   0  0  0  0  0  0  0  0  0
   -2.0875   -2.3223    0.0000 C   0  0  0  0  0  0  0  0  0
   -2.8019   -1.9098    0.0000 C   0  0  0  0  0  0  0  0  0
   -2.8019   -1.0848    0.0000 N   0  0  0  0  0  0  0  0  0
   -3.5164   -0.6723    0.0000 C   0  0  0  0  0  0  0  0  0
   -4.2309   -1.0848    0.0000 C   0  0  0  0  0  0  0  0  0
   -4.2309   -1.9098    0.0000 S   0  0  0  0  0  0  0  0  0
   -3.5164   -2.3223    0.0000 C   0  0  0  0  0  0  0  0  0
   -3.5164   -3.1473    0.0000 C   0  0  0  0  0  0  0  0  0
   -2.8019   -3.5598    0.0000 C   0  0  0  0  0  0  0  0  0
   -4.9453   -0.6723    0.0000 C   0  0  0  0  0  0  0  0  0
   -4.9453    0.1527    0.0000 C   0  0  0  0  0  0  0  0  0
   -4.2309    0.5652    0.0000 C   0  0  0  0  0  0  0  0  0
   -3.5164    0.1527    0.0000 C   0  0  0  0  0  0  0  0  0
   -2.0875   -0.6723    0.0000 C   0  0  0  0  0  0  0  0  0
   -1.3730   -1.0848    0.0000 C   0  0  0  0  0  0  0  0  0
   -0.6585   -0.6723    0.0000 C   0  0  0  0  0  0  0  0  0
    0.0560   -1.0848    0.0000 N   0  0  0  0  0  0  0  0  0
    0.7704   -0.6723    0.0000 C   0  0  0  0  0  0  0  0  0
    0.0560   -1.9098    0.0000 C   0  0  0  0  0  0  0  0  0
  1  2  1  0  0  0  0
  2  3  4  0  0  0  0
  2 11  4  0  0  0  0
  3  4  4  0  0  0  0
  4  5  1  0  0  0  0
  4  9  4  0  0  0  0
  5  6  1  0  0  0  0
  5 16  1  0  0  0  0
  6  7  4  0  0  0  0
  6 15  4  0  0  0  0
  7  8  1  0  0  0  0
  7 12  4  0  0  0  0
  8  9  1  0  0  0  0
  9 10  4  0  0  0  0
 10 11  4  0  0  0  0
 12 13  4  0  0  0  0
 13 14  4  0  0  0  0
 14 15  4  0  0  0  0
 16 17  1  0  0  0  0
 17 18  1  0  0  0  0
 18 19  1  0  0  0  0
 19 20  1  0  0  0  0
 19 21  1  0  0  0  0
M  END
>  <Name_Molregno>
CHLORPROMAZINE

>  <5-HT1A>
5.98

>  <5-HT1B>
5.83

>  <5-HT1D>
6.34

>  <5-HT1E>
6.46

>  <5-HT2A>
8.36

>  <5-HT2C>
7.74

>  <5-HT3>
6.01

>  <5-HT5>
6.93

>  <5-HT6>
7.59

>  <5-HT7>
7.54

>  <Alpha-1A>
9.55

>  <Alpha-1B>
9.09

>  <Alpha-2A>
6.71

>  <Alpha-2B>
7.81

>  <Alpha-2C>
7.36

>  <Beta-1>
5

>  <Beta-2>
5

>  <DOPAMINE D1>
7.1

>  <DOPAMINE D2>
8.51

>  <DOPAMINE D3>
8.58

>  <DOPAMINE D4>
8.03

>  <DOPAMINE D5>
6.82

>  <Dopamine transporter>
5

>  <HISTAMINE H1>
8.47

>  <HISTAMINE H2>
6.76

>  <HISTAMINE H3>
6

>  <HISTAMINE H4>
6.3

>  <Muscarinic acetylcholine receptor M1>
7.36

>  <Muscarinic acetylcholine receptor M2>
6.67

>  <Muscarinic acetylcholine receptor M3>
7.25

>  <Muscarinic acetylcholine receptor M4>
7.11

>  <Muscarinic acetylcholine receptor M5>
7.5

>  <Norepinephrine transporter>
5.61

>  <Serotonin transporter>
6.54

$$$$
CHLORPROTHIXENE
  Marvin  02231216192D 0   1.00000     0.00000     0

 21 23  0  0  0  0  0  0  0  0999 V2000
    5.5918   -1.4384    0.0000 Cl  0  0  0  0  0  0  0  0  0
    4.8773   -1.0259    0.0000 C   0  0  0  0  0  0  0  0  0
    4.1628   -1.4384    0.0000 C   0  0  0  0  0  0  0  0  0
    3.4484   -1.0259    0.0000 C   0  0  0  0  0  0  0  0  0
    3.4484   -0.2009    0.0000 C   0  0  0  0  0  0  0  0  0
    2.7339    0.2116    0.0000 S   0  0  0  0  0  0  0  0  0
    2.0194   -0.2009    0.0000 C   0  0  0  0  0  0  0  0  0
    2.0194   -1.0259    0.0000 C   0  0  0  0  0  0  0  0  0
    1.3049   -1.4384    0.0000 C   0  0  0  0  0  0  0  0  0
    0.5905   -1.0259    0.0000 C   0  0  0  0  0  0  0  0  0
    0.5905   -0.2009    0.0000 C   0  0  0  0  0  0  0  0  0
    1.3049    0.2116    0.0000 C   0  0  0  0  0  0  0  0  0
    2.7339   -1.4384    0.0000 C   0  0  0  0  0  0  0  0  0
    2.7339   -2.2634    0.0000 C   0  0  0  0  0  0  0  0  0
    2.0194   -2.6759    0.0000 C   0  0  0  0  0  0  0  0  0
    2.0194   -3.5009    0.0000 C   0  0  0  0  0  0  0  0  0
    1.3049   -3.9134    0.0000 N   0  0  0  0  0  0  0  0  0
    1.3049   -4.7384    0.0000 C   0  0  0  0  0  0  0  0  0
    0.5905   -3.5009    0.0000 C   0  0  0  0  0  0  0  0  0
    4.1628    0.2116    0.0000 C   0  0  0  0  0  0  0  0  0
    4.8773   -0.2009    0.0000 C   0  0  0  0  0  0  0  0  0
  1  2  1  0  0  0  0
  2  3  4  0  0  0  0
  2 21  4  0  0  0  0
  3  4  4  0  0  0  0
  4  5  4  0  0  0  0
  4 13  1  0  0  0  0
  5  6  1  0  0  0  0
  5 20  4  0  0  0  0
  6  7  1  0  0  0  0
  7  8  4  0  0  0  0
  7 12  4  0  0  0  0
  8  9  4  0  0  0  0
  8 13  1  0  0  0  0
  9 10  4  0  0  0  0
 10 11  4  0  0  0  0
 11 12  4  0  0  0  0
 13 14  2  0  0  0  0
 14 15  1  0  0  0  0
 15 16  1  0  0  0  0
 16 17  1  0  0  0  0
 17 18  1  0  0  0  0
 17 19  1  0  0  0  0
 20 21  4  0  0  0  0
M  END
>  <Name_Molregno>
CHLORPROTHIXENE

>  <5-HT2A>
9.37

>  <DOPAMINE D1>
7.74

>  <DOPAMINE D2>
8.37

>  <DOPAMINE D3>
8.34

>  <DOPAMINE D4>
9.19

>  <DOPAMINE D5>
8.05

>  <HISTAMINE H1>
8.43

>  <HISTAMINE H3>
6

>  <Muscarinic acetylcholine receptor M1>
7.96

>  <Muscarinic acetylcholine receptor M2>
7.55

>  <Muscarinic acetylcholine receptor M3>
7.66

>  <Muscarinic acetylcholine receptor M4>
7.74

>  <Muscarinic acetylcholine receptor M5>
7.6

$$$$
cis-Thiothixene
  Marvin  02231216192D 0   1.00000     0.00000     0

 30 33  0  0  0  0  0  0  0  0999 V2000
    1.0940   -3.6931    0.0000 S   0  0  0  0  0  0  0  0  0
    1.8085   -3.2806    0.0000 C   0  0  0  0  0  0  0  0  0
    1.8085   -2.4556    0.0000 C   0  0  0  0  0  0  0  0  0
    2.5230   -2.0431    0.0000 C   0  0  0  0  0  0  0  0  0
    3.2375   -2.4556    0.0000 C   0  0  0  0  0  0  0  0  0
    3.9519   -2.0431    0.0000 S   0  0  0  0  0  0  0  0  0
    3.5394   -1.3286    0.0000 O   0  0  0  0  0  0  0  0  0
    4.3644   -2.7575    0.0000 O   0  0  0  0  0  0  0  0  0
    4.6664   -1.6306    0.0000 N   0  0  0  0  0  0  0  0  0
    5.3809   -2.0431    0.0000 C   0  0  0  0  0  0  0  0  0
    4.6664   -0.8056    0.0000 C   0  0  0  0  0  0  0  0  0
    3.2375   -3.2806    0.0000 C   0  0  0  0  0  0  0  0  0
    2.5230   -3.6931    0.0000 C   0  0  0  0  0  0  0  0  0
    1.0940   -2.0431    0.0000 C   0  0  0  0  0  0  0  0  0
    0.3796   -2.4556    0.0000 C   0  0  0  0  0  0  0  0  0
    0.3796   -3.2806    0.0000 C   0  0  0  0  0  0  0  0  0
   -0.3349   -3.6931    0.0000 C   0  0  0  0  0  0  0  0  0
   -1.0494   -3.2806    0.0000 C   0  0  0  0  0  0  0  0  0
   -1.0494   -2.4556    0.0000 C   0  0  0  0  0  0  0  0  0
   -0.3349   -2.0431    0.0000 C   0  0  0  0  0  0  0  0  0
    1.0940   -1.2181    0.0000 C   0  0  0  0  0  0  0  0  0
    0.3796   -0.8056    0.0000 C   0  0  0  0  0  0  0  0  0
   -0.3349   -1.2181    0.0000 C   0  0  0  0  0  0  0  0  0
   -1.0494   -0.8056    0.0000 N   0  0  0  0  0  0  0  0  0
   -1.7638   -1.2181    0.0000 C   0  0  0  0  0  0  0  0  0
   -2.4783   -0.8056    0.0000 C   0  0  0  0  0  0  0  0  0
   -2.4783    0.0194    0.0000 N   0  0  0  0  0  0  0  0  0
   -1.7638    0.4319    0.0000 C   0  0  0  0  0  0  0  0  0
   -1.0494    0.0194    0.0000 C   0  0  0  0  0  0  0  0  0
   -3.1928    0.4319    0.0000 C   0  0  0  0  0  0  0  0  0
  1  2  1  0  0  0  0
  1 16  1  0  0  0  0
  2  3  4  0  0  0  0
  2 13  4  0  0  0  0
  3  4  4  0  0  0  0
  3 14  1  0  0  0  0
  4  5  4  0  0  0  0
  5  6  1  0  0  0  0
  5 12  4  0  0  0  0
  6  7  2  0  0  0  0
  6  8  2  0  0  0  0
  6  9  1  0  0  0  0
  9 10  1  0  0  0  0
  9 11  1  0  0  0  0
 12 13  4  0  0  0  0
 14 15  1  0  0  0  0
 14 21  2  0  0  0  0
 15 16  4  0  0  0  0
 15 20  4  0  0  0  0
 16 17  4  0  0  0  0
 17 18  4  0  0  0  0
 18 19  4  0  0  0  0
 19 20  4  0  0  0  0
 21 22  1  0  0  0  0
 22 23  1  0  0  0  0
 23 24  1  0  0  0  0
 24 25  1  0  0  0  0
 24 29  1  0  0  0  0
 25 26  1  0  0  0  0
 26 27  1  0  0  0  0
 27 28  1  0  0  0  0
 27 30  1  0  0  0  0
 28 29  1  0  0  0  0
M  END
>  <Name_Molregno>
cis-Thiothixene

>  <5-HT1A>
6.39

>  <5-HT1B>
6.82

>  <5-HT1D>
6.18

>  <5-HT1E>
5

>  <5-HT2A>
7.42

>  <5-HT2C>
5.87

>  <5-HT3>
5.73

>  <5-HT5>
6.44

>  <5-HT6>
6.62

>  <5-HT7>
7.82

>  <Alpha-1A>
7.94

>  <Alpha-1B>
7.46

>  <Alpha-2A>
7.1

>  <Alpha-2B>
7.3

>  <Alpha-2C>
7.28

>  <Beta-1>
5

>  <Beta-2>
5

>  <DOPAMINE D1>
7.29

>  <DOPAMINE D2>
9.56

>  <DOPAMINE D3>
9.41

>  <DOPAMINE D4>
6.86

>  <DOPAMINE D5>
6.58

>  <Dopamine transporter>
5

>  <HISTAMINE H1>
8.23

>  <HISTAMINE H2>
6.39

>  <HISTAMINE H4>
5

>  <Muscarinic acetylcholine receptor M1>
5.3

>  <Muscarinic acetylcholine receptor M2>
5.34

>  <Muscarinic acetylcholine receptor M3>
5.27

>  <Muscarinic acetylcholine receptor M4>
5.4

>  <Muscarinic acetylcholine receptor M5>
5.32

>  <Norepinephrine transporter>
5

>  <Serotonin transporter>
5.41

$$$$
CLOZAPINE
  Marvin  02231216192D 0   1.00000     0.00000     0

 23 26  0  0  0  0  0  0  0  0999 V2000
   -0.5622   -2.2603    0.0000 Cl  0  0  0  0  0  0  0  0  0
    0.2262   -2.5035    0.0000 C   0  0  0  0  0  0  0  0  0
    0.8309   -1.9424    0.0000 C   0  0  0  0  0  0  0  0  0
    1.6193   -2.1855    0.0000 C   0  0  0  0  0  0  0  0  0
    2.1337   -1.5405    0.0000 N   0  0  0  0  0  0  0  0  0
    2.9587   -1.5405    0.0000 C   0  0  0  0  0  0  0  0  0
    3.3166   -0.7972    0.0000 N   0  0  0  0  0  0  0  0  0
    2.8519   -0.1156    0.0000 C   0  0  0  0  0  0  0  0  0
    3.2098    0.6277    0.0000 C   0  0  0  0  0  0  0  0  0
    4.0325    0.6894    0.0000 N   0  0  0  0  0  0  0  0  0
    4.4973    0.0077    0.0000 C   0  0  0  0  0  0  0  0  0
    4.1393   -0.7356    0.0000 C   0  0  0  0  0  0  0  0  0
    4.3905    1.4327    0.0000 C   0  0  0  0  0  0  0  0  0
    3.4730   -2.1855    0.0000 C   0  0  0  0  0  0  0  0  0
    3.2895   -2.9898    0.0000 C   0  0  0  0  0  0  0  0  0
    2.5462   -3.3478    0.0000 N   0  0  0  0  0  0  0  0  0
    1.8029   -2.9898    0.0000 C   0  0  0  0  0  0  0  0  0
    1.1981   -3.5510    0.0000 C   0  0  0  0  0  0  0  0  0
    0.4098   -3.3078    0.0000 C   0  0  0  0  0  0  0  0  0
    3.8942   -3.5510    0.0000 C   0  0  0  0  0  0  0  0  0
    4.6826   -3.3078    0.0000 C   0  0  0  0  0  0  0  0  0
    4.8662   -2.5035    0.0000 C   0  0  0  0  0  0  0  0  0
    4.2614   -1.9424    0.0000 C   0  0  0  0  0  0  0  0  0
  1  2  1  0  0  0  0
  2  3  4  0  0  0  0
  2 19  4  0  0  0  0
  3  4  4  0  0  0  0
  4  5  1  0  0  0  0
  4 17  4  0  0  0  0
  5  6  1  0  0  0  0
  6  7  1  0  0  0  0
  6 14  2  0  0  0  0
  7  8  1  0  0  0  0
  7 12  1  0  0  0  0
  8  9  1  0  0  0  0
  9 10  1  0  0  0  0
 10 11  1  0  0  0  0
 10 13  1  0  0  0  0
 11 12  1  0  0  0  0
 14 15  1  0  0  0  0
 14 23  1  0  0  0  0
 15 16  2  0  0  0  0
 15 20  1  0  0  0  0
 16 17  1  0  0  0  0
 17 18  4  0  0  0  0
 18 19  4  0  0  0  0
 20 21  2  0  0  0  0
 21 22  1  0  0  0  0
 22 23  2  0  0  0  0
M  END
>  <Name_Molregno>
CLOZAPINE

>  <5-HT1A>
6.88

>  <5-HT1B>
6.33

>  <5-HT1D>
6.27

>  <5-HT1E>
6.19

>  <5-HT2A>
8.22

>  <5-HT2C>
8

>  <5-HT3>
6.62

>  <5-HT5>
5.41

>  <5-HT6>
7.9

>  <5-HT7>
8.05

>  <Alpha-1A>
8.8

>  <Alpha-1B>
8.15

>  <Alpha-2A>
7.15

>  <Alpha-2B>
7.61

>  <Alpha-2C>
7.88

>  <Beta-1>
5.15

>  <Beta-2>
5.39

>  <DOPAMINE D1>
6.69

>  <DOPAMINE D2>
6.9

>  <DOPAMINE D3>
6.62

>  <DOPAMINE D4>
7.62

>  <DOPAMINE D5>
6.62

>  <Dopamine transporter>
5

>  <HISTAMINE H1>
8.81

>  <HISTAMINE H2>
6.82

>  <HISTAMINE H3>
5.25

>  <HISTAMINE H4>
6.15

>  <Muscarinic acetylcholine receptor M1>
8.26

>  <Muscarinic acetylcholine receptor M2>
7.17

>  <Muscarinic acetylcholine receptor M3>
7.59

>  <Muscarinic acetylcholine receptor M4>
7.85

>  <Muscarinic acetylcholine receptor M5>
7.79

>  <Norepinephrine transporter>
5.5

>  <Serotonin transporter>
5.73

$$$$
CLOZAPINE-2
  Marvin  02231216192D 0   1.00000     0.00000     0

 23 26  0  0  0  0  0  0  0  0999 V2000
   -0.5622   -2.2603    0.0000 Cl  0  0  0  0  0  0  0  0  0
    0.2262   -2.5035    0.0000 C   0  0  0  0  0  0  0  0  0
    0.8309   -1.9424    0.0000 C   0  0  0  0  0  0  0  0  0
    1.6193   -2.1855    0.0000 C   0  0  0  0  0  0  0  0  0
    2.1337   -1.5405    0.0000 N   0  0  0  0  0  0  0  0  0
    2.9587   -1.5405    0.0000 C   0  0  0  0  0  0  0  0  0
    3.3166   -0.7972    0.0000 N   0  0  0  0  0  0  0  0  0
    2.8519   -0.1156    0.0000 C   0  0  0  0  0  0  0  0  0
    3.2098    0.6277    0.0000 C   0  0  0  0  0  0  0  0  0
    4.0325    0.6894    0.0000 N   0  0  0  0  0  0  0  0  0
    4.4973    0.0077    0.0000 C   0  0  0  0  0  0  0  0  0
    4.1393   -0.7356    0.0000 C   0  0  0  0  0  0  0  0  0
    4.3905    1.4327    0.0000 C   0  0  0  0  0  0  0  0  0
    3.4730   -2.1855    0.0000 C   0  0  0  0  0  0  0  0  0
    3.2895   -2.9898    0.0000 C   0  0  0  0  0  0  0  0  0
    2.5462   -3.3478    0.0000 N   0  0  0  0  0  0  0  0  0
    1.8029   -2.9898    0.0000 C   0  0  0  0  0  0  0  0  0
    1.1981   -3.5510    0.0000 C   0  0  0  0  0  0  0  0  0
    0.4098   -3.3078    0.0000 C   0  0  0  0  0  0  0  0  0
    3.8942   -3.5510    0.0000 C   0  0  0  0  0  0  0  0  0
    4.6826   -3.3078    0.0000 C   0  0  0  0  0  0  0  0  0
    4.8662   -2.5035    0.0000 C   0  0  0  0  0  0  0  0  0
    4.2614   -1.9424    0.0000 C   0  0  0  0  0  0  0  0  0
  1  2  1  0  0  0  0
  2  3  4  0  0  0  0
  2 19  4  0  0  0  0
  3  4  4  0  0  0  0
  4  5  1  0  0  0  0
  4 17  4  0  0  0  0
  5  6  2  0  0  0  0
  6  7  1  0  0  0  0
  6 14  1  0  0  0  0
  7  8  1  0  0  0  0
  7 12  1  0  0  0  0
  8  9  1  0  0  0  0
  9 10  1  0  0  0  0
 10 11  1  0  0  0  0
 10 13  1  0  0  0  0
 11 12  1  0  0  0  0
 14 15  4  0  0  0  0
 14 23  4  0  0  0  0
 15 16  1  0  0  0  0
 15 20  4  0  0  0  0
 16 17  1  0  0  0  0
 17 18  4  0  0  0  0
 18 19  4  0  0  0  0
 20 21  4  0  0  0  0
 21 22  4  0  0  0  0
 22 23  4  0  0  0  0
M  END
>  <Name_Molregno>
CLOZAPINE-2

>  <5-HT1A>
6.92

>  <5-HT2A>
8.15

>  <5-HT2C>
7.92

>  <5-HT3>
6.4

>  <5-HT5>
6

>  <5-HT6>
7.85

>  <5-HT7>
7.47

>  <Alpha-2A>
7.62

>  <Alpha-2C>
8.54

>  <DOPAMINE D1>
7

>  <DOPAMINE D2>
7.03

>  <DOPAMINE D3>
6.48

>  <DOPAMINE D4>
7.6

>  <DOPAMINE D5>
6.7

>  <HISTAMINE H1>
8.77

>  <HISTAMINE H3>
6.1

>  <HISTAMINE H4>
6.75

>  <Muscarinic acetylcholine receptor M1>
8.47

>  <Muscarinic acetylcholine receptor M4>
7.9

>  <Serotonin transporter>
5.41

$$$$
Cyamemazine
  Marvin  02231216192D 0   1.00000     0.00000     0

 23 25  0  0  1  0  0  0  0  0999 V2000
   -0.6214   -0.6088    0.0000 S   0  0  0  0  0  0  0  0  0
   -0.6214   -1.4338    0.0000 C   0  0  0  0  0  0  0  0  0
    0.0931   -1.8463    0.0000 C   0  0  0  0  0  0  0  0  0
    0.8076   -1.4338    0.0000 N   0  0  0  0  0  0  0  0  0
    0.8076   -0.6088    0.0000 C   0  0  0  0  0  0  0  0  0
    0.0931   -0.1963    0.0000 C   0  0  0  0  0  0  0  0  0
    0.0931    0.6287    0.0000 C   0  0  0  0  0  0  0  0  0
    0.8076    1.0412    0.0000 C   0  0  0  0  0  0  0  0  0
    1.5220    0.6287    0.0000 C   0  0  0  0  0  0  0  0  0
    1.5220   -0.1963    0.0000 C   0  0  0  0  0  0  0  0  0
    1.5220   -1.8463    0.0000 C   0  0  0  0  0  0  0  0  0
    2.2365   -1.4338    0.0000 C   0  0  0  0  0  0  0  0  0
    2.9510   -1.8463    0.0000 C   0  0  0  0  0  0  0  0  0
    3.6655   -1.4338    0.0000 N   0  0  0  0  0  0  0  0  0
    4.3799   -1.8463    0.0000 C   0  0  0  0  0  0  0  0  0
    3.6655   -0.6088    0.0000 C   0  0  0  0  0  0  0  0  0
    2.2365   -0.6088    0.0000 C   0  0  0  0  0  0  0  0  0
    0.0931   -2.6713    0.0000 C   0  0  0  0  0  0  0  0  0
   -0.6214   -3.0838    0.0000 C   0  0  0  0  0  0  0  0  0
   -1.3358   -2.6713    0.0000 C   0  0  0  0  0  0  0  0  0
   -1.3358   -1.8463    0.0000 C   0  0  0  0  0  0  0  0  0
   -0.6214   -3.9088    0.0000 C   0  0  0  0  0  0  0  0  0
   -0.6214   -4.7338    0.0000 N   0  0  0  0  0  0  0  0  0
  1  2  1  0  0  0  0
  1  6  1  0  0  0  0
  2  3  4  0  0  0  0
  2 21  4  0  0  0  0
  3  4  1  0  0  0  0
  3 18  4  0  0  0  0
  4  5  1  0  0  0  0
  4 11  1  0  0  0  0
  5  6  4  0  0  0  0
  5 10  4  0  0  0  0
  6  7  4  0  0  0  0
  7  8  4  0  0  0  0
  8  9  4  0  0  0  0
  9 10  4  0  0  0  0
 11 12  1  0  0  0  0
 12 13  1  0  0  0  0
 12 17  1  0  0  0  0
 13 14  1  0  0  0  0
 14 15  1  0  0  0  0
 14 16  1  0  0  0  0
 18 19  4  0  0  0  0
 19 20  4  0  0  0  0
 19 22  1  0  0  0  0
 20 21  4  0  0  0  0
 22 23  3  0  0  0  0
M  END
>  <Name_Molregno>
Cyamemazine

>  <5-HT1A>
6.29

>  <5-HT2A>
8.82

>  <5-HT2C>
7.92

>  <5-HT3>
5.53

>  <5-HT7>
7.66

>  <DOPAMINE D1>
8.42

>  <DOPAMINE D2>
8.24

>  <DOPAMINE D3>
8.6

>  <DOPAMINE D4>
8.28

>  <Muscarinic acetylcholine receptor M1>
7.89

>  <Muscarinic acetylcholine receptor M2>
7.38

>  <Muscarinic acetylcholine receptor M3>
7.49

>  <Muscarinic acetylcholine receptor M4>
7.92

>  <Muscarinic acetylcholine receptor M5>
7.46

$$$$
CYPROHEPTADINE
  Marvin  02231216192D 0   1.00000     0.00000     0

 22 25  0  0  0  0  0  0  0  0999 V2000
    2.3061   -2.3673    0.0000 N   0  0  0  0  0  0  0  0  0
    1.5917   -1.9548    0.0000 C   0  0  0  0  0  0  0  0  0
    1.5917   -1.1298    0.0000 C   0  0  0  0  0  0  0  0  0
    2.3061   -0.7173    0.0000 C   0  0  0  0  0  0  0  0  0
    3.0206   -1.1298    0.0000 C   0  0  0  0  0  0  0  0  0
    3.0206   -1.9548    0.0000 C   0  0  0  0  0  0  0  0  0
    2.3061    0.1077    0.0000 C   0  0  0  0  0  0  0  0  0
    3.0494    0.4657    0.0000 C   0  0  0  0  0  0  0  0  0
    3.2330    1.2700    0.0000 C   0  0  0  0  0  0  0  0  0
    2.7186    1.9150    0.0000 C   0  0  0  0  0  0  0  0  0
    1.8936    1.9150    0.0000 C   0  0  0  0  0  0  0  0  0
    1.3792    1.2700    0.0000 C   0  0  0  0  0  0  0  0  0
    1.5628    0.4657    0.0000 C   0  0  0  0  0  0  0  0  0
    0.9581   -0.0955    0.0000 C   0  0  0  0  0  0  0  0  0
    0.1697    0.1477    0.0000 C   0  0  0  0  0  0  0  0  0
   -0.0139    0.9520    0.0000 C   0  0  0  0  0  0  0  0  0
    0.5909    1.5132    0.0000 C   0  0  0  0  0  0  0  0  0
    4.0214    1.5132    0.0000 C   0  0  0  0  0  0  0  0  0
    4.6261    0.9520    0.0000 C   0  0  0  0  0  0  0  0  0
    4.4425    0.1477    0.0000 C   0  0  0  0  0  0  0  0  0
    3.6542   -0.0955    0.0000 C   0  0  0  0  0  0  0  0  0
    2.3061   -3.1923    0.0000 C   0  0  0  0  0  0  0  0  0
  1  2  1  0  0  0  0
  1  6  1  0  0  0  0
  1 22  1  0  0  0  0
  2  3  1  0  0  0  0
  3  4  1  0  0  0  0
  4  5  1  0  0  0  0
  4  7  2  0  0  0  0
  5  6  1  0  0  0  0
  7  8  1  0  0  0  0
  7 13  1  0  0  0  0
  8  9  4  0  0  0  0
  8 21  4  0  0  0  0
  9 10  1  0  0  0  0
  9 18  4  0  0  0  0
 10 11  2  0  0  0  0
 11 12  1  0  0  0  0
 12 13  4  0  0  0  0
 12 17  4  0  0  0  0
 13 14  4  0  0  0  0
 14 15  4  0  0  0  0
 15 16  4  0  0  0  0
 16 17  4  0  0  0  0
 18 19  4  0  0  0  0
 19 20  4  0  0  0  0
 20 21  4  0  0  0  0
M  END
>  <Name_Molregno>
CYPROHEPTADINE

>  <5-HT1A>
7.12

>  <5-HT1D>
5.89

>  <5-HT2A>
8.42

>  <5-HT2C>
8.65

>  <5-HT6>
6.85

>  <5-HT7>
6.91

>  <DOPAMINE D1>
6.93

>  <DOPAMINE D2>
6.95

>  <DOPAMINE D3>
8.1

>  <HISTAMINE H1>
10.22

>  <HISTAMINE H3>
5

>  <HISTAMINE H4>
5.85

>  <Muscarinic acetylcholine receptor M1>
7.92

>  <Muscarinic acetylcholine receptor M2>
8.15

>  <Muscarinic acetylcholine receptor M3>
7.92

>  <Muscarinic acetylcholine receptor M4>
8.1

>  <Muscarinic acetylcholine receptor M5>
7.93

$$$$
DARIFENACIN
  Marvin  02231216192D 0   1.00000     0.00000     0

 32 36  0  0  1  0  0  0  0  0999 V2000
   -8.3653   -2.6472    0.0000 O   0  0  0  0  0  0  0  0  0
   -8.8502   -1.9797    0.0000 C   0  0  0  0  0  0  0  0  0
   -8.3653   -1.3123    0.0000 C   0  0  0  0  0  0  0  0  0
   -7.5807   -1.5672    0.0000 C   0  0  0  0  0  0  0  0  0
   -6.8662   -1.1547    0.0000 C   0  0  0  0  0  0  0  0  0
   -6.1517   -1.5672    0.0000 C   0  0  0  0  0  0  0  0  0
   -6.1517   -2.3922    0.0000 C   0  0  0  0  0  0  0  0  0
   -6.8662   -2.8047    0.0000 C   0  0  0  0  0  0  0  0  0
   -7.5807   -2.3922    0.0000 C   0  0  0  0  0  0  0  0  0
   -5.4373   -1.1547    0.0000 C   0  0  0  0  0  0  0  0  0
   -5.4373   -0.3297    0.0000 C   0  0  0  0  0  0  0  0  0
   -4.7228    0.0828    0.0000 N   0  0  0  0  0  0  0  0  0
   -4.6366    0.9032    0.0000 C   0  0  0  0  0  0  0  0  0
   -3.8296    1.0748    0.0000 C   0  0  0  0  0  0  0  0  0
   -3.4171    0.3603    0.0000 C   0  0  0  0  0  0  0  0  0
   -3.9691   -0.2528    0.0000 C   0  0  0  0  0  0  0  0  0
   -3.4940    1.8284    0.0000 C   0  0  0  0  0  0  0  0  0
   -2.7404    1.4929    0.0000 C   0  0  0  0  0  0  0  0  0
   -2.0729    1.9778    0.0000 O   0  0  0  0  0  0  0  0  0
   -2.6541    0.6724    0.0000 N   0  0  0  0  0  0  0  0  0
   -3.1585    2.5821    0.0000 C   0  0  0  0  0  0  0  0  0
   -3.6434    3.2495    0.0000 C   0  0  0  0  0  0  0  0  0
   -3.3078    4.0032    0.0000 C   0  0  0  0  0  0  0  0  0
   -2.4874    4.0895    0.0000 C   0  0  0  0  0  0  0  0  0
   -2.0024    3.4220    0.0000 C   0  0  0  0  0  0  0  0  0
   -2.3380    2.6683    0.0000 C   0  0  0  0  0  0  0  0  0
   -4.2477    2.1640    0.0000 C   0  0  0  0  0  0  0  0  0
   -4.9151    1.6791    0.0000 C   0  0  0  0  0  0  0  0  0
   -5.6688    2.0146    0.0000 C   0  0  0  0  0  0  0  0  0
   -5.7551    2.8351    0.0000 C   0  0  0  0  0  0  0  0  0
   -5.0876    3.3200    0.0000 C   0  0  0  0  0  0  0  0  0
   -4.3339    2.9845    0.0000 C   0  0  0  0  0  0  0  0  0
  1  2  1  0  0  0  0
  1  9  1  0  0  0  0
  2  3  1  0  0  0  0
  3  4  1  0  0  0  0
  4  5  4  0  0  0  0
  4  9  4  0  0  0  0
  5  6  4  0  0  0  0
  6  7  4  0  0  0  0
  6 10  1  0  0  0  0
  7  8  4  0  0  0  0
  8  9  4  0  0  0  0
 10 11  1  0  0  0  0
 11 12  1  0  0  0  0
 12 13  1  0  0  0  0
 12 16  1  0  0  0  0
 13 14  1  0  0  0  0
 14 15  1  0  0  0  0
 14 17  1  0  0  0  0
 15 16  1  0  0  0  0
 17 18  1  0  0  0  0
 17 21  1  0  0  0  0
 17 27  1  0  0  0  0
 18 19  2  0  0  0  0
 18 20  1  0  0  0  0
 21 22  4  0  0  0  0
 21 26  4  0  0  0  0
 22 23  4  0  0  0  0
 23 24  4  0  0  0  0
 24 25  4  0  0  0  0
 25 26  4  0  0  0  0
 27 28  4  0  0  0  0
 27 32  4  0  0  0  0
 28 29  4  0  0  0  0
 29 30  4  0  0  0  0
 30 31  4  0  0  0  0
 31 32  4  0  0  0  0
M  END
>  <Name_Molregno>
DARIFENACIN

>  <Muscarinic acetylcholine receptor M1>
8.26

>  <Muscarinic acetylcholine receptor M2>
7.33

>  <Muscarinic acetylcholine receptor M3>
9.08

>  <Muscarinic acetylcholine receptor M4>
8.07

>  <Muscarinic acetylcholine receptor M5>
8.64

$$$$
D-cystine
  Marvin  02231216192D 0   1.00000     0.00000     0

 14 13  0  0  1  0  0  0  0  0999 V2000
    0.5597    0.5534    0.0000 S   0  0  0  0  0  0  0  0  0
   -0.1548    0.1409    0.0000 S   0  0  0  0  0  0  0  0  0
   -0.8693    0.5534    0.0000 C   0  0  0  0  0  0  0  0  0
   -1.5838    0.1409    0.0000 C   0  0  0  0  0  0  0  0  0
   -1.5838   -0.6841    0.0000 N   0  0  0  0  0  0  0  0  0
   -2.2982    0.5534    0.0000 C   0  0  0  0  0  0  0  0  0
   -3.0127    0.1409    0.0000 O   0  0  0  0  0  0  0  0  0
   -2.2982    1.3784    0.0000 O   0  0  0  0  0  0  0  0  0
    1.2741    0.1409    0.0000 C   0  0  0  0  0  0  0  0  0
    1.9886    0.5534    0.0000 C   0  0  0  0  0  0  0  0  0
    1.9886    1.3784    0.0000 N   0  0  0  0  0  0  0  0  0
    2.7031    0.1409    0.0000 C   0  0  0  0  0  0  0  0  0
    3.4175    0.5534    0.0000 O   0  0  0  0  0  0  0  0  0
    2.7031   -0.6841    0.0000 O   0  0  0  0  0  0  0  0  0
  1  2  1  0  0  0  0
  1  9  1  0  0  0  0
  2  3  1  0  0  0  0
  3  4  1  0  0  0  0
  4  5  1  0  0  0  0
  4  6  1  0  0  0  0
  6  7  1  0  0  0  0
  6  8  2  0  0  0  0
  9 10  1  0  0  0  0
 10 11  1  0  0  0  0
 10 12  1  0  0  0  0
 12 13  1  0  0  0  0
 12 14  2  0  0  0  0
M  END
>  <Name_Molregno>
D-cystine

>  <5-HT1A>
5

>  <5-HT1B>
5

>  <5-HT1D>
5

>  <5-HT3>
5

>  <5-HT5>
5

>  <5-HT6>
5

>  <5-HT7>
5

>  <Alpha-1A>
5

>  <Alpha-1B>
5

>  <Alpha-2A>
5

>  <Alpha-2B>
5

>  <Alpha-2C>
5

>  <DOPAMINE D1>
5

>  <DOPAMINE D2>
5

>  <DOPAMINE D3>
5

>  <DOPAMINE D5>
5

>  <Dopamine transporter>
5

>  <HISTAMINE H1>
5

>  <HISTAMINE H2>
5

>  <HISTAMINE H4>
5

>  <Muscarinic acetylcholine receptor M1>
5

>  <Muscarinic acetylcholine receptor M2>
5

>  <Muscarinic acetylcholine receptor M3>
5

>  <Muscarinic acetylcholine receptor M4>
5

>  <Muscarinic acetylcholine receptor M5>
5

>  <Norepinephrine transporter>
5

>  <Serotonin transporter>
5

$$$$
DESIPRAMINE
  Marvin  02231216192D 0   1.00000     0.00000     0

 20 22  0  0  0  0  0  0  0  0999 V2000
   -0.0715   -0.0141    0.0000 N   0  0  0  0  0  0  0  0  0
    0.6430   -0.4266    0.0000 C   0  0  0  0  0  0  0  0  0
    1.3575   -0.0141    0.0000 C   0  0  0  0  0  0  0  0  0
    2.0719   -0.4266    0.0000 C   0  0  0  0  0  0  0  0  0
    2.7864   -0.0141    0.0000 N   0  0  0  0  0  0  0  0  0
    2.7248    0.8086    0.0000 C   0  0  0  0  0  0  0  0  0
    3.3295    1.3697    0.0000 C   0  0  0  0  0  0  0  0  0
    4.1453    1.2468    0.0000 C   0  0  0  0  0  0  0  0  0
    4.5578    0.5323    0.0000 C   0  0  0  0  0  0  0  0  0
    4.2564   -0.2357    0.0000 C   0  0  0  0  0  0  0  0  0
    3.4680   -0.4788    0.0000 C   0  0  0  0  0  0  0  0  0
    3.2845   -1.2831    0.0000 C   0  0  0  0  0  0  0  0  0
    3.8892   -1.8443    0.0000 C   0  0  0  0  0  0  0  0  0
    4.6776   -1.6011    0.0000 C   0  0  0  0  0  0  0  0  0
    4.8612   -0.7968    0.0000 C   0  0  0  0  0  0  0  0  0
    3.1459    2.1741    0.0000 C   0  0  0  0  0  0  0  0  0
    2.3576    2.4172    0.0000 C   0  0  0  0  0  0  0  0  0
    1.7528    1.8561    0.0000 C   0  0  0  0  0  0  0  0  0
    1.9364    1.0518    0.0000 C   0  0  0  0  0  0  0  0  0
   -0.7860   -0.4266    0.0000 C   0  0  0  0  0  0  0  0  0
  1  2  1  0  0  0  0
  1 20  1  0  0  0  0
  2  3  1  0  0  0  0
  3  4  1  0  0  0  0
  4  5  1  0  0  0  0
  5  6  1  0  0  0  0
  5 11  1  0  0  0  0
  6  7  4  0  0  0  0
  6 19  4  0  0  0  0
  7  8  1  0  0  0  0
  7 16  4  0  0  0  0
  8  9  1  0  0  0  0
  9 10  1  0  0  0  0
 10 11  4  0  0  0  0
 10 15  4  0  0  0  0
 11 12  4  0  0  0  0
 12 13  4  0  0  0  0
 13 14  4  0  0  0  0
 14 15  4  0  0  0  0
 16 17  4  0  0  0  0
 17 18  4  0  0  0  0
 18 19  4  0  0  0  0
M  END
>  <Name_Molregno>
DESIPRAMINE

>  <5-HT1A>
5.1

>  <DOPAMINE D1>
5.26

>  <DOPAMINE D2>
5.63

>  <Dopamine transporter>
5.17

>  <HISTAMINE H1>
7.16

>  <Muscarinic acetylcholine receptor M1>
6.96

>  <Muscarinic acetylcholine receptor M2>
6.27

>  <Muscarinic acetylcholine receptor M3>
6.68

>  <Muscarinic acetylcholine receptor M4>
6.8

>  <Muscarinic acetylcholine receptor M5>
6.84

>  <Norepinephrine transporter>
8.66

>  <Serotonin transporter>
7.14

$$$$
Desmethylsertraline
  Marvin  02231216192D 0   1.00000     0.00000     0

 19 21  0  0  1  0  0  0  0  0999 V2000
    3.6862    2.6089    0.0000 Cl  0  0  0  0  0  0  0  0  0
    2.9717    2.1964    0.0000 C   0  0  0  0  0  0  0  0  0
    2.9717    1.3714    0.0000 C   0  0  0  0  0  0  0  0  0
    2.2572    0.9589    0.0000 C   0  0  0  0  0  0  0  0  0
    1.5428    1.3714    0.0000 C   0  0  0  0  0  0  0  0  0
    1.5428    2.1964    0.0000 C   0  0  0  0  0  0  0  0  0
    2.2572    2.6089    0.0000 C   0  0  0  0  0  0  0  0  0
    2.2572    3.4339    0.0000 Cl  0  0  0  0  0  0  0  0  0
    2.2572    0.1339    0.0000 C   0  0  0  0  0  0  0  0  0
    1.5428   -0.2786    0.0000 C   0  0  0  0  0  0  0  0  0
    1.5428   -1.1036    0.0000 C   0  0  0  0  0  0  0  0  0
    2.2572   -1.5161    0.0000 C   0  0  0  0  0  0  0  0  0
    2.2572   -2.3411    0.0000 N   0  0  0  0  0  0  0  0  0
    2.9717   -1.1036    0.0000 C   0  0  0  0  0  0  0  0  0
    2.9717   -0.2786    0.0000 C   0  0  0  0  0  0  0  0  0
    3.6862    0.1339    0.0000 C   0  0  0  0  0  0  0  0  0
    4.4007   -0.2786    0.0000 C   0  0  0  0  0  0  0  0  0
    4.4007   -1.1036    0.0000 C   0  0  0  0  0  0  0  0  0
    3.6862   -1.5161    0.0000 C   0  0  0  0  0  0  0  0  0
  1  2  1  0  0  0  0
  2  3  4  0  0  0  0
  2  7  4  0  0  0  0
  3  4  4  0  0  0  0
  4  5  4  0  0  0  0
  4  9  1  0  0  0  0
  5  6  4  0  0  0  0
  6  7  4  0  0  0  0
  7  8  1  0  0  0  0
  9 10  1  0  0  0  0
  9 15  1  0  0  0  0
 10 11  1  0  0  0  0
 11 12  1  0  0  0  0
 12 13  1  0  0  0  0
 12 14  1  0  0  0  0
 14 15  4  0  0  0  0
 14 19  4  0  0  0  0
 15 16  4  0  0  0  0
 16 17  4  0  0  0  0
 17 18  4  0  0  0  0
 18 19  4  0  0  0  0
M  END
>  <Name_Molregno>
Desmethylsertraline

>  <5-HT1A>
5

>  <DOPAMINE D2>
5

>  <Dopamine transporter>
6.89

>  <HISTAMINE H1>
5.05

>  <Muscarinic acetylcholine receptor M1>
5.78

>  <Muscarinic acetylcholine receptor M2>
5.48

>  <Muscarinic acetylcholine receptor M3>
5.46

>  <Muscarinic acetylcholine receptor M4>
5.51

>  <Muscarinic acetylcholine receptor M5>
5.42

>  <Norepinephrine transporter>
6.04

>  <Serotonin transporter>
7.89

$$$$
Desvenlafaxine
  Marvin  02231216192D 0   1.00000     0.00000     0

 19 20  0  0  1  0  0  0  0  0999 V2000
   -0.7896   -0.8374    0.0000 O   0  0  0  0  0  0  0  0  0
   -0.2593   -1.4694    0.0000 C   0  0  0  0  0  0  0  0  0
    0.4552   -1.8819    0.0000 C   0  0  0  0  0  0  0  0  0
    0.4552   -2.7069    0.0000 C   0  0  0  0  0  0  0  0  0
   -0.2593   -3.1194    0.0000 C   0  0  0  0  0  0  0  0  0
   -0.9738   -2.7069    0.0000 C   0  0  0  0  0  0  0  0  0
   -0.9738   -1.8819    0.0000 C   0  0  0  0  0  0  0  0  0
    0.2710   -0.8374    0.0000 C   0  0  0  0  0  0  0  0  0
   -0.0112   -0.0621    0.0000 C   0  0  0  0  0  0  0  0  0
   -0.8236    0.0811    0.0000 N   0  0  0  0  0  0  0  0  0
   -1.3539   -0.5509    0.0000 C   0  0  0  0  0  0  0  0  0
   -1.1058    0.8564    0.0000 C   0  0  0  0  0  0  0  0  0
    1.0835   -0.9806    0.0000 C   0  0  0  0  0  0  0  0  0
    1.6138   -0.3487    0.0000 C   0  0  0  0  0  0  0  0  0
    2.4262   -0.4919    0.0000 C   0  0  0  0  0  0  0  0  0
    2.7084   -1.2672    0.0000 C   0  0  0  0  0  0  0  0  0
    3.5209   -1.4104    0.0000 O   0  0  0  0  0  0  0  0  0
    2.1781   -1.8992    0.0000 C   0  0  0  0  0  0  0  0  0
    1.3656   -1.7559    0.0000 C   0  0  0  0  0  0  0  0  0
  1  2  1  0  0  0  0
  2  3  1  0  0  0  0
  2  7  1  0  0  0  0
  2  8  1  0  0  0  0
  3  4  1  0  0  0  0
  4  5  1  0  0  0  0
  5  6  1  0  0  0  0
  6  7  1  0  0  0  0
  8  9  1  0  0  0  0
  8 13  1  0  0  0  0
  9 10  1  0  0  0  0
 10 11  1  0  0  0  0
 10 12  1  0  0  0  0
 13 14  4  0  0  0  0
 13 19  4  0  0  0  0
 14 15  4  0  0  0  0
 15 16  4  0  0  0  0
 16 17  1  0  0  0  0
 16 18  4  0  0  0  0
 18 19  4  0  0  0  0
M  END
>  <Name_Molregno>
Desvenlafaxine

>  <DOPAMINE D1>
5

>  <DOPAMINE D2>
5

>  <Dopamine transporter>
5

>  <Muscarinic acetylcholine receptor M1>
5

>  <Muscarinic acetylcholine receptor M2>
5

>  <Muscarinic acetylcholine receptor M3>
5

>  <Muscarinic acetylcholine receptor M4>
5

>  <Muscarinic acetylcholine receptor M5>
5

>  <Norepinephrine transporter>
5.81

>  <Serotonin transporter>
7.44

$$$$
d-Fenfluramine
  Marvin  02231216192D 0   1.00000     0.00000     0

 16 16  0  0  1  0  0  0  0  0999 V2000
   -5.1694    0.5172    0.0000 F   0  0  0  0  0  0  0  0  0
   -4.4549    0.1047    0.0000 C   0  0  0  0  0  0  0  0  0
   -4.8674   -0.6097    0.0000 F   0  0  0  0  0  0  0  0  0
   -4.0424    0.8192    0.0000 F   0  0  0  0  0  0  0  0  0
   -3.7405   -0.3078    0.0000 C   0  0  0  0  0  0  0  0  0
   -3.0260    0.1047    0.0000 C   0  0  0  0  0  0  0  0  0
   -2.3115   -0.3078    0.0000 C   0  0  0  0  0  0  0  0  0
   -2.3115   -1.1328    0.0000 C   0  0  0  0  0  0  0  0  0
   -3.0260   -1.5453    0.0000 C   0  0  0  0  0  0  0  0  0
   -3.7405   -1.1328    0.0000 C   0  0  0  0  0  0  0  0  0
   -1.5971    0.1047    0.0000 C   0  0  0  0  0  0  0  0  0
   -0.8826   -0.3078    0.0000 C   0  0  0  0  0  0  0  0  0
   -0.1681    0.1047    0.0000 N   0  0  0  0  0  0  0  0  0
    0.5464   -0.3078    0.0000 C   0  0  0  0  0  0  0  0  0
    1.2608    0.1047    0.0000 C   0  0  0  0  0  0  0  0  0
   -0.8826   -1.1328    0.0000 C   0  0  0  0  0  0  0  0  0
  1  2  1  0  0  0  0
  2  3  1  0  0  0  0
  2  4  1  0  0  0  0
  2  5  1  0  0  0  0
  5  6  4  0  0  0  0
  5 10  4  0  0  0  0
  6  7  4  0  0  0  0
  7  8  4  0  0  0  0
  7 11  1  0  0  0  0
  8  9  4  0  0  0  0
  9 10  4  0  0  0  0
 11 12  1  0  0  0  0
 12 13  1  0  0  0  0
 12 16  1  0  0  0  0
 13 14  1  0  0  0  0
 14 15  1  0  0  0  0
M  END
>  <Name_Molregno>
d-Fenfluramine

>  <5-HT1A>
6.11

>  <5-HT1B>
5.67

>  <5-HT1D>
5.79

>  <5-HT1E>
5

>  <5-HT2A>
5.92

>  <5-HT2C>
6.27

>  <5-HT3>
5

>  <5-HT5>
5

>  <5-HT6>
5.01

>  <5-HT7>
5.17

>  <Alpha-1A>
5.52

>  <Alpha-1B>
5.62

>  <Alpha-2A>
6.26

>  <Alpha-2B>
6.65

>  <Alpha-2C>
6.68

>  <Beta-1>
5.67

>  <Beta-2>
5.07

>  <DOPAMINE D1>
5

>  <DOPAMINE D2>
5

>  <DOPAMINE D4>
5

>  <DOPAMINE D5>
5

>  <Dopamine transporter>
5

>  <HISTAMINE H1>
5

>  <HISTAMINE H2>
5

>  <Muscarinic acetylcholine receptor M1>
5.61

>  <Muscarinic acetylcholine receptor M2>
5.39

>  <Muscarinic acetylcholine receptor M3>
5.22

>  <Muscarinic acetylcholine receptor M4>
5.1

>  <Muscarinic acetylcholine receptor M5>
5

>  <Norepinephrine transporter>
5

>  <Serotonin transporter>
6.18

$$$$
Diphenhydramine
  Marvin  02231216192D 0   1.00000     0.00000     0

 19 20  0  0  0  0  0  0  0  0999 V2000
    0.5098    1.4209    0.0000 O   0  0  0  0  0  0  0  0  0
   -0.2047    1.0084    0.0000 C   0  0  0  0  0  0  0  0  0
   -0.9192    1.4209    0.0000 C   0  0  0  0  0  0  0  0  0
   -1.6337    1.0084    0.0000 C   0  0  0  0  0  0  0  0  0
   -2.3481    1.4209    0.0000 C   0  0  0  0  0  0  0  0  0
   -2.3481    2.2459    0.0000 C   0  0  0  0  0  0  0  0  0
   -1.6337    2.6584    0.0000 C   0  0  0  0  0  0  0  0  0
   -0.9192    2.2459    0.0000 C   0  0  0  0  0  0  0  0  0
   -0.2047    0.1834    0.0000 C   0  0  0  0  0  0  0  0  0
    0.5098   -0.2291    0.0000 C   0  0  0  0  0  0  0  0  0
    0.5098   -1.0541    0.0000 C   0  0  0  0  0  0  0  0  0
   -0.2047   -1.4666    0.0000 C   0  0  0  0  0  0  0  0  0
   -0.9192   -1.0541    0.0000 C   0  0  0  0  0  0  0  0  0
   -0.9192   -0.2291    0.0000 C   0  0  0  0  0  0  0  0  0
    1.2242    1.0084    0.0000 C   0  0  0  0  0  0  0  0  0
    1.9387    1.4209    0.0000 C   0  0  0  0  0  0  0  0  0
    2.6532    1.0084    0.0000 N   0  0  0  0  0  0  0  0  0
    3.3676    1.4209    0.0000 C   0  0  0  0  0  0  0  0  0
    2.6532    0.1834    0.0000 C   0  0  0  0  0  0  0  0  0
  1  2  1  0  0  0  0
  1 15  1  0  0  0  0
  2  3  1  0  0  0  0
  2  9  1  0  0  0  0
  3  4  4  0  0  0  0
  3  8  4  0  0  0  0
  4  5  4  0  0  0  0
  5  6  4  0  0  0  0
  6  7  4  0  0  0  0
  7  8  4  0  0  0  0
  9 10  4  0  0  0  0
  9 14  4  0  0  0  0
 10 11  4  0  0  0  0
 11 12  4  0  0  0  0
 12 13  4  0  0  0  0
 13 14  4  0  0  0  0
 15 16  1  0  0  0  0
 16 17  1  0  0  0  0
 17 18  1  0  0  0  0
 17 19  1  0  0  0  0
M  END
>  <Name_Molregno>
Diphenhydramine

>  <HISTAMINE H1>
7.78

>  <HISTAMINE H3>
5

>  <HISTAMINE H4>
5

>  <Muscarinic acetylcholine receptor M1>
7

>  <Muscarinic acetylcholine receptor M2>
6.92

>  <Muscarinic acetylcholine receptor M3>
6.64

>  <Muscarinic acetylcholine receptor M4>
6.95

>  <Muscarinic acetylcholine receptor M5>
6.59

$$$$
DIPHENIDOL-HYDROCHLORIDE
  Marvin  02231216192D 0   1.00000     0.00000     0

 23 25  0  0  0  0  0  0  0  0999 V2000
   -1.2294   -2.0934    0.0000 O   0  0  0  0  0  0  0  0  0
   -0.8169   -1.3790    0.0000 C   0  0  0  0  0  0  0  0  0
   -0.1024   -1.7915    0.0000 C   0  0  0  0  0  0  0  0  0
    0.6121   -1.3790    0.0000 C   0  0  0  0  0  0  0  0  0
    1.3265   -1.7915    0.0000 C   0  0  0  0  0  0  0  0  0
    2.0410   -1.3790    0.0000 N   0  0  0  0  0  0  0  0  0
    2.0410   -0.5540    0.0000 C   0  0  0  0  0  0  0  0  0
    2.7555   -0.1415    0.0000 C   0  0  0  0  0  0  0  0  0
    3.4699   -0.5540    0.0000 C   0  0  0  0  0  0  0  0  0
    3.4699   -1.3790    0.0000 C   0  0  0  0  0  0  0  0  0
    2.7555   -1.7915    0.0000 C   0  0  0  0  0  0  0  0  0
   -1.5313   -0.9665    0.0000 C   0  0  0  0  0  0  0  0  0
   -2.2458   -1.3790    0.0000 C   0  0  0  0  0  0  0  0  0
   -2.9603   -0.9665    0.0000 C   0  0  0  0  0  0  0  0  0
   -2.9603   -0.1415    0.0000 C   0  0  0  0  0  0  0  0  0
   -2.2458    0.2710    0.0000 C   0  0  0  0  0  0  0  0  0
   -1.5313   -0.1415    0.0000 C   0  0  0  0  0  0  0  0  0
   -0.4044   -0.6645    0.0000 C   0  0  0  0  0  0  0  0  0
   -0.8169    0.0500    0.0000 C   0  0  0  0  0  0  0  0  0
   -0.4044    0.7645    0.0000 C   0  0  0  0  0  0  0  0  0
    0.4206    0.7645    0.0000 C   0  0  0  0  0  0  0  0  0
    0.8331    0.0500    0.0000 C   0  0  0  0  0  0  0  0  0
    0.4206   -0.6645    0.0000 C   0  0  0  0  0  0  0  0  0
  1  2  1  0  0  0  0
  2  3  1  0  0  0  0
  2 12  1  0  0  0  0
  2 18  1  0  0  0  0
  3  4  1  0  0  0  0
  4  5  1  0  0  0  0
  5  6  1  0  0  0  0
  6  7  1  0  0  0  0
  6 11  1  0  0  0  0
  7  8  1  0  0  0  0
  8  9  1  0  0  0  0
  9 10  1  0  0  0  0
 10 11  1  0  0  0  0
 12 13  4  0  0  0  0
 12 17  4  0  0  0  0
 13 14  4  0  0  0  0
 14 15  4  0  0  0  0
 15 16  4  0  0  0  0
 16 17  4  0  0  0  0
 18 19  4  0  0  0  0
 18 23  4  0  0  0  0
 19 20  4  0  0  0  0
 20 21  4  0  0  0  0
 21 22  4  0  0  0  0
 22 23  4  0  0  0  0
M  END
>  <Name_Molregno>
DIPHENIDOL-HYDROCHLORIDE

>  <Muscarinic acetylcholine receptor M1>
6.37

>  <Muscarinic acetylcholine receptor M2>
5.55

>  <Muscarinic acetylcholine receptor M3>
5.95

>  <Muscarinic acetylcholine receptor M4>
6.04

>  <Muscarinic acetylcholine receptor M5>
5.89

$$$$
DL-homocysteic-acid
  Marvin  02231216192D 0   1.00000     0.00000     0

 11 10  0  0  1  0  0  0  0  0999 V2000
   -2.6928   -0.0066    0.0000 S   0  0  0  0  0  0  0  0  0
   -3.4073   -0.4191    0.0000 O   0  0  0  0  0  0  0  0  0
   -2.2803   -0.7210    0.0000 O   0  0  0  0  0  0  0  0  0
   -3.1053    0.7079    0.0000 O   0  0  0  0  0  0  0  0  0
   -1.9783    0.4059    0.0000 C   0  0  0  0  0  0  0  0  0
   -1.2639   -0.0066    0.0000 C   0  0  0  0  0  0  0  0  0
   -0.5494    0.4059    0.0000 C   0  0  0  0  0  0  0  0  0
   -0.5494    1.2309    0.0000 N   0  0  0  0  0  0  0  0  0
    0.1651   -0.0066    0.0000 C   0  0  0  0  0  0  0  0  0
    0.8795    0.4059    0.0000 O   0  0  0  0  0  0  0  0  0
    0.1651   -0.8316    0.0000 O   0  0  0  0  0  0  0  0  0
  1  2  2  0  0  0  0
  1  3  2  0  0  0  0
  1  4  1  0  0  0  0
  1  5  1  0  0  0  0
  5  6  1  0  0  0  0
  6  7  1  0  0  0  0
  7  8  1  0  0  0  0
  7  9  1  0  0  0  0
  9 10  1  0  0  0  0
  9 11  2  0  0  0  0
M  END
>  <Name_Molregno>
DL-homocysteic-acid

>  <5-HT1A>
5

>  <5-HT1B>
5

>  <5-HT1D>
5

>  <5-HT3>
5

>  <5-HT5>
5

>  <5-HT6>
5

>  <5-HT7>
5

>  <Alpha-1A>
5

>  <Alpha-1B>
5

>  <Alpha-2A>
5

>  <Alpha-2B>
5

>  <Alpha-2C>
5

>  <DOPAMINE D1>
5

>  <DOPAMINE D2>
5

>  <DOPAMINE D3>
5

>  <DOPAMINE D5>
5

>  <Dopamine transporter>
5

>  <Muscarinic acetylcholine receptor M1>
5

>  <Muscarinic acetylcholine receptor M2>
5

>  <Muscarinic acetylcholine receptor M3>
5

>  <Muscarinic acetylcholine receptor M4>
5

>  <Muscarinic acetylcholine receptor M5>
5

>  <Norepinephrine transporter>
5

>  <Serotonin transporter>
5

$$$$
DL-homocysteine
  Marvin  02231216192D 0   1.00000     0.00000     0

  8  7  0  0  1  0  0  0  0  0999 V2000
   -0.0519    0.0021    0.0000 S   0  0  0  0  0  0  0  0  0
    0.6626    0.4146    0.0000 C   0  0  0  0  0  0  0  0  0
    1.3770    0.0021    0.0000 C   0  0  0  0  0  0  0  0  0
    2.0915    0.4146    0.0000 C   0  0  0  0  0  0  0  0  0
    2.0915    1.2396    0.0000 N   0  0  0  0  0  0  0  0  0
    2.8060    0.0021    0.0000 C   0  0  0  0  0  0  0  0  0
    3.5205    0.4146    0.0000 O   0  0  0  0  0  0  0  0  0
    2.8060   -0.8229    0.0000 O   0  0  0  0  0  0  0  0  0
  1  2  1  0  0  0  0
  2  3  1  0  0  0  0
  3  4  1  0  0  0  0
  4  5  1  0  0  0  0
  4  6  1  0  0  0  0
  6  7  1  0  0  0  0
  6  8  2  0  0  0  0
M  END
>  <Name_Molregno>
DL-homocysteine

>  <5-HT1A>
5

>  <5-HT1B>
5

>  <5-HT1D>
5

>  <5-HT3>
5

>  <5-HT5>
5

>  <5-HT6>
5

>  <5-HT7>
5

>  <Alpha-1A>
5

>  <Alpha-1B>
5

>  <Alpha-2A>
5

>  <Alpha-2B>
5

>  <Alpha-2C>
5

>  <DOPAMINE D1>
5

>  <DOPAMINE D2>
5

>  <DOPAMINE D3>
5

>  <DOPAMINE D5>
5

>  <Dopamine transporter>
5

>  <HISTAMINE H1>
5

>  <HISTAMINE H2>
5

>  <HISTAMINE H4>
5

>  <Muscarinic acetylcholine receptor M1>
5

>  <Muscarinic acetylcholine receptor M2>
5

>  <Muscarinic acetylcholine receptor M3>
5

>  <Muscarinic acetylcholine receptor M4>
5

>  <Muscarinic acetylcholine receptor M5>
5

>  <Norepinephrine transporter>
5

>  <Serotonin transporter>
5

$$$$
D-methionine
  Marvin  02231216192D 0   1.00000     0.00000     0

  9  8  0  0  1  0  0  0  0  0999 V2000
   -0.3763    1.2394    0.0000 S   0  0  0  0  0  0  0  0  0
    0.3381    0.8269    0.0000 C   0  0  0  0  0  0  0  0  0
    1.0526    1.2394    0.0000 C   0  0  0  0  0  0  0  0  0
    1.7671    0.8269    0.0000 C   0  0  0  0  0  0  0  0  0
    1.7671    0.0019    0.0000 N   0  0  0  0  0  0  0  0  0
    2.4816    1.2394    0.0000 C   0  0  0  0  0  0  0  0  0
    3.1960    0.8269    0.0000 O   0  0  0  0  0  0  0  0  0
    2.4816    2.0644    0.0000 O   0  0  0  0  0  0  0  0  0
   -1.0908    0.8269    0.0000 C   0  0  0  0  0  0  0  0  0
  1  2  1  0  0  0  0
  1  9  1  0  0  0  0
  2  3  1  0  0  0  0
  3  4  1  0  0  0  0
  4  5  1  0  0  0  0
  4  6  1  0  0  0  0
  6  7  1  0  0  0  0
  6  8  2  0  0  0  0
M  END
>  <Name_Molregno>
D-methionine

>  <5-HT1A>
5

>  <5-HT1B>
5

>  <5-HT1D>
5

>  <5-HT3>
5

>  <5-HT5>
5

>  <5-HT6>
5

>  <5-HT7>
5

>  <Alpha-1A>
5

>  <Alpha-1B>
5

>  <Alpha-2A>
5

>  <Alpha-2B>
5

>  <Alpha-2C>
5

>  <DOPAMINE D1>
5

>  <DOPAMINE D2>
5

>  <DOPAMINE D3>
5

>  <DOPAMINE D5>
5

>  <Dopamine transporter>
5

>  <HISTAMINE H1>
5

>  <HISTAMINE H2>
5

>  <HISTAMINE H4>
5

>  <Muscarinic acetylcholine receptor M1>
5

>  <Muscarinic acetylcholine receptor M2>
5

>  <Muscarinic acetylcholine receptor M3>
5

>  <Muscarinic acetylcholine receptor M4>
5

>  <Muscarinic acetylcholine receptor M5>
5

>  <Norepinephrine transporter>
5

>  <Serotonin transporter>
5

$$$$
Dothiepin
  Marvin  02231216192D 0   1.00000     0.00000     0

 21 23  0  0  0  0  0  0  0  0999 V2000
    0.5748    0.1771    0.0000 S   0  0  0  0  0  0  0  0  0
    1.3998    0.1771    0.0000 C   0  0  0  0  0  0  0  0  0
    1.9142   -0.4679    0.0000 C   0  0  0  0  0  0  0  0  0
    1.7306   -1.2722    0.0000 C   0  0  0  0  0  0  0  0  0
    2.3354   -1.8333    0.0000 C   0  0  0  0  0  0  0  0  0
    3.1237   -1.5902    0.0000 C   0  0  0  0  0  0  0  0  0
    3.3073   -0.7858    0.0000 C   0  0  0  0  0  0  0  0  0
    2.7026   -0.2247    0.0000 C   0  0  0  0  0  0  0  0  0
    0.9873   -1.6301    0.0000 C   0  0  0  0  0  0  0  0  0
    0.2440   -1.2722    0.0000 C   0  0  0  0  0  0  0  0  0
    0.0604   -0.4679    0.0000 C   0  0  0  0  0  0  0  0  0
   -0.7279   -0.2247    0.0000 C   0  0  0  0  0  0  0  0  0
   -1.3327   -0.7858    0.0000 C   0  0  0  0  0  0  0  0  0
   -1.1491   -1.5902    0.0000 C   0  0  0  0  0  0  0  0  0
   -0.3607   -1.8333    0.0000 C   0  0  0  0  0  0  0  0  0
    0.9873   -2.4551    0.0000 C   0  0  0  0  0  0  0  0  0
    0.2729   -2.8676    0.0000 C   0  0  0  0  0  0  0  0  0
    0.2729   -3.6926    0.0000 C   0  0  0  0  0  0  0  0  0
   -0.4416   -4.1051    0.0000 N   0  0  0  0  0  0  0  0  0
   -0.4416   -4.9301    0.0000 C   0  0  0  0  0  0  0  0  0
   -1.1561   -3.6926    0.0000 C   0  0  0  0  0  0  0  0  0
  1  2  1  0  0  0  0
  1 11  1  0  0  0  0
  2  3  1  0  0  0  0
  3  4  4  0  0  0  0
  3  8  4  0  0  0  0
  4  5  4  0  0  0  0
  4  9  1  0  0  0  0
  5  6  4  0  0  0  0
  6  7  4  0  0  0  0
  7  8  4  0  0  0  0
  9 10  1  0  0  0  0
  9 16  2  0  0  0  0
 10 11  4  0  0  0  0
 10 15  4  0  0  0  0
 11 12  4  0  0  0  0
 12 13  4  0  0  0  0
 13 14  4  0  0  0  0
 14 15  4  0  0  0  0
 16 17  1  0  0  0  0
 17 18  1  0  0  0  0
 18 19  1  0  0  0  0
 19 20  1  0  0  0  0
 19 21  1  0  0  0  0
M  END
>  <Name_Molregno>
Dothiepin

>  <Dopamine transporter>
5.27

>  <Muscarinic acetylcholine receptor M1>
7.74

>  <Muscarinic acetylcholine receptor M2>
6.96

>  <Muscarinic acetylcholine receptor M3>
7.42

>  <Muscarinic acetylcholine receptor M4>
7.21

>  <Muscarinic acetylcholine receptor M5>
7.04

>  <Norepinephrine transporter>
7.34

>  <Serotonin transporter>
8.07

$$$$
DOXEPIN
  Marvin  02231216192D 0   1.00000     0.00000     0

 21 23  0  0  0  0  0  0  0  0999 V2000
    0.5748    0.1771    0.0000 O   0  0  0  0  0  0  0  0  0
    1.3998    0.1771    0.0000 C   0  0  0  0  0  0  0  0  0
    1.9142   -0.4679    0.0000 C   0  0  0  0  0  0  0  0  0
    1.7306   -1.2722    0.0000 C   0  0  0  0  0  0  0  0  0
    2.3354   -1.8333    0.0000 C   0  0  0  0  0  0  0  0  0
    3.1237   -1.5902    0.0000 C   0  0  0  0  0  0  0  0  0
    3.3073   -0.7858    0.0000 C   0  0  0  0  0  0  0  0  0
    2.7026   -0.2247    0.0000 C   0  0  0  0  0  0  0  0  0
    0.9873   -1.6301    0.0000 C   0  0  0  0  0  0  0  0  0
    0.2440   -1.2722    0.0000 C   0  0  0  0  0  0  0  0  0
    0.0604   -0.4679    0.0000 C   0  0  0  0  0  0  0  0  0
   -0.7279   -0.2247    0.0000 C   0  0  0  0  0  0  0  0  0
   -1.3327   -0.7858    0.0000 C   0  0  0  0  0  0  0  0  0
   -1.1491   -1.5902    0.0000 C   0  0  0  0  0  0  0  0  0
   -0.3607   -1.8333    0.0000 C   0  0  0  0  0  0  0  0  0
    0.9873   -2.4551    0.0000 C   0  0  0  0  0  0  0  0  0
    0.2729   -2.8676    0.0000 C   0  0  0  0  0  0  0  0  0
    0.2729   -3.6926    0.0000 C   0  0  0  0  0  0  0  0  0
   -0.4416   -4.1051    0.0000 N   0  0  0  0  0  0  0  0  0
   -0.4416   -4.9301    0.0000 C   0  0  0  0  0  0  0  0  0
   -1.1561   -3.6926    0.0000 C   0  0  0  0  0  0  0  0  0
  1  2  1  0  0  0  0
  1 11  1  0  0  0  0
  2  3  1  0  0  0  0
  3  4  4  0  0  0  0
  3  8  4  0  0  0  0
  4  5  4  0  0  0  0
  4  9  1  0  0  0  0
  5  6  4  0  0  0  0
  6  7  4  0  0  0  0
  7  8  4  0  0  0  0
  9 10  1  0  0  0  0
  9 16  2  0  0  0  0
 10 11  4  0  0  0  0
 10 15  4  0  0  0  0
 11 12  4  0  0  0  0
 12 13  4  0  0  0  0
 13 14  4  0  0  0  0
 14 15  4  0  0  0  0
 16 17  1  0  0  0  0
 17 18  1  0  0  0  0
 18 19  1  0  0  0  0
 19 20  1  0  0  0  0
 19 21  1  0  0  0  0
M  END
>  <Name_Molregno>
DOXEPIN

>  <5-HT1A>
6.56

>  <DOPAMINE D2>
6.44

>  <Dopamine transporter>
5

>  <HISTAMINE H1>
9.68

>  <HISTAMINE H4>
6.98

>  <Muscarinic acetylcholine receptor M1>
7.42

>  <Muscarinic acetylcholine receptor M2>
6.8

>  <Muscarinic acetylcholine receptor M3>
7.28

>  <Muscarinic acetylcholine receptor M4>
7.09

>  <Muscarinic acetylcholine receptor M5>
7.12

>  <Norepinephrine transporter>
7.53

>  <Serotonin transporter>
7.17

$$$$
Ephedrine
  Marvin  02231216192D 0   1.00000     0.00000     0

 12 12  0  0  1  0  0  0  0  0999 V2000
    1.9192   -0.0549    0.0000 O   0  0  0  0  0  0  0  0  0
    1.2047   -0.4674    0.0000 C   0  0  0  0  0  0  0  0  0
    0.4903   -0.0549    0.0000 C   0  0  0  0  0  0  0  0  0
    0.4903    0.7701    0.0000 N   0  0  0  0  0  0  0  0  0
   -0.2242    1.1826    0.0000 C   0  0  0  0  0  0  0  0  0
   -0.2242   -0.4674    0.0000 C   0  0  0  0  0  0  0  0  0
    1.2047   -1.2924    0.0000 C   0  0  0  0  0  0  0  0  0
    1.9192   -1.7049    0.0000 C   0  0  0  0  0  0  0  0  0
    1.9192   -2.5299    0.0000 C   0  0  0  0  0  0  0  0  0
    1.2047   -2.9424    0.0000 C   0  0  0  0  0  0  0  0  0
    0.4903   -2.5299    0.0000 C   0  0  0  0  0  0  0  0  0
    0.4903   -1.7049    0.0000 C   0  0  0  0  0  0  0  0  0
  1  2  1  0  0  0  0
  2  3  1  0  0  0  0
  2  7  1  0  0  0  0
  3  4  1  0  0  0  0
  3  6  1  0  0  0  0
  4  5  1  0  0  0  0
  7  8  4  0  0  0  0
  7 12  4  0  0  0  0
  8  9  4  0  0  0  0
  9 10  4  0  0  0  0
 10 11  4  0  0  0  0
 11 12  4  0  0  0  0
M  END
>  <Name_Molregno>
Ephedrine

>  <5-HT1A>
5

>  <5-HT1B>
5

>  <5-HT1D>
5

>  <5-HT1E>
5

>  <5-HT3>
5

>  <5-HT5>
5

>  <5-HT6>
5

>  <5-HT7>
5.33

>  <Alpha-1A>
5

>  <Alpha-1B>
5

>  <Alpha-2A>
5.17

>  <Alpha-2B>
5.48

>  <Alpha-2C>
5.51

>  <Beta-1>
5

>  <Beta-2>
5

>  <DOPAMINE D1>
5

>  <DOPAMINE D2>
5

>  <DOPAMINE D4>
5

>  <DOPAMINE D5>
5

>  <Dopamine transporter>
5.38

>  <HISTAMINE H1>
5

>  <HISTAMINE H2>
5

>  <HISTAMINE H4>
5

>  <Muscarinic acetylcholine receptor M1>
5

>  <Muscarinic acetylcholine receptor M2>
5

>  <Muscarinic acetylcholine receptor M3>
5

>  <Muscarinic acetylcholine receptor M4>
5

>  <Muscarinic acetylcholine receptor M5>
5

>  <Norepinephrine transporter>
5.79

>  <Serotonin transporter>
5

$$$$
ERGOTAMINE
  Marvin  02231216192D 0   1.00000     0.00000     0

 43 50  0  0  1  0  0  0  0  0999 V2000
   -2.1239   -1.0172    0.0000 O   0  0  0  0  0  0  0  0  0
   -1.3035   -1.1045    0.0000 C   0  0  0  0  0  0  0  0  0
   -1.3025   -0.2795    0.0000 N   0  0  0  0  0  0  0  0  0
   -0.5876    0.1322    0.0000 C   0  0  0  0  0  0  0  0  0
    0.1264   -0.2812    0.0000 O   0  0  0  0  0  0  0  0  0
   -0.5866    0.9572    0.0000 C   0  0  0  0  0  0  0  0  0
    0.1284    1.3688    0.0000 C   0  0  0  0  0  0  0  0  0
    0.1294    2.1938    0.0000 C   0  0  0  0  0  0  0  0  0
   -0.5846    2.6072    0.0000 C   0  0  0  0  0  0  0  0  0
   -1.2996    2.1955    0.0000 N   0  0  0  0  0  0  0  0  0
   -1.3006    1.3705    0.0000 C   0  0  0  0  0  0  0  0  0
   -2.0136    2.6089    0.0000 C   0  0  0  0  0  0  0  0  0
   -0.5831    3.4313    0.0000 C   0  0  0  0  0  0  0  0  0
    0.1294    3.8438    0.0000 C   0  0  0  0  0  0  0  0  0
    0.8419    3.4313    0.0000 C   0  0  0  0  0  0  0  0  0
    0.8419    2.6063    0.0000 C   0  0  0  0  0  0  0  0  0
    1.5597    2.1938    0.0000 C   0  0  0  0  0  0  0  0  0
    2.2722    2.6063    0.0000 C   0  0  0  0  0  0  0  0  0
    2.2722    3.4313    0.0000 C   0  0  0  0  0  0  0  0  0
    1.5597    3.8438    0.0000 C   0  0  0  0  0  0  0  0  0
    1.2544    4.7010    0.0000 N   0  0  0  0  0  0  0  0  0
    0.4294    4.7010    0.0000 C   0  0  0  0  0  0  0  0  0
   -0.4830   -1.0192    0.0000 C   0  0  0  0  0  0  0  0  0
   -1.1330   -1.9116    0.0000 C   0  0  0  0  0  0  0  0  0
   -0.3797   -2.2481    0.0000 O   0  0  0  0  0  0  0  0  0
   -1.8479   -2.3233    0.0000 N   0  0  0  0  0  0  0  0  0
   -2.0204   -3.1301    0.0000 C   0  0  0  0  0  0  0  0  0
   -1.4080   -3.6828    0.0000 C   0  0  0  0  0  0  0  0  0
   -1.5805   -4.4896    0.0000 C   0  0  0  0  0  0  0  0  0
   -0.9681   -5.0424    0.0000 C   0  0  0  0  0  0  0  0  0
   -1.1406   -5.8491    0.0000 C   0  0  0  0  0  0  0  0  0
   -1.9255   -6.1031    0.0000 C   0  0  0  0  0  0  0  0  0
   -2.5379   -5.5504    0.0000 C   0  0  0  0  0  0  0  0  0
   -2.3654   -4.7436    0.0000 C   0  0  0  0  0  0  0  0  0
   -2.8054   -3.3841    0.0000 C   0  0  0  0  0  0  0  0  0
   -2.9779   -4.1908    0.0000 O   0  0  0  0  0  0  0  0  0
   -3.4178   -2.8313    0.0000 N   0  0  0  0  0  0  0  0  0
   -3.2453   -2.0245    0.0000 C   0  0  0  0  0  0  0  0  0
   -3.9593   -1.6112    0.0000 C   0  0  0  0  0  0  0  0  0
   -4.5730   -2.1625    0.0000 C   0  0  0  0  0  0  0  0  0
   -4.2384   -2.9165    0.0000 C   0  0  0  0  0  0  0  0  0
   -2.4604   -1.7705    0.0000 C   0  0  0  0  0  0  0  0  0
   -3.0117   -1.1568    0.0000 O   0  0  0  0  0  0  0  0  0
  1  2  1  0  0  0  0
  1 42  1  0  0  0  0
  2  3  1  0  0  0  0
  2 23  1  0  0  0  0
  2 24  1  0  0  0  0
  3  4  1  0  0  0  0
  4  5  2  0  0  0  0
  4  6  1  0  0  0  0
  6  7  1  0  0  0  0
  6 11  1  0  0  0  0
  7  8  2  0  0  0  0
  8  9  1  0  0  0  0
  8 16  1  0  0  0  0
  9 10  1  0  0  0  0
  9 13  1  0  0  0  0
 10 11  1  0  0  0  0
 10 12  1  0  0  0  0
 13 14  1  0  0  0  0
 14 15  4  0  0  0  0
 14 22  4  0  0  0  0
 15 16  4  0  0  0  0
 15 20  4  0  0  0  0
 16 17  4  0  0  0  0
 17 18  4  0  0  0  0
 18 19  4  0  0  0  0
 19 20  4  0  0  0  0
 20 21  4  0  0  0  0
 21 22  4  0  0  0  0
 24 25  2  0  0  0  0
 24 26  1  0  0  0  0
 26 27  1  0  0  0  0
 26 42  1  0  0  0  0
 27 28  1  0  0  0  0
 27 35  1  0  0  0  0
 28 29  1  0  0  0  0
 29 30  4  0  0  0  0
 29 34  4  0  0  0  0
 30 31  4  0  0  0  0
 31 32  4  0  0  0  0
 32 33  4  0  0  0  0
 33 34  4  0  0  0  0
 35 36  2  0  0  0  0
 35 37  1  0  0  0  0
 37 38  1  0  0  0  0
 37 41  1  0  0  0  0
 38 39  1  0  0  0  0
 38 42  1  0  0  0  0
 39 40  1  0  0  0  0
 40 41  1  0  0  0  0
 42 43  1  0  0  0  0
M  STY  1   1 DAT
M  SAL   1  1  21
M  SDT   1 MRV_IMPLICIT_H                                        
M  SDD   1     0.0000    0.0000    DR    ALL  0       0  
M  SED   1 IMPL_H1
M  END
>  <Name_Molregno>
ERGOTAMINE

>  <5-HT1A>
9.77

>  <5-HT1B>
8.33

>  <5-HT1D>
9

>  <5-HT1E>
6.58

>  <5-HT2A>
9.1

>  <5-HT2C>
8.37

>  <5-HT3>
5

>  <5-HT6>
7.92

>  <5-HT7>
5.89

>  <Alpha-1A>
5

>  <Alpha-1B>
5

>  <Alpha-2A>
6.97

>  <Alpha-2B>
7.05

>  <Alpha-2C>
5

>  <Beta-1>
5

>  <Beta-2>
5

>  <DOPAMINE D1>
5

>  <DOPAMINE D2>
5

>  <DOPAMINE D4>
5

>  <DOPAMINE D5>
6.77

>  <Dopamine transporter>
5

>  <HISTAMINE H1>
5

>  <HISTAMINE H2>
5

>  <Muscarinic acetylcholine receptor M1>
6.06

>  <Muscarinic acetylcholine receptor M2>
6.04

>  <Muscarinic acetylcholine receptor M3>
5

>  <Muscarinic acetylcholine receptor M4>
5

>  <Muscarinic acetylcholine receptor M5>
5

>  <Norepinephrine transporter>
5

>  <Serotonin transporter>
5

$$$$
Etoperidone
  Marvin  02231216192D 0   1.00000     0.00000     0

 26 28  0  0  0  0  0  0  0  0999 V2000
    8.8513    2.0412    0.0000 Cl  0  0  0  0  0  0  0  0  0
    8.1368    2.4537    0.0000 C   0  0  0  0  0  0  0  0  0
    7.4223    2.0412    0.0000 C   0  0  0  0  0  0  0  0  0
    6.7079    2.4537    0.0000 C   0  0  0  0  0  0  0  0  0
    5.9934    2.0412    0.0000 N   0  0  0  0  0  0  0  0  0
    5.9934    1.2162    0.0000 C   0  0  0  0  0  0  0  0  0
    5.2789    0.8037    0.0000 C   0  0  0  0  0  0  0  0  0
    4.5644    1.2162    0.0000 N   0  0  0  0  0  0  0  0  0
    4.5644    2.0412    0.0000 C   0  0  0  0  0  0  0  0  0
    5.2789    2.4537    0.0000 C   0  0  0  0  0  0  0  0  0
    3.8500    0.8037    0.0000 C   0  0  0  0  0  0  0  0  0
    3.8500   -0.0213    0.0000 C   0  0  0  0  0  0  0  0  0
    3.1355   -0.4338    0.0000 C   0  0  0  0  0  0  0  0  0
    3.1355   -1.2588    0.0000 N   0  0  0  0  0  0  0  0  0
    3.8029   -1.7438    0.0000 N   0  0  0  0  0  0  0  0  0
    3.5480   -2.5284    0.0000 C   0  0  0  0  0  0  0  0  0
    2.7230   -2.5284    0.0000 N   0  0  0  0  0  0  0  0  0
    2.2381   -3.1958    0.0000 C   0  0  0  0  0  0  0  0  0
    2.5736   -3.9495    0.0000 C   0  0  0  0  0  0  0  0  0
    2.4681   -1.7438    0.0000 C   0  0  0  0  0  0  0  0  0
    1.6834   -1.4888    0.0000 O   0  0  0  0  0  0  0  0  0
    4.0329   -3.1958    0.0000 C   0  0  0  0  0  0  0  0  0
    3.6974   -3.9495    0.0000 C   0  0  0  0  0  0  0  0  0
    6.7079    3.2787    0.0000 C   0  0  0  0  0  0  0  0  0
    7.4223    3.6912    0.0000 C   0  0  0  0  0  0  0  0  0
    8.1368    3.2787    0.0000 C   0  0  0  0  0  0  0  0  0
  1  2  1  0  0  0  0
  2  3  4  0  0  0  0
  2 26  4  0  0  0  0
  3  4  4  0  0  0  0
  4  5  1  0  0  0  0
  4 24  4  0  0  0  0
  5  6  1  0  0  0  0
  5 10  1  0  0  0  0
  6  7  1  0  0  0  0
  7  8  1  0  0  0  0
  8  9  1  0  0  0  0
  8 11  1  0  0  0  0
  9 10  1  0  0  0  0
 11 12  1  0  0  0  0
 12 13  1  0  0  0  0
 13 14  1  0  0  0  0
 14 15  1  0  0  0  0
 14 20  1  0  0  0  0
 15 16  2  0  0  0  0
 16 17  1  0  0  0  0
 16 22  1  0  0  0  0
 17 18  1  0  0  0  0
 17 20  1  0  0  0  0
 18 19  1  0  0  0  0
 20 21  2  0  0  0  0
 22 23  1  0  0  0  0
 24 25  4  0  0  0  0
 25 26  4  0  0  0  0
M  END
>  <Name_Molregno>
Etoperidone

>  <5-HT1A>
7.07

>  <DOPAMINE D2>
5.64

>  <Dopamine transporter>
5

>  <HISTAMINE H1>
5.51

>  <Muscarinic acetylcholine receptor M1>
5

>  <Muscarinic acetylcholine receptor M2>
5

>  <Muscarinic acetylcholine receptor M3>
5

>  <Muscarinic acetylcholine receptor M4>
5

>  <Muscarinic acetylcholine receptor M5>
5

>  <Norepinephrine transporter>
5

>  <Serotonin transporter>
6.05

$$$$
Femoxetine
  Marvin  02231216192D 0   1.00000     0.00000     0

 23 25  0  0  1  0  0  0  0  0999 V2000
    0.2450    1.0399    0.0000 O   0  0  0  0  0  0  0  0  0
    0.9594    0.6274    0.0000 C   0  0  0  0  0  0  0  0  0
    0.9594   -0.1976    0.0000 C   0  0  0  0  0  0  0  0  0
    1.6739   -0.6101    0.0000 C   0  0  0  0  0  0  0  0  0
    1.6739   -1.4351    0.0000 N   0  0  0  0  0  0  0  0  0
    0.9594   -1.8476    0.0000 C   0  0  0  0  0  0  0  0  0
    0.2450   -1.4351    0.0000 C   0  0  0  0  0  0  0  0  0
    0.2450   -0.6101    0.0000 C   0  0  0  0  0  0  0  0  0
   -0.4695   -0.1976    0.0000 C   0  0  0  0  0  0  0  0  0
   -1.1840   -0.6101    0.0000 C   0  0  0  0  0  0  0  0  0
   -1.8985   -0.1976    0.0000 C   0  0  0  0  0  0  0  0  0
   -1.8985    0.6274    0.0000 C   0  0  0  0  0  0  0  0  0
   -1.1840    1.0399    0.0000 C   0  0  0  0  0  0  0  0  0
   -0.4695    0.6274    0.0000 C   0  0  0  0  0  0  0  0  0
    2.3884   -1.8476    0.0000 C   0  0  0  0  0  0  0  0  0
    0.2450    1.8649    0.0000 C   0  0  0  0  0  0  0  0  0
   -0.4695    2.2774    0.0000 C   0  0  0  0  0  0  0  0  0
   -0.4695    3.1024    0.0000 C   0  0  0  0  0  0  0  0  0
    0.2450    3.5149    0.0000 C   0  0  0  0  0  0  0  0  0
    0.2450    4.3399    0.0000 O   0  0  0  0  0  0  0  0  0
   -0.4695    4.7524    0.0000 C   0  0  0  0  0  0  0  0  0
    0.9594    3.1024    0.0000 C   0  0  0  0  0  0  0  0  0
    0.9594    2.2774    0.0000 C   0  0  0  0  0  0  0  0  0
  1  2  1  0  0  0  0
  1 16  1  0  0  0  0
  2  3  1  0  0  0  0
  3  4  1  0  0  0  0
  3  8  1  0  0  0  0
  4  5  1  0  0  0  0
  5  6  1  0  0  0  0
  5 15  1  0  0  0  0
  6  7  1  0  0  0  0
  7  8  1  0  0  0  0
  8  9  1  0  0  0  0
  9 10  4  0  0  0  0
  9 14  4  0  0  0  0
 10 11  4  0  0  0  0
 11 12  4  0  0  0  0
 12 13  4  0  0  0  0
 13 14  4  0  0  0  0
 16 17  4  0  0  0  0
 16 23  4  0  0  0  0
 17 18  4  0  0  0  0
 18 19  4  0  0  0  0
 19 20  1  0  0  0  0
 19 22  4  0  0  0  0
 20 21  1  0  0  0  0
 22 23  4  0  0  0  0
M  END
>  <Name_Molregno>
Femoxetine

>  <5-HT1A>
5.64

>  <DOPAMINE D2>
6.23

>  <Dopamine transporter>
5.69

>  <HISTAMINE H1>
5.38

>  <Muscarinic acetylcholine receptor M1>
7.04

>  <Muscarinic acetylcholine receptor M2>
6.82

>  <Muscarinic acetylcholine receptor M3>
6.66

>  <Muscarinic acetylcholine receptor M4>
6.33

>  <Muscarinic acetylcholine receptor M5>
6.4

>  <Norepinephrine transporter>
6.12

>  <Serotonin transporter>
7.96

$$$$
Fluorocarazolol
  Marvin  02231216192D 0   1.00000     0.00000     0

 23 25  0  0  1  0  0  0  0  0999 V2000
   -0.1270    1.0228    0.0000 F   0  0  0  0  0  0  0  0  0
    0.5874    0.6103    0.0000 C   0  0  0  0  0  0  0  0  0
    1.3019    1.0228    0.0000 C   0  0  0  0  0  0  0  0  0
    2.0164    0.6103    0.0000 N   0  0  0  0  0  0  0  0  0
    2.7309    1.0228    0.0000 C   0  0  0  0  0  0  0  0  0
    3.4453    0.6103    0.0000 C   0  0  0  0  0  0  0  0  0
    3.4453   -0.2147    0.0000 O   0  0  0  0  0  0  0  0  0
    4.1598    1.0228    0.0000 C   0  0  0  0  0  0  0  0  0
    4.8743    0.6103    0.0000 O   0  0  0  0  0  0  0  0  0
    5.5887    1.0228    0.0000 C   0  0  0  0  0  0  0  0  0
    6.3032    0.6103    0.0000 C   0  0  0  0  0  0  0  0  0
    6.4747   -0.1966    0.0000 C   0  0  0  0  0  0  0  0  0
    7.2952   -0.2829    0.0000 C   0  0  0  0  0  0  0  0  0
    7.6308    0.4708    0.0000 N   0  0  0  0  0  0  0  0  0
    7.0177    1.0228    0.0000 C   0  0  0  0  0  0  0  0  0
    7.0177    1.8478    0.0000 C   0  0  0  0  0  0  0  0  0
    6.3032    2.2603    0.0000 C   0  0  0  0  0  0  0  0  0
    5.5887    1.8478    0.0000 C   0  0  0  0  0  0  0  0  0
    7.6308   -1.0365    0.0000 C   0  0  0  0  0  0  0  0  0
    7.1459   -1.7040    0.0000 C   0  0  0  0  0  0  0  0  0
    6.3254   -1.6178    0.0000 C   0  0  0  0  0  0  0  0  0
    5.9898   -0.8641    0.0000 C   0  0  0  0  0  0  0  0  0
    1.3019    1.8478    0.0000 C   0  0  0  0  0  0  0  0  0
  1  2  1  0  0  0  0
  2  3  1  0  0  0  0
  3  4  1  0  0  0  0
  3 23  1  0  0  0  0
  4  5  1  0  0  0  0
  5  6  1  0  0  0  0
  6  7  1  0  0  0  0
  6  8  1  0  0  0  0
  8  9  1  0  0  0  0
  9 10  1  0  0  0  0
 10 11  4  0  0  0  0
 10 18  4  0  0  0  0
 11 12  4  0  0  0  0
 11 15  4  0  0  0  0
 12 13  4  0  0  0  0
 12 22  4  0  0  0  0
 13 14  4  0  0  0  0
 13 19  4  0  0  0  0
 14 15  4  0  0  0  0
 15 16  4  0  0  0  0
 16 17  4  0  0  0  0
 17 18  4  0  0  0  0
 19 20  4  0  0  0  0
 20 21  4  0  0  0  0
 21 22  4  0  0  0  0
M  STY  1   1 DAT
M  SAL   1  1  14
M  SDT   1 MRV_IMPLICIT_H                                        
M  SDD   1     0.0000    0.0000    DR    ALL  0       0  
M  SED   1 IMPL_H1
M  END
>  <Name_Molregno>
Fluorocarazolol

>  <5-HT1A>
6.97

>  <5-HT1B>
6.31

>  <5-HT1D>
5.5

>  <5-HT1E>
5

>  <5-HT3>
5

>  <5-HT5>
5

>  <5-HT6>
5

>  <5-HT7>
5.17

>  <Alpha-1A>
5.85

>  <Alpha-1B>
5.76

>  <Alpha-2A>
5.5

>  <Alpha-2B>
5.03

>  <Alpha-2C>
5.54

>  <Beta-1>
9.65

>  <Beta-2>
9.98

>  <DOPAMINE D1>
5

>  <DOPAMINE D5>
5

>  <Muscarinic acetylcholine receptor M1>
5.66

>  <Muscarinic acetylcholine receptor M2>
5

>  <Muscarinic acetylcholine receptor M3>
5.4

>  <Muscarinic acetylcholine receptor M4>
5.14

>  <Muscarinic acetylcholine receptor M5>
5.27

>  <Norepinephrine transporter>
5

>  <Serotonin transporter>
5

$$$$
FLUOXETINE
  Marvin  02231216192D 0   1.00000     0.00000     0

 22 23  0  0  1  0  0  0  0  0999 V2000
    0.2470    0.2265    0.0000 F   0  0  0  0  0  0  0  0  0
    0.9615   -0.1860    0.0000 C   0  0  0  0  0  0  0  0  0
    0.5490   -0.9005    0.0000 F   0  0  0  0  0  0  0  0  0
    1.3740    0.5285    0.0000 F   0  0  0  0  0  0  0  0  0
    1.6760   -0.5985    0.0000 C   0  0  0  0  0  0  0  0  0
    2.3904   -0.1860    0.0000 C   0  0  0  0  0  0  0  0  0
    3.1049   -0.5985    0.0000 C   0  0  0  0  0  0  0  0  0
    3.1049   -1.4235    0.0000 C   0  0  0  0  0  0  0  0  0
    3.8194   -1.8360    0.0000 O   0  0  0  0  0  0  0  0  0
    4.5339   -1.4235    0.0000 C   0  0  0  0  0  0  0  0  0
    5.2483   -1.8360    0.0000 C   0  0  0  0  0  0  0  0  0
    5.9628   -1.4235    0.0000 C   0  0  0  0  0  0  0  0  0
    6.6773   -1.8360    0.0000 N   0  0  0  0  0  0  0  0  0
    7.3917   -1.4235    0.0000 C   0  0  0  0  0  0  0  0  0
    4.5339   -0.5985    0.0000 C   0  0  0  0  0  0  0  0  0
    3.8194   -0.1860    0.0000 C   0  0  0  0  0  0  0  0  0
    3.8194    0.6390    0.0000 C   0  0  0  0  0  0  0  0  0
    4.5339    1.0515    0.0000 C   0  0  0  0  0  0  0  0  0
    5.2483    0.6390    0.0000 C   0  0  0  0  0  0  0  0  0
    5.2483   -0.1860    0.0000 C   0  0  0  0  0  0  0  0  0
    2.3904   -1.8360    0.0000 C   0  0  0  0  0  0  0  0  0
    1.6760   -1.4235    0.0000 C   0  0  0  0  0  0  0  0  0
  1  2  1  0  0  0  0
  2  3  1  0  0  0  0
  2  4  1  0  0  0  0
  2  5  1  0  0  0  0
  5  6  4  0  0  0  0
  5 22  4  0  0  0  0
  6  7  4  0  0  0  0
  7  8  4  0  0  0  0
  8  9  1  0  0  0  0
  8 21  4  0  0  0  0
  9 10  1  0  0  0  0
 10 11  1  0  0  0  0
 10 15  1  0  0  0  0
 11 12  1  0  0  0  0
 12 13  1  0  0  0  0
 13 14  1  0  0  0  0
 15 16  4  0  0  0  0
 15 20  4  0  0  0  0
 16 17  4  0  0  0  0
 17 18  4  0  0  0  0
 18 19  4  0  0  0  0
 19 20  4  0  0  0  0
 21 22  4  0  0  0  0
M  END
>  <Name_Molregno>
FLUOXETINE

>  <5-HT1A>
5

>  <5-HT2A>
6.72

>  <5-HT2C>
6.67

>  <Alpha-2A>
8.2

>  <DOPAMINE D2>
5

>  <Dopamine transporter>
5.32

>  <HISTAMINE H1>
5.62

>  <HISTAMINE H3>
5.14

>  <Muscarinic acetylcholine receptor M1>
6.05

>  <Muscarinic acetylcholine receptor M2>
5.57

>  <Muscarinic acetylcholine receptor M3>
6

>  <Muscarinic acetylcholine receptor M4>
5.54

>  <Muscarinic acetylcholine receptor M5>
5.57

>  <Norepinephrine transporter>
6.05

>  <Serotonin transporter>
8.57

$$$$
FLUPERLAPINE
  Marvin  02231216192D 0   1.00000     0.00000     0

 23 26  0  0  0  0  0  0  0  0999 V2000
   -0.5622   -2.2603    0.0000 F   0  0  0  0  0  0  0  0  0
    0.2262   -2.5035    0.0000 C   0  0  0  0  0  0  0  0  0
    0.8309   -1.9424    0.0000 C   0  0  0  0  0  0  0  0  0
    1.6193   -2.1855    0.0000 C   0  0  0  0  0  0  0  0  0
    2.1337   -1.5405    0.0000 N   0  0  0  0  0  0  0  0  0
    2.9587   -1.5405    0.0000 C   0  0  0  0  0  0  0  0  0
    3.3166   -0.7972    0.0000 N   0  0  0  0  0  0  0  0  0
    2.8519   -0.1156    0.0000 C   0  0  0  0  0  0  0  0  0
    3.2098    0.6277    0.0000 C   0  0  0  0  0  0  0  0  0
    4.0325    0.6894    0.0000 N   0  0  0  0  0  0  0  0  0
    4.4973    0.0077    0.0000 C   0  0  0  0  0  0  0  0  0
    4.1393   -0.7356    0.0000 C   0  0  0  0  0  0  0  0  0
    4.3905    1.4327    0.0000 C   0  0  0  0  0  0  0  0  0
    3.4730   -2.1855    0.0000 C   0  0  0  0  0  0  0  0  0
    3.2895   -2.9898    0.0000 C   0  0  0  0  0  0  0  0  0
    2.5462   -3.3478    0.0000 C   0  0  0  0  0  0  0  0  0
    1.8029   -2.9898    0.0000 C   0  0  0  0  0  0  0  0  0
    1.1981   -3.5510    0.0000 C   0  0  0  0  0  0  0  0  0
    0.4098   -3.3078    0.0000 C   0  0  0  0  0  0  0  0  0
    3.8942   -3.5510    0.0000 C   0  0  0  0  0  0  0  0  0
    4.6826   -3.3078    0.0000 C   0  0  0  0  0  0  0  0  0
    4.8662   -2.5035    0.0000 C   0  0  0  0  0  0  0  0  0
    4.2614   -1.9424    0.0000 C   0  0  0  0  0  0  0  0  0
  1  2  1  0  0  0  0
  2  3  4  0  0  0  0
  2 19  4  0  0  0  0
  3  4  4  0  0  0  0
  4  5  1  0  0  0  0
  4 17  4  0  0  0  0
  5  6  2  0  0  0  0
  6  7  1  0  0  0  0
  6 14  1  0  0  0  0
  7  8  1  0  0  0  0
  7 12  1  0  0  0  0
  8  9  1  0  0  0  0
  9 10  1  0  0  0  0
 10 11  1  0  0  0  0
 10 13  1  0  0  0  0
 11 12  1  0  0  0  0
 14 15  4  0  0  0  0
 14 23  4  0  0  0  0
 15 16  1  0  0  0  0
 15 20  4  0  0  0  0
 16 17  1  0  0  0  0
 17 18  4  0  0  0  0
 18 19  4  0  0  0  0
 20 21  4  0  0  0  0
 21 22  4  0  0  0  0
 22 23  4  0  0  0  0
M  END
>  <Name_Molregno>
FLUPERLAPINE

>  <5-HT6>
7.54

>  <DOPAMINE D1>
7.12

>  <DOPAMINE D4>
7.68

>  <Muscarinic acetylcholine receptor M1>
8.06

>  <Muscarinic acetylcholine receptor M2>
7.15

>  <Muscarinic acetylcholine receptor M3>
7.39

>  <Muscarinic acetylcholine receptor M4>
7.85

>  <Muscarinic acetylcholine receptor M5>
7.77

$$$$
FLUPHENAZINE
  Marvin  02231216192D 0   1.00000     0.00000     0

 38 41  0  0  0  0  0  0  0  0999 V2000
   -7.1492   -1.5262    0.0000 S   0  0  0  0  0  0  0  0  0
   -7.1492   -2.3512    0.0000 C   0  0  0  0  0  0  0  0  0
   -6.4348   -2.7637    0.0000 C   0  0  0  0  0  0  0  0  0
   -5.7203   -2.3512    0.0000 N   0  0  0  0  0  0  0  0  0
   -5.7203   -1.5262    0.0000 C   0  0  0  0  0  0  0  0  0
   -6.4348   -1.1137    0.0000 C   0  0  0  0  0  0  0  0  0
   -6.4348   -0.2887    0.0000 C   0  0  0  0  0  0  0  0  0
   -5.7203    0.1238    0.0000 C   0  0  0  0  0  0  0  0  0
   -5.0058   -0.2887    0.0000 C   0  0  0  0  0  0  0  0  0
   -5.0058   -1.1137    0.0000 C   0  0  0  0  0  0  0  0  0
   -5.0058   -2.7637    0.0000 C   0  0  0  0  0  0  0  0  0
   -4.2914   -2.3512    0.0000 C   0  0  0  0  0  0  0  0  0
   -3.5769   -2.7637    0.0000 C   0  0  0  0  0  0  0  0  0
   -2.8624   -2.3512    0.0000 N   0  0  0  0  0  0  0  0  0
   -2.8624   -1.5262    0.0000 C   0  0  0  0  0  0  0  0  0
   -2.1479   -1.1137    0.0000 C   0  0  0  0  0  0  0  0  0
   -1.4335   -1.5262    0.0000 N   0  0  0  0  0  0  0  0  0
   -1.4335   -2.3512    0.0000 C   0  0  0  0  0  0  0  0  0
   -2.1479   -2.7637    0.0000 C   0  0  0  0  0  0  0  0  0
   -0.7190   -1.1137    0.0000 C   0  0  0  0  0  0  0  0  0
   -0.0045   -1.5262    0.0000 C   0  0  0  0  0  0  0  0  0
    0.7099   -1.1137    0.0000 O   0  0  0  0  0  0  0  0  0
    1.4244   -1.5262    0.0000 C   0  0  0  0  0  0  0  0  0
    1.4244   -2.3512    0.0000 O   0  0  0  0  0  0  0  0  0
    2.1389   -1.1137    0.0000 C   0  0  0  0  0  0  0  0  0
    2.8534   -1.5262    0.0000 C   0  0  0  0  0  0  0  0  0
    3.5678   -1.1137    0.0000 C   0  0  0  0  0  0  0  0  0
    4.2823   -1.5262    0.0000 C   0  0  0  0  0  0  0  0  0
    4.9968   -1.1137    0.0000 C   0  0  0  0  0  0  0  0  0
    5.7112   -1.5262    0.0000 C   0  0  0  0  0  0  0  0  0
   -6.4348   -3.5887    0.0000 C   0  0  0  0  0  0  0  0  0
   -7.1492   -4.0012    0.0000 C   0  0  0  0  0  0  0  0  0
   -7.8637   -3.5887    0.0000 C   0  0  0  0  0  0  0  0  0
   -7.8637   -2.7637    0.0000 C   0  0  0  0  0  0  0  0  0
   -7.1492   -4.8262    0.0000 C   0  0  0  0  0  0  0  0  0
   -7.1492   -5.6512    0.0000 F   0  0  0  0  0  0  0  0  0
   -7.9742   -4.8262    0.0000 F   0  0  0  0  0  0  0  0  0
   -6.3242   -4.8262    0.0000 F   0  0  0  0  0  0  0  0  0
  1  2  1  0  0  0  0
  1  6  1  0  0  0  0
  2  3  4  0  0  0  0
  2 34  4  0  0  0  0
  3  4  1  0  0  0  0
  3 31  4  0  0  0  0
  4  5  1  0  0  0  0
  4 11  1  0  0  0  0
  5  6  4  0  0  0  0
  5 10  4  0  0  0  0
  6  7  4  0  0  0  0
  7  8  4  0  0  0  0
  8  9  4  0  0  0  0
  9 10  4  0  0  0  0
 11 12  1  0  0  0  0
 12 13  1  0  0  0  0
 13 14  1  0  0  0  0
 14 15  1  0  0  0  0
 14 19  1  0  0  0  0
 15 16  1  0  0  0  0
 16 17  1  0  0  0  0
 17 18  1  0  0  0  0
 17 20  1  0  0  0  0
 18 19  1  0  0  0  0
 20 21  1  0  0  0  0
 21 22  1  0  0  0  0
 22 23  1  0  0  0  0
 23 24  2  0  0  0  0
 23 25  1  0  0  0  0
 25 26  1  0  0  0  0
 26 27  1  0  0  0  0
 27 28  1  0  0  0  0
 28 29  1  0  0  0  0
 29 30  1  0  0  0  0
 31 32  4  0  0  0  0
 32 33  4  0  0  0  0
 32 35  1  0  0  0  0
 33 34  4  0  0  0  0
 35 36  1  0  0  0  0
 35 37  1  0  0  0  0
 35 38  1  0  0  0  0
M  END
>  <Name_Molregno>
FLUPHENAZINE

>  <5-HT1A>
6.41

>  <5-HT1B>
6.48

>  <5-HT1D>
6.48

>  <5-HT1E>
6.27

>  <5-HT2A>
7.87

>  <5-HT2C>
6.05

>  <5-HT3>
5

>  <5-HT5>
6.84

>  <5-HT6>
7.46

>  <5-HT7>
8.1

>  <Alpha-1A>
8.19

>  <Alpha-1B>
7.89

>  <Alpha-2A>
6.5

>  <Alpha-2B>
7.09

>  <Alpha-2C>
7.54

>  <Beta-1>
5

>  <Beta-2>
5

>  <DOPAMINE D1>
7.55

>  <DOPAMINE D2>
9.22

>  <DOPAMINE D3>
9.33

>  <DOPAMINE D4>
7.52

>  <DOPAMINE D5>
7.82

>  <Dopamine transporter>
5

>  <HISTAMINE H1>
7.72

>  <HISTAMINE H2>
6.25

>  <HISTAMINE H3>
6

>  <HISTAMINE H4>
5

>  <Muscarinic acetylcholine receptor M1>
5.96

>  <Muscarinic acetylcholine receptor M2>
5.14

>  <Muscarinic acetylcholine receptor M3>
5.84

>  <Muscarinic acetylcholine receptor M4>
5.27

>  <Muscarinic acetylcholine receptor M5>
6.45

>  <Norepinephrine transporter>
5.51

>  <Serotonin transporter>
5.23

$$$$
HALOPERIDOL
  Marvin  02231216192D 0   1.00000     0.00000     0

 26 28  0  0  0  0  0  0  0  0999 V2000
    1.7138    2.6466    0.0000 Cl  0  0  0  0  0  0  0  0  0
    1.9960    1.8714    0.0000 C   0  0  0  0  0  0  0  0  0
    2.8084    1.7281    0.0000 C   0  0  0  0  0  0  0  0  0
    3.0906    0.9529    0.0000 C   0  0  0  0  0  0  0  0  0
    2.5603    0.3209    0.0000 C   0  0  0  0  0  0  0  0  0
    1.7478    0.4642    0.0000 C   0  0  0  0  0  0  0  0  0
    1.4657    1.2394    0.0000 C   0  0  0  0  0  0  0  0  0
    2.8425   -0.4543    0.0000 C   0  0  0  0  0  0  0  0  0
    2.0300   -0.5976    0.0000 O   0  0  0  0  0  0  0  0  0
    3.5569   -0.0418    0.0000 C   0  0  0  0  0  0  0  0  0
    4.2714   -0.4543    0.0000 C   0  0  0  0  0  0  0  0  0
    4.2714   -1.2793    0.0000 N   0  0  0  0  0  0  0  0  0
    3.5569   -1.6918    0.0000 C   0  0  0  0  0  0  0  0  0
    2.8425   -1.2793    0.0000 C   0  0  0  0  0  0  0  0  0
    4.9859   -1.6918    0.0000 C   0  0  0  0  0  0  0  0  0
    5.7003   -1.2793    0.0000 C   0  0  0  0  0  0  0  0  0
    6.4148   -1.6918    0.0000 C   0  0  0  0  0  0  0  0  0
    7.1293   -1.2793    0.0000 C   0  0  0  0  0  0  0  0  0
    7.1293   -0.4543    0.0000 O   0  0  0  0  0  0  0  0  0
    7.8438   -1.6918    0.0000 C   0  0  0  0  0  0  0  0  0
    8.5582   -1.2793    0.0000 C   0  0  0  0  0  0  0  0  0
    9.2727   -1.6918    0.0000 C   0  0  0  0  0  0  0  0  0
    9.2727   -2.5168    0.0000 C   0  0  0  0  0  0  0  0  0
    9.9872   -2.9293    0.0000 F   0  0  0  0  0  0  0  0  0
    8.5582   -2.9293    0.0000 C   0  0  0  0  0  0  0  0  0
    7.8438   -2.5168    0.0000 C   0  0  0  0  0  0  0  0  0
  1  2  1  0  0  0  0
  2  3  4  0  0  0  0
  2  7  4  0  0  0  0
  3  4  4  0  0  0  0
  4  5  4  0  0  0  0
  5  6  4  0  0  0  0
  5  8  1  0  0  0  0
  6  7  4  0  0  0  0
  8  9  1  0  0  0  0
  8 10  1  0  0  0  0
  8 14  1  0  0  0  0
 10 11  1  0  0  0  0
 11 12  1  0  0  0  0
 12 13  1  0  0  0  0
 12 15  1  0  0  0  0
 13 14  1  0  0  0  0
 15 16  1  0  0  0  0
 16 17  1  0  0  0  0
 17 18  1  0  0  0  0
 18 19  2  0  0  0  0
 18 20  1  0  0  0  0
 20 21  4  0  0  0  0
 20 26  4  0  0  0  0
 21 22  4  0  0  0  0
 22 23  4  0  0  0  0
 23 24  1  0  0  0  0
 23 25  4  0  0  0  0
 25 26  4  0  0  0  0
M  END
>  <Name_Molregno>
HALOPERIDOL

>  <5-HT1A>
5.67

>  <5-HT1B>
6.63

>  <5-HT1D>
5.56

>  <5-HT1E>
5.15

>  <5-HT2A>
7.01

>  <5-HT2C>
5.24

>  <5-HT3>
5

>  <5-HT5>
5.65

>  <5-HT6>
5.28

>  <5-HT7>
6.32

>  <Alpha-1A>
7.92

>  <Alpha-1B>
8.1

>  <Alpha-2A>
6.04

>  <Alpha-2B>
6.32

>  <Alpha-2C>
6.34

>  <Beta-1>
5

>  <Beta-2>
5.15

>  <DOPAMINE D1>
7.22

>  <DOPAMINE D2>
8.75

>  <DOPAMINE D3>
8.33

>  <DOPAMINE D4>
8.29

>  <DOPAMINE D5>
7.03

>  <Dopamine transporter>
5

>  <HISTAMINE H1>
6.04

>  <HISTAMINE H2>
6

>  <HISTAMINE H4>
5

>  <Muscarinic acetylcholine receptor M1>
5.4

>  <Muscarinic acetylcholine receptor M2>
5

>  <Muscarinic acetylcholine receptor M3>
5

>  <Muscarinic acetylcholine receptor M4>
5

>  <Muscarinic acetylcholine receptor M5>
5.59

>  <Norepinephrine transporter>
5.68

>  <Serotonin transporter>
5.74

$$$$
Hyperforin
  Marvin  02231216192D 0   1.00000     0.00000     0

 39 40  0  0  1  0  0  0  0  0999 V2000
   -0.0475    3.0141    0.0000 O   0  0  0  0  0  0  0  0  0
    0.7326    2.5988    0.0000 C   0  0  0  0  0  0  0  0  0
    1.6516    2.5995    0.0000 C   0  0  0  0  0  0  0  0  0
    1.7130    1.6464    0.0000 C   0  0  0  0  0  0  0  0  0
    1.3009    1.0655    0.0000 C   0  0  0  0  0  0  0  0  0
    0.9271    0.2926    0.0000 C   0  0  0  0  0  0  0  0  0
    0.6406   -0.4973    0.0000 C   0  0  0  0  0  0  0  0  0
   -0.1718   -0.6414    0.0000 C   0  0  0  0  0  0  0  0  0
   -0.7027   -0.0100    0.0000 C   0  0  0  0  0  0  0  0  0
   -0.4531   -1.4170    0.0000 C   0  0  0  0  0  0  0  0  0
    2.1172    1.2450    0.0000 C   0  0  0  0  0  0  0  0  0
    2.4176    0.4250    0.0000 C   0  0  0  0  0  0  0  0  0
    3.1181   -0.0803    0.0000 C   0  0  0  0  0  0  0  0  0
    3.0346   -0.9010    0.0000 C   0  0  0  0  0  0  0  0  0
    2.2821   -1.2391    0.0000 C   0  0  0  0  0  0  0  0  0
    1.6130   -0.7565    0.0000 C   0  0  0  0  0  0  0  0  0
    2.1987   -2.0599    0.0000 C   0  0  0  0  0  0  0  0  0
    2.9989    1.2958    0.0000 C   0  0  0  0  0  0  0  0  0
    2.0702    2.2319    0.0000 C   0  0  0  0  0  0  0  0  0
    2.8036    2.7016    0.0000 C   0  0  0  0  0  0  0  0  0
    2.8813    3.6702    0.0000 O   0  0  0  0  0  0  0  0  0
    3.6516    2.8271    0.0000 C   0  0  0  0  0  0  0  0  0
    3.9551    3.5942    0.0000 C   0  0  0  0  0  0  0  0  0
    4.1642    2.1806    0.0000 C   0  0  0  0  0  0  0  0  0
    2.0364    2.8705    0.0000 C   0  0  0  0  0  0  0  0  0
    2.9600    3.1637    0.0000 O   0  0  0  0  0  0  0  0  0
    1.1102    2.2212    0.0000 C   0  0  0  0  0  0  0  0  0
    0.8447    3.1353    0.0000 O   0  0  0  0  0  0  0  0  0
    0.6057    1.7969    0.0000 C   0  0  0  0  0  0  0  0  0
   -0.1558    1.3974    0.0000 C   0  0  0  0  0  0  0  0  0
   -0.9549    1.0682    0.0000 C   0  0  0  0  0  0  0  0  0
   -1.6085    1.5717    0.0000 C   0  0  0  0  0  0  0  0  0
   -2.3713    1.2575    0.0000 C   0  0  0  0  0  0  0  0  0
   -1.4992    2.3895    0.0000 C   0  0  0  0  0  0  0  0  0
    1.5780    3.5970    0.0000 C   0  0  0  0  0  0  0  0  0
    1.5386    4.4833    0.0000 C   0  0  0  0  0  0  0  0  0
    0.8065    4.8636    0.0000 C   0  0  0  0  0  0  0  0  0
    0.7698    5.6878    0.0000 C   0  0  0  0  0  0  0  0  0
    0.1111    4.4198    0.0000 C   0  0  0  0  0  0  0  0  0
  1  2  1  0  0  0  0
  2  3  1  0  0  0  0
  2 29  2  0  0  0  0
  3  4  1  0  0  0  0
  3 25  1  0  0  0  0
  3 35  1  0  0  0  0
  4  5  1  0  0  0  0
  5  6  1  0  0  0  0
  5 11  1  0  0  0  0
  6  7  1  0  0  0  0
  7  8  2  0  0  0  0
  8  9  1  0  0  0  0
  8 10  1  0  0  0  0
 11 12  1  0  0  0  0
 11 18  1  0  0  0  0
 11 19  1  0  0  0  0
 12 13  1  0  0  0  0
 13 14  1  0  0  0  0
 14 15  2  0  0  0  0
 15 16  1  0  0  0  0
 15 17  1  0  0  0  0
 19 20  1  0  0  0  0
 19 25  1  0  0  0  0
 19 27  1  0  0  0  0
 20 21  2  0  0  0  0
 20 22  1  0  0  0  0
 22 23  1  0  0  0  0
 22 24  1  0  0  0  0
 25 26  2  0  0  0  0
 27 28  2  0  0  0  0
 27 29  1  0  0  0  0
 29 30  1  0  0  0  0
 30 31  1  0  0  0  0
 31 32  2  0  0  0  0
 32 33  1  0  0  0  0
 32 34  1  0  0  0  0
 35 36  1  0  0  0  0
 36 37  2  0  0  0  0
 37 38  1  0  0  0  0
 37 39  1  0  0  0  0
M  END
>  <Name_Molregno>
Hyperforin

>  <5-HT1A>
5

>  <5-HT1D>
5

>  <5-HT3>
5

>  <5-HT5>
5

>  <5-HT6>
5

>  <5-HT7>
5

>  <Alpha-1A>
5

>  <Alpha-1B>
5

>  <Alpha-2A>
5

>  <Alpha-2B>
5

>  <Alpha-2C>
5

>  <DOPAMINE D1>
6.22

>  <DOPAMINE D5>
5

>  <Muscarinic acetylcholine receptor M1>
5

>  <Muscarinic acetylcholine receptor M2>
5

>  <Muscarinic acetylcholine receptor M3>
5

>  <Muscarinic acetylcholine receptor M4>
5

>  <Muscarinic acetylcholine receptor M5>
5

>  <Norepinephrine transporter>
5

>  <Serotonin transporter>
5

$$$$
Hypericin
  Marvin  02231216192D 0   1.00000     0.00000     0

 39 46  0  0  0  0  0  0  0  0999 V2000
   -0.3746   -3.0738    0.0000 O   0  0  0  0  0  0  0  0  0
    0.1655   -2.4502    0.0000 C   0  0  0  0  0  0  0  0  0
    0.9756   -2.6061    0.0000 C   0  0  0  0  0  0  0  0  0
    1.5157   -1.9824    0.0000 C   0  0  0  0  0  0  0  0  0
    1.2457   -1.2029    0.0000 C   0  0  0  0  0  0  0  0  0
    1.7858   -0.5792    0.0000 C   0  0  0  0  0  0  0  0  0
    2.5959   -0.7352    0.0000 C   0  0  0  0  0  0  0  0  0
    3.1360   -0.1115    0.0000 C   0  0  0  0  0  0  0  0  0
    3.9461   -0.2674    0.0000 C   0  0  0  0  0  0  0  0  0
    4.4862    0.3562    0.0000 O   0  0  0  0  0  0  0  0  0
    4.2162   -1.0470    0.0000 C   0  0  0  0  0  0  0  0  0
    3.6761   -1.6706    0.0000 C   0  0  0  0  0  0  0  0  0
    3.9461   -2.4502    0.0000 C   0  0  0  0  0  0  0  0  0
    3.4060   -3.0738    0.0000 C   0  0  0  0  0  0  0  0  0
    2.5959   -2.9179    0.0000 C   0  0  0  0  0  0  0  0  0
    2.0558   -3.5415    0.0000 C   0  0  0  0  0  0  0  0  0
    1.2457   -3.3856    0.0000 C   0  0  0  0  0  0  0  0  0
    0.7056   -4.0093    0.0000 O   0  0  0  0  0  0  0  0  0
    2.3258   -4.3211    0.0000 C   0  0  0  0  0  0  0  0  0
    1.7858   -4.9447    0.0000 O   0  0  0  0  0  0  0  0  0
    3.1360   -4.4770    0.0000 C   0  0  0  0  0  0  0  0  0
    3.6761   -3.8534    0.0000 C   0  0  0  0  0  0  0  0  0
    4.4862   -4.0093    0.0000 O   0  0  0  0  0  0  0  0  0
    2.3258   -2.1384    0.0000 C   0  0  0  0  0  0  0  0  0
    2.8659   -1.5147    0.0000 C   0  0  0  0  0  0  0  0  0
    4.7562   -2.6061    0.0000 C   0  0  0  0  0  0  0  0  0
    5.0263   -3.3856    0.0000 O   0  0  0  0  0  0  0  0  0
    5.2963   -1.9824    0.0000 C   0  0  0  0  0  0  0  0  0
    5.0263   -1.2029    0.0000 C   0  0  0  0  0  0  0  0  0
    5.5664   -0.5792    0.0000 O   0  0  0  0  0  0  0  0  0
    2.8659    0.6680    0.0000 C   0  0  0  0  0  0  0  0  0
    3.4060    1.2917    0.0000 O   0  0  0  0  0  0  0  0  0
    2.0558    0.8239    0.0000 C   0  0  0  0  0  0  0  0  0
    1.5157    0.2003    0.0000 C   0  0  0  0  0  0  0  0  0
    0.7056    0.3562    0.0000 C   0  0  0  0  0  0  0  0  0
    0.4355   -1.0470    0.0000 C   0  0  0  0  0  0  0  0  0
   -0.1046   -1.6706    0.0000 C   0  0  0  0  0  0  0  0  0
    0.1655   -0.2674    0.0000 C   0  0  0  0  0  0  0  0  0
   -0.6446   -0.1115    0.0000 O   0  0  0  0  0  0  0  0  0
  1  2  1  0  0  0  0
  2  3  4  0  0  0  0
  2 37  4  0  0  0  0
  3  4  4  0  0  0  0
  3 17  1  0  0  0  0
  4  5  4  0  0  0  0
  4 24  4  0  0  0  0
  5  6  4  0  0  0  0
  5 36  4  0  0  0  0
  6  7  4  0  0  0  0
  6 34  4  0  0  0  0
  7  8  4  0  0  0  0
  7 25  4  0  0  0  0
  8  9  1  0  0  0  0
  8 31  4  0  0  0  0
  9 10  2  0  0  0  0
  9 11  1  0  0  0  0
 11 12  4  0  0  0  0
 11 29  4  0  0  0  0
 12 13  4  0  0  0  0
 12 25  4  0  0  0  0
 13 14  4  0  0  0  0
 13 26  4  0  0  0  0
 14 15  4  0  0  0  0
 14 22  4  0  0  0  0
 15 16  4  0  0  0  0
 15 24  4  0  0  0  0
 16 17  1  0  0  0  0
 16 19  4  0  0  0  0
 17 18  2  0  0  0  0
 19 20  1  0  0  0  0
 19 21  4  0  0  0  0
 21 22  4  0  0  0  0
 22 23  1  0  0  0  0
 24 25  4  0  0  0  0
 26 27  1  0  0  0  0
 26 28  4  0  0  0  0
 28 29  4  0  0  0  0
 29 30  1  0  0  0  0
 31 32  1  0  0  0  0
 31 33  4  0  0  0  0
 33 34  4  0  0  0  0
 34 35  1  0  0  0  0
 36 37  4  0  0  0  0
 36 38  1  0  0  0  0
 38 39  1  0  0  0  0
M  END
>  <Name_Molregno>
Hypericin

>  <5-HT1A>
5

>  <5-HT1D>
5

>  <5-HT3>
5

>  <5-HT5>
5

>  <5-HT6>
5

>  <5-HT7>
5

>  <Alpha-1A>
5

>  <Alpha-1B>
5

>  <Alpha-2A>
5

>  <Alpha-2B>
5

>  <Alpha-2C>
5

>  <DOPAMINE D1>
5

>  <DOPAMINE D5>
5

>  <Muscarinic acetylcholine receptor M1>
5

>  <Muscarinic acetylcholine receptor M2>
5

>  <Muscarinic acetylcholine receptor M3>
5

>  <Muscarinic acetylcholine receptor M4>
5

>  <Muscarinic acetylcholine receptor M5>
5

>  <Norepinephrine transporter>
5

>  <Serotonin transporter>
5

$$$$
Hyperoside
  Marvin  02231216192D 0   1.00000     0.00000     0

 33 36  0  0  1  0  0  0  0  0999 V2000
    1.3731    1.4076    0.0000 O   0  0  0  0  0  0  0  0  0
    1.3731    2.2326    0.0000 C   0  0  0  0  0  0  0  0  0
    2.0876    2.6451    0.0000 C   0  0  0  0  0  0  0  0  0
    2.0876    3.4701    0.0000 O   0  0  0  0  0  0  0  0  0
    0.6587    2.6451    0.0000 C   0  0  0  0  0  0  0  0  0
    0.6587    3.4701    0.0000 O   0  0  0  0  0  0  0  0  0
   -0.0558    2.2326    0.0000 C   0  0  0  0  0  0  0  0  0
   -0.7703    2.6451    0.0000 O   0  0  0  0  0  0  0  0  0
   -0.0558    1.4076    0.0000 C   0  0  0  0  0  0  0  0  0
   -0.7703    0.9951    0.0000 O   0  0  0  0  0  0  0  0  0
    0.6587    0.9951    0.0000 C   0  0  0  0  0  0  0  0  0
    0.6587    0.1701    0.0000 O   0  0  0  0  0  0  0  0  0
    1.3731   -0.2424    0.0000 C   0  0  0  0  0  0  0  0  0
    1.3731   -1.0674    0.0000 C   0  0  0  0  0  0  0  0  0
    2.0876   -1.4799    0.0000 O   0  0  0  0  0  0  0  0  0
    2.8021   -1.0674    0.0000 C   0  0  0  0  0  0  0  0  0
    2.8021   -0.2424    0.0000 C   0  0  0  0  0  0  0  0  0
    2.0876    0.1701    0.0000 C   0  0  0  0  0  0  0  0  0
    2.0876    0.9951    0.0000 O   0  0  0  0  0  0  0  0  0
    3.5166    0.1701    0.0000 C   0  0  0  0  0  0  0  0  0
    3.5166    0.9951    0.0000 O   0  0  0  0  0  0  0  0  0
    4.2310   -0.2424    0.0000 C   0  0  0  0  0  0  0  0  0
    4.2310   -1.0674    0.0000 C   0  0  0  0  0  0  0  0  0
    4.9455   -1.4799    0.0000 O   0  0  0  0  0  0  0  0  0
    3.5166   -1.4799    0.0000 C   0  0  0  0  0  0  0  0  0
    0.6587   -1.4799    0.0000 C   0  0  0  0  0  0  0  0  0
    0.6587   -2.3049    0.0000 C   0  0  0  0  0  0  0  0  0
   -0.0558   -2.7174    0.0000 C   0  0  0  0  0  0  0  0  0
   -0.0558   -3.5424    0.0000 O   0  0  0  0  0  0  0  0  0
   -0.7703   -2.3049    0.0000 C   0  0  0  0  0  0  0  0  0
   -1.4847   -2.7174    0.0000 O   0  0  0  0  0  0  0  0  0
   -0.7703   -1.4799    0.0000 C   0  0  0  0  0  0  0  0  0
   -0.0558   -1.0674    0.0000 C   0  0  0  0  0  0  0  0  0
  1  2  1  0  0  0  0
  1 11  1  0  0  0  0
  2  3  1  0  0  0  0
  2  5  1  0  0  0  0
  3  4  1  0  0  0  0
  5  6  1  0  0  0  0
  5  7  1  0  0  0  0
  7  8  1  0  0  0  0
  7  9  1  0  0  0  0
  9 10  1  0  0  0  0
  9 11  1  0  0  0  0
 11 12  1  0  0  0  0
 12 13  1  0  0  0  0
 13 14  2  0  0  0  0
 13 18  1  0  0  0  0
 14 15  1  0  0  0  0
 14 26  1  0  0  0  0
 15 16  1  0  0  0  0
 16 17  1  0  0  0  0
 16 25  2  0  0  0  0
 17 18  2  0  0  0  0
 17 20  1  0  0  0  0
 18 19  1  0  0  0  0
 20 21  1  0  0  0  0
 20 22  2  0  0  0  0
 22 23  1  0  0  0  0
 23 24  2  0  0  0  0
 23 25  1  0  0  0  0
 26 27  4  0  0  0  0
 26 33  4  0  0  0  0
 27 28  4  0  0  0  0
 28 29  1  0  0  0  0
 28 30  4  0  0  0  0
 30 31  1  0  0  0  0
 30 32  4  0  0  0  0
 32 33  4  0  0  0  0
M  END
>  <Name_Molregno>
Hyperoside

>  <5-HT1A>
5

>  <5-HT1D>
5

>  <5-HT3>
5

>  <5-HT5>
5

>  <5-HT6>
5

>  <5-HT7>
5

>  <Alpha-1A>
5

>  <Alpha-1B>
5

>  <Alpha-2A>
5.38

>  <Alpha-2B>
5

>  <Alpha-2C>
5.13

>  <DOPAMINE D1>
5

>  <DOPAMINE D5>
5

>  <Muscarinic acetylcholine receptor M1>
5

>  <Muscarinic acetylcholine receptor M2>
5

>  <Muscarinic acetylcholine receptor M3>
5

>  <Muscarinic acetylcholine receptor M4>
5

>  <Muscarinic acetylcholine receptor M5>
5

>  <Norepinephrine transporter>
5

>  <Serotonin transporter>
5

$$$$
ILOPERIDONE
  Marvin  02231216192D 0   1.00000     0.00000     0

 31 34  0  0  0  0  0  0  0  0999 V2000
    9.8408   -5.0338    0.0000 F   0  0  0  0  0  0  0  0  0
    9.1263   -4.6213    0.0000 C   0  0  0  0  0  0  0  0  0
    8.4119   -5.0338    0.0000 C   0  0  0  0  0  0  0  0  0
    7.6974   -4.6213    0.0000 C   0  0  0  0  0  0  0  0  0
    6.9128   -4.8762    0.0000 O   0  0  0  0  0  0  0  0  0
    6.4279   -4.2088    0.0000 N   0  0  0  0  0  0  0  0  0
    6.9128   -3.5413    0.0000 C   0  0  0  0  0  0  0  0  0
    7.6974   -3.7963    0.0000 C   0  0  0  0  0  0  0  0  0
    8.4119   -3.3838    0.0000 C   0  0  0  0  0  0  0  0  0
    9.1263   -3.7963    0.0000 C   0  0  0  0  0  0  0  0  0
    6.6578   -2.7567    0.0000 C   0  0  0  0  0  0  0  0  0
    5.8509   -2.5852    0.0000 C   0  0  0  0  0  0  0  0  0
    5.5959   -1.8006    0.0000 C   0  0  0  0  0  0  0  0  0
    6.1480   -1.1875    0.0000 N   0  0  0  0  0  0  0  0  0
    6.9549   -1.3590    0.0000 C   0  0  0  0  0  0  0  0  0
    7.2099   -2.1436    0.0000 C   0  0  0  0  0  0  0  0  0
    5.8930   -0.4028    0.0000 C   0  0  0  0  0  0  0  0  0
    5.0861   -0.2313    0.0000 C   0  0  0  0  0  0  0  0  0
    4.8311    0.5533    0.0000 C   0  0  0  0  0  0  0  0  0
    4.0241    0.7248    0.0000 O   0  0  0  0  0  0  0  0  0
    3.7692    1.5095    0.0000 C   0  0  0  0  0  0  0  0  0
    2.9622    1.6810    0.0000 C   0  0  0  0  0  0  0  0  0
    2.7073    2.4656    0.0000 C   0  0  0  0  0  0  0  0  0
    3.2593    3.0787    0.0000 C   0  0  0  0  0  0  0  0  0
    4.0663    2.9072    0.0000 C   0  0  0  0  0  0  0  0  0
    4.3212    2.1225    0.0000 C   0  0  0  0  0  0  0  0  0
    5.1282    1.9510    0.0000 O   0  0  0  0  0  0  0  0  0
    5.6802    2.5641    0.0000 C   0  0  0  0  0  0  0  0  0
    3.0044    3.8633    0.0000 C   0  0  0  0  0  0  0  0  0
    2.1974    4.0348    0.0000 O   0  0  0  0  0  0  0  0  0
    3.5564    4.4764    0.0000 C   0  0  0  0  0  0  0  0  0
  1  2  1  0  0  0  0
  2  3  4  0  0  0  0
  2 10  4  0  0  0  0
  3  4  4  0  0  0  0
  4  5  4  0  0  0  0
  4  8  4  0  0  0  0
  5  6  4  0  0  0  0
  6  7  4  0  0  0  0
  7  8  4  0  0  0  0
  7 11  1  0  0  0  0
  8  9  4  0  0  0  0
  9 10  4  0  0  0  0
 11 12  1  0  0  0  0
 11 16  1  0  0  0  0
 12 13  1  0  0  0  0
 13 14  1  0  0  0  0
 14 15  1  0  0  0  0
 14 17  1  0  0  0  0
 15 16  1  0  0  0  0
 17 18  1  0  0  0  0
 18 19  1  0  0  0  0
 19 20  1  0  0  0  0
 20 21  1  0  0  0  0
 21 22  4  0  0  0  0
 21 26  4  0  0  0  0
 22 23  4  0  0  0  0
 23 24  4  0  0  0  0
 24 25  4  0  0  0  0
 24 29  1  0  0  0  0
 25 26  4  0  0  0  0
 26 27  1  0  0  0  0
 27 28  1  0  0  0  0
 29 30  2  0  0  0  0
 29 31  1  0  0  0  0
M  END
>  <Name_Molregno>
ILOPERIDONE

>  <5-HT1A>
7.18

>  <5-HT1B>
7.05

>  <5-HT1D>
7.82

>  <5-HT2A>
9.46

>  <5-HT2C>
7.27

>  <5-HT3>
5

>  <5-HT6>
7.2

>  <5-HT7>
6.95

>  <Alpha-2A>
6.79

>  <Alpha-2B>
6.79

>  <Alpha-2C>
7.79

>  <Beta-1>
5

>  <Beta-2>
5

>  <DOPAMINE D1>
7.02

>  <DOPAMINE D2>
8.23

>  <DOPAMINE D3>
8

>  <DOPAMINE D4>
7.96

>  <DOPAMINE D5>
6.5

>  <Dopamine transporter>
5.53

>  <HISTAMINE H1>
7.91

>  <Muscarinic acetylcholine receptor M1>
5.31

>  <Muscarinic acetylcholine receptor M2>
5.48

>  <Muscarinic acetylcholine receptor M3>
5

>  <Muscarinic acetylcholine receptor M4>
5.08

>  <Muscarinic acetylcholine receptor M5>
5

>  <Norepinephrine transporter>
5.83

$$$$
IMIPRAMINE
  Marvin  02231216192D 0   1.00000     0.00000     0

 21 23  0  0  0  0  0  0  0  0999 V2000
   -0.5243    1.2470    0.0000 N   0  0  0  0  0  0  0  0  0
    0.1902    0.8345    0.0000 C   0  0  0  0  0  0  0  0  0
    0.9046    1.2470    0.0000 C   0  0  0  0  0  0  0  0  0
    1.6191    0.8345    0.0000 C   0  0  0  0  0  0  0  0  0
    2.3336    1.2470    0.0000 N   0  0  0  0  0  0  0  0  0
    2.2719    2.0697    0.0000 C   0  0  0  0  0  0  0  0  0
    2.8767    2.6309    0.0000 C   0  0  0  0  0  0  0  0  0
    3.6925    2.5079    0.0000 C   0  0  0  0  0  0  0  0  0
    4.1050    1.7934    0.0000 C   0  0  0  0  0  0  0  0  0
    3.8036    1.0255    0.0000 C   0  0  0  0  0  0  0  0  0
    3.0152    0.7823    0.0000 C   0  0  0  0  0  0  0  0  0
    2.8316   -0.0220    0.0000 C   0  0  0  0  0  0  0  0  0
    3.4364   -0.5832    0.0000 C   0  0  0  0  0  0  0  0  0
    4.2248   -0.3400    0.0000 C   0  0  0  0  0  0  0  0  0
    4.4083    0.4643    0.0000 C   0  0  0  0  0  0  0  0  0
    2.6931    3.4352    0.0000 C   0  0  0  0  0  0  0  0  0
    1.9048    3.6784    0.0000 C   0  0  0  0  0  0  0  0  0
    1.3000    3.1172    0.0000 C   0  0  0  0  0  0  0  0  0
    1.4836    2.3129    0.0000 C   0  0  0  0  0  0  0  0  0
   -1.2388    0.8345    0.0000 C   0  0  0  0  0  0  0  0  0
   -0.5243    2.0720    0.0000 C   0  0  0  0  0  0  0  0  0
  1  2  1  0  0  0  0
  1 20  1  0  0  0  0
  1 21  1  0  0  0  0
  2  3  1  0  0  0  0
  3  4  1  0  0  0  0
  4  5  1  0  0  0  0
  5  6  1  0  0  0  0
  5 11  1  0  0  0  0
  6  7  4  0  0  0  0
  6 19  4  0  0  0  0
  7  8  1  0  0  0  0
  7 16  4  0  0  0  0
  8  9  1  0  0  0  0
  9 10  1  0  0  0  0
 10 11  4  0  0  0  0
 10 15  4  0  0  0  0
 11 12  4  0  0  0  0
 12 13  4  0  0  0  0
 13 14  4  0  0  0  0
 14 15  4  0  0  0  0
 16 17  4  0  0  0  0
 17 18  4  0  0  0  0
 18 19  4  0  0  0  0
M  END
>  <Name_Molregno>
IMIPRAMINE

>  <5-HT1A>
5.12

>  <DOPAMINE D1>
5

>  <DOPAMINE D2>
6.17

>  <DOPAMINE D3>
6.41

>  <Dopamine transporter>
5.04

>  <HISTAMINE H1>
7.62

>  <Muscarinic acetylcholine receptor M1>
7.38

>  <Muscarinic acetylcholine receptor M2>
8.48

>  <Muscarinic acetylcholine receptor M3>
7.22

>  <Muscarinic acetylcholine receptor M4>
6.95

>  <Muscarinic acetylcholine receptor M5>
7.08

>  <Norepinephrine transporter>
7.18

>  <Serotonin transporter>
8.6

$$$$
L-cysteic-acid
  Marvin  02231216192D 0   1.00000     0.00000     0

 10  9  0  0  1  0  0  0  0  0999 V2000
   -1.9749    0.1579    0.0000 S   0  0  0  0  0  0  0  0  0
   -2.6894    0.5704    0.0000 O   0  0  0  0  0  0  0  0  0
   -2.3874   -0.5565    0.0000 O   0  0  0  0  0  0  0  0  0
   -1.5624    0.8724    0.0000 O   0  0  0  0  0  0  0  0  0
   -1.2605   -0.2546    0.0000 C   0  0  0  0  0  0  0  0  0
   -0.5460    0.1579    0.0000 C   0  0  0  0  0  0  0  0  0
   -0.5460    0.9829    0.0000 N   0  0  0  0  0  0  0  0  0
    0.1685   -0.2546    0.0000 C   0  0  0  0  0  0  0  0  0
    0.8829    0.1579    0.0000 O   0  0  0  0  0  0  0  0  0
    0.1685   -1.0796    0.0000 O   0  0  0  0  0  0  0  0  0
  1  2  2  0  0  0  0
  1  3  2  0  0  0  0
  1  4  1  0  0  0  0
  1  5  1  0  0  0  0
  5  6  1  0  0  0  0
  6  7  1  0  0  0  0
  6  8  1  0  0  0  0
  8  9  1  0  0  0  0
  8 10  2  0  0  0  0
M  END
>  <Name_Molregno>
L-cysteic-acid

>  <5-HT1A>
5

>  <5-HT1B>
5

>  <5-HT1D>
5

>  <5-HT3>
5

>  <5-HT5>
5

>  <5-HT6>
5

>  <5-HT7>
5

>  <Alpha-1A>
5

>  <Alpha-1B>
5

>  <Alpha-2A>
5

>  <Alpha-2C>
5

>  <DOPAMINE D1>
5

>  <DOPAMINE D2>
5

>  <DOPAMINE D3>
5

>  <DOPAMINE D5>
5

>  <Dopamine transporter>
5

>  <HISTAMINE H1>
5

>  <HISTAMINE H2>
5

>  <HISTAMINE H4>
5

>  <Muscarinic acetylcholine receptor M1>
5

>  <Muscarinic acetylcholine receptor M2>
5

>  <Muscarinic acetylcholine receptor M3>
5

>  <Muscarinic acetylcholine receptor M4>
5

>  <Muscarinic acetylcholine receptor M5>
5

>  <Norepinephrine transporter>
5

>  <Serotonin transporter>
5

$$$$
L-cysteine
  Marvin  02231216192D 0   1.00000     0.00000     0

  7  6  0  0  1  0  0  0  0  0999 V2000
    1.5580    2.1190    0.0000 S   0  0  0  0  0  0  0  0  0
    1.1455    1.4045    0.0000 C   0  0  0  0  0  0  0  0  0
    1.5580    0.6901    0.0000 C   0  0  0  0  0  0  0  0  0
    2.3830    0.6901    0.0000 N   0  0  0  0  0  0  0  0  0
    1.1455   -0.0244    0.0000 C   0  0  0  0  0  0  0  0  0
    1.5580   -0.7389    0.0000 O   0  0  0  0  0  0  0  0  0
    0.3205   -0.0244    0.0000 O   0  0  0  0  0  0  0  0  0
  1  2  1  0  0  0  0
  2  3  1  0  0  0  0
  3  4  1  0  0  0  0
  3  5  1  0  0  0  0
  5  6  1  0  0  0  0
  5  7  2  0  0  0  0
M  END
>  <Name_Molregno>
L-cysteine

>  <5-HT1A>
5

>  <5-HT1B>
5

>  <5-HT1D>
5

>  <5-HT3>
5

>  <5-HT5>
5

>  <5-HT6>
5

>  <5-HT7>
5

>  <Alpha-1A>
5

>  <Alpha-1B>
5

>  <Alpha-2A>
5

>  <Alpha-2B>
5

>  <Alpha-2C>
5

>  <DOPAMINE D1>
5

>  <DOPAMINE D2>
5

>  <DOPAMINE D3>
5

>  <DOPAMINE D5>
5

>  <Dopamine transporter>
5

>  <HISTAMINE H1>
5

>  <HISTAMINE H2>
5

>  <HISTAMINE H4>
5

>  <Muscarinic acetylcholine receptor M1>
5

>  <Muscarinic acetylcholine receptor M2>
5

>  <Muscarinic acetylcholine receptor M3>
5

>  <Muscarinic acetylcholine receptor M4>
5

>  <Muscarinic acetylcholine receptor M5>
5

>  <Norepinephrine transporter>
5

>  <Serotonin transporter>
5

$$$$
L-cysteine-sulfinic-acid
  Marvin  02231216192D 0   1.00000     0.00000     0

  9  8  0  0  1  0  0  0  0  0999 V2000
   -2.0945    0.5537    0.0000 S   0  0  0  0  0  0  0  0  0
   -2.8090    0.1412    0.0000 O   0  0  0  0  0  0  0  0  0
   -2.0945    1.3787    0.0000 O   0  0  0  0  0  0  0  0  0
   -1.3800    0.1412    0.0000 C   0  0  0  0  0  0  0  0  0
   -0.6656    0.5537    0.0000 C   0  0  0  0  0  0  0  0  0
   -0.6656    1.3787    0.0000 N   0  0  0  0  0  0  0  0  0
    0.0489    0.1412    0.0000 C   0  0  0  0  0  0  0  0  0
    0.7634    0.5537    0.0000 O   0  0  0  0  0  0  0  0  0
    0.0489   -0.6838    0.0000 O   0  0  0  0  0  0  0  0  0
  1  2  2  0  0  0  0
  1  3  1  0  0  0  0
  1  4  1  0  0  0  0
  4  5  1  0  0  0  0
  5  6  1  0  0  0  0
  5  7  1  0  0  0  0
  7  8  1  0  0  0  0
  7  9  2  0  0  0  0
M  END
>  <Name_Molregno>
L-cysteine-sulfinic-acid

>  <5-HT1A>
5

>  <5-HT1B>
5

>  <5-HT1D>
5

>  <5-HT3>
5

>  <5-HT5>
5

>  <5-HT6>
5

>  <5-HT7>
5

>  <Alpha-1A>
5

>  <Alpha-1B>
5

>  <Alpha-2A>
5

>  <Alpha-2B>
5

>  <Alpha-2C>
5

>  <DOPAMINE D1>
5

>  <DOPAMINE D2>
5

>  <DOPAMINE D3>
5

>  <DOPAMINE D5>
5

>  <Dopamine transporter>
5

>  <HISTAMINE H1>
5

>  <HISTAMINE H2>
5

>  <HISTAMINE H4>
5

>  <Muscarinic acetylcholine receptor M1>
5

>  <Muscarinic acetylcholine receptor M2>
5

>  <Muscarinic acetylcholine receptor M3>
5

>  <Muscarinic acetylcholine receptor M4>
5

>  <Muscarinic acetylcholine receptor M5>
5

>  <Norepinephrine transporter>
5

>  <Serotonin transporter>
5

$$$$
L-homocysteine-thiolactone
  Marvin  02231216192D 0   1.00000     0.00000     0

  7  7  0  0  1  0  0  0  0  0999 V2000
    1.4299   -0.7189    0.0000 S   0  0  0  0  0  0  0  0  0
    1.1749   -1.5035    0.0000 C   0  0  0  0  0  0  0  0  0
    0.3499   -1.5035    0.0000 C   0  0  0  0  0  0  0  0  0
    0.0950   -0.7189    0.0000 C   0  0  0  0  0  0  0  0  0
   -0.6896   -0.4639    0.0000 N   0  0  0  0  0  0  0  0  0
    0.7624   -0.2339    0.0000 C   0  0  0  0  0  0  0  0  0
    0.7624    0.5911    0.0000 O   0  0  0  0  0  0  0  0  0
  1  2  1  0  0  0  0
  1  6  1  0  0  0  0
  2  3  1  0  0  0  0
  3  4  1  0  0  0  0
  4  5  1  0  0  0  0
  4  6  1  0  0  0  0
  6  7  2  0  0  0  0
M  END
>  <Name_Molregno>
L-homocysteine-thiolactone

>  <5-HT1A>
5

>  <5-HT3>
5

>  <5-HT5>
5

>  <5-HT6>
5

>  <5-HT7>
5

>  <Alpha-1A>
5

>  <Alpha-1B>
5

>  <Alpha-2A>
5

>  <Alpha-2B>
5

>  <Alpha-2C>
5

>  <DOPAMINE D1>
5

>  <DOPAMINE D2>
5

>  <DOPAMINE D5>
5

>  <Dopamine transporter>
5

>  <HISTAMINE H1>
5

>  <HISTAMINE H2>
5

>  <HISTAMINE H4>
5

>  <Muscarinic acetylcholine receptor M1>
5

>  <Muscarinic acetylcholine receptor M2>
5

>  <Muscarinic acetylcholine receptor M3>
5

>  <Muscarinic acetylcholine receptor M4>
5

>  <Muscarinic acetylcholine receptor M5>
5

>  <Norepinephrine transporter>
5

>  <Serotonin transporter>
5

$$$$
Lithocholylglycine
  Marvin  02231216192D 0   1.00000     0.00000     0

 31 34  0  0  1  0  0  0  0  0999 V2000
   -0.0515   -1.0899    0.0000 O   0  0  0  0  0  0  0  0  0
    0.7555   -0.9184    0.0000 C   0  0  0  0  0  0  0  0  0
    1.0104   -0.1338    0.0000 C   0  0  0  0  0  0  0  0  0
    1.8174    0.0378    0.0000 C   0  0  0  0  0  0  0  0  0
    2.0723    0.8224    0.0000 C   0  0  0  0  0  0  0  0  0
    2.8793    0.9939    0.0000 C   0  0  0  0  0  0  0  0  0
    3.4313    0.3808    0.0000 C   0  0  0  0  0  0  0  0  0
    4.2383    0.5524    0.0000 C   0  0  0  0  0  0  0  0  0
    4.6508    1.2668    0.0000 C   0  0  0  0  0  0  0  0  0
    5.4578    1.0953    0.0000 C   0  0  0  0  0  0  0  0  0
    5.5440    0.2748    0.0000 C   0  0  0  0  0  0  0  0  0
    6.2585   -0.1377    0.0000 C   0  0  0  0  0  0  0  0  0
    6.9729    0.2748    0.0000 C   0  0  0  0  0  0  0  0  0
    7.6874   -0.1377    0.0000 C   0  0  0  0  0  0  0  0  0
    8.4019    0.2748    0.0000 C   0  0  0  0  0  0  0  0  0
    8.4019    1.0998    0.0000 O   0  0  0  0  0  0  0  0  0
    9.1164   -0.1377    0.0000 N   0  0  0  0  0  0  0  0  0
    9.8308    0.2748    0.0000 C   0  0  0  0  0  0  0  0  0
   10.5453   -0.1377    0.0000 C   0  0  0  0  0  0  0  0  0
   11.2598    0.2748    0.0000 O   0  0  0  0  0  0  0  0  0
   10.5453   -0.9627    0.0000 O   0  0  0  0  0  0  0  0  0
    6.2585   -0.9627    0.0000 C   0  0  0  0  0  0  0  0  0
    4.7903   -0.0607    0.0000 C   0  0  0  0  0  0  0  0  0
    4.5354   -0.8454    0.0000 C   0  0  0  0  0  0  0  0  0
    3.7284   -1.0169    0.0000 C   0  0  0  0  0  0  0  0  0
    3.1764   -0.4038    0.0000 C   0  0  0  0  0  0  0  0  0
    2.3694   -0.5753    0.0000 C   0  0  0  0  0  0  0  0  0
    2.1145   -1.3599    0.0000 C   0  0  0  0  0  0  0  0  0
    1.3075   -1.5315    0.0000 C   0  0  0  0  0  0  0  0  0
    2.9214   -1.1884    0.0000 C   0  0  0  0  0  0  0  0  0
    5.4034   -0.6128    0.0000 C   0  0  0  0  0  0  0  0  0
  1  2  1  0  0  0  0
  2  3  1  0  0  0  0
  2 29  1  0  0  0  0
  3  4  1  0  0  0  0
  4  5  1  0  0  0  0
  4 27  1  0  0  0  0
  5  6  1  0  0  0  0
  6  7  1  0  0  0  0
  7  8  1  0  0  0  0
  7 26  1  0  0  0  0
  8  9  1  0  0  0  0
  8 23  1  0  0  0  0
  9 10  1  0  0  0  0
 10 11  1  0  0  0  0
 11 12  1  0  0  0  0
 11 23  1  0  0  0  0
 12 13  1  0  0  0  0
 12 22  1  0  0  0  0
 13 14  1  0  0  0  0
 14 15  1  0  0  0  0
 15 16  2  0  0  0  0
 15 17  1  0  0  0  0
 17 18  1  0  0  0  0
 18 19  1  0  0  0  0
 19 20  1  0  0  0  0
 19 21  2  0  0  0  0
 23 24  1  0  0  0  0
 23 31  1  0  0  0  0
 24 25  1  0  0  0  0
 25 26  1  0  0  0  0
 26 27  1  0  0  0  0
 27 28  1  0  0  0  0
 27 30  1  0  0  0  0
 28 29  1  0  0  0  0
M  END
>  <Name_Molregno>
Lithocholylglycine

>  <Muscarinic acetylcholine receptor M3>
5

>  <Muscarinic acetylcholine receptor M4>
5

>  <Muscarinic acetylcholine receptor M5>
5

$$$$
Lofepramine
  Marvin  02231216192D 0   1.00000     0.00000     0

 30 33  0  0  0  0  0  0  0  0999 V2000
   -0.0355   -2.8173    0.0000 Cl  0  0  0  0  0  0  0  0  0
    0.6789   -2.4048    0.0000 C   0  0  0  0  0  0  0  0  0
    0.6789   -1.5798    0.0000 C   0  0  0  0  0  0  0  0  0
    1.3934   -1.1673    0.0000 C   0  0  0  0  0  0  0  0  0
    2.1079   -1.5798    0.0000 C   0  0  0  0  0  0  0  0  0
    2.1079   -2.4048    0.0000 C   0  0  0  0  0  0  0  0  0
    1.3934   -2.8173    0.0000 C   0  0  0  0  0  0  0  0  0
    2.8224   -1.1673    0.0000 C   0  0  0  0  0  0  0  0  0
    2.8224   -0.3423    0.0000 O   0  0  0  0  0  0  0  0  0
    3.5368   -1.5798    0.0000 C   0  0  0  0  0  0  0  0  0
    4.2513   -1.1673    0.0000 N   0  0  0  0  0  0  0  0  0
    4.9658   -1.5798    0.0000 C   0  0  0  0  0  0  0  0  0
    5.6802   -1.1673    0.0000 C   0  0  0  0  0  0  0  0  0
    6.3947   -1.5798    0.0000 C   0  0  0  0  0  0  0  0  0
    7.1092   -1.1673    0.0000 N   0  0  0  0  0  0  0  0  0
    7.0475   -0.3446    0.0000 C   0  0  0  0  0  0  0  0  0
    7.6523    0.2165    0.0000 C   0  0  0  0  0  0  0  0  0
    8.4681    0.0936    0.0000 C   0  0  0  0  0  0  0  0  0
    8.8806   -0.6209    0.0000 C   0  0  0  0  0  0  0  0  0
    8.5792   -1.3889    0.0000 C   0  0  0  0  0  0  0  0  0
    7.7908   -1.6321    0.0000 C   0  0  0  0  0  0  0  0  0
    7.6072   -2.4364    0.0000 C   0  0  0  0  0  0  0  0  0
    8.2120   -2.9975    0.0000 C   0  0  0  0  0  0  0  0  0
    9.0004   -2.7543    0.0000 C   0  0  0  0  0  0  0  0  0
    9.1839   -1.9500    0.0000 C   0  0  0  0  0  0  0  0  0
    7.4687    1.0208    0.0000 C   0  0  0  0  0  0  0  0  0
    6.6804    1.2640    0.0000 C   0  0  0  0  0  0  0  0  0
    6.0756    0.7029    0.0000 C   0  0  0  0  0  0  0  0  0
    6.2592   -0.1015    0.0000 C   0  0  0  0  0  0  0  0  0
    4.2513   -0.3423    0.0000 C   0  0  0  0  0  0  0  0  0
  1  2  1  0  0  0  0
  2  3  4  0  0  0  0
  2  7  4  0  0  0  0
  3  4  4  0  0  0  0
  4  5  4  0  0  0  0
  5  6  4  0  0  0  0
  5  8  1  0  0  0  0
  6  7  4  0  0  0  0
  8  9  2  0  0  0  0
  8 10  1  0  0  0  0
 10 11  1  0  0  0  0
 11 12  1  0  0  0  0
 11 30  1  0  0  0  0
 12 13  1  0  0  0  0
 13 14  1  0  0  0  0
 14 15  1  0  0  0  0
 15 16  1  0  0  0  0
 15 21  1  0  0  0  0
 16 17  4  0  0  0  0
 16 29  4  0  0  0  0
 17 18  1  0  0  0  0
 17 26  4  0  0  0  0
 18 19  1  0  0  0  0
 19 20  1  0  0  0  0
 20 21  4  0  0  0  0
 20 25  4  0  0  0  0
 21 22  4  0  0  0  0
 22 23  4  0  0  0  0
 23 24  4  0  0  0  0
 24 25  4  0  0  0  0
 26 27  4  0  0  0  0
 27 28  4  0  0  0  0
 28 29  4  0  0  0  0
M  END
>  <Name_Molregno>
Lofepramine

>  <5-HT1A>
5.34

>  <DOPAMINE D2>
5.7

>  <Dopamine transporter>
5

>  <HISTAMINE H1>
6.44

>  <Muscarinic acetylcholine receptor M1>
7.17

>  <Muscarinic acetylcholine receptor M2>
6.48

>  <Muscarinic acetylcholine receptor M3>
6.89

>  <Muscarinic acetylcholine receptor M4>
6.47

>  <Muscarinic acetylcholine receptor M5>
6.34

>  <Norepinephrine transporter>
8.27

>  <Serotonin transporter>
7.15

$$$$
LOXAPINE
  Marvin  02231216192D 0   1.00000     0.00000     0

 23 26  0  0  0  0  0  0  0  0999 V2000
    3.9671    1.6854    0.0000 Cl  0  0  0  0  0  0  0  0  0
    3.1788    1.4422    0.0000 C   0  0  0  0  0  0  0  0  0
    2.5740    2.0033    0.0000 C   0  0  0  0  0  0  0  0  0
    1.7856    1.7602    0.0000 C   0  0  0  0  0  0  0  0  0
    1.6021    0.9558    0.0000 C   0  0  0  0  0  0  0  0  0
    0.8588    0.5979    0.0000 O   0  0  0  0  0  0  0  0  0
    0.1155    0.9558    0.0000 C   0  0  0  0  0  0  0  0  0
   -0.0681    1.7602    0.0000 C   0  0  0  0  0  0  0  0  0
    0.4463    2.4052    0.0000 N   0  0  0  0  0  0  0  0  0
    1.2713    2.4052    0.0000 C   0  0  0  0  0  0  0  0  0
    1.6292    3.1485    0.0000 N   0  0  0  0  0  0  0  0  0
    1.1645    3.8301    0.0000 C   0  0  0  0  0  0  0  0  0
    1.5224    4.5734    0.0000 C   0  0  0  0  0  0  0  0  0
    2.3451    4.6351    0.0000 N   0  0  0  0  0  0  0  0  0
    2.8099    3.9534    0.0000 C   0  0  0  0  0  0  0  0  0
    2.4519    3.2101    0.0000 C   0  0  0  0  0  0  0  0  0
    2.7031    5.3784    0.0000 C   0  0  0  0  0  0  0  0  0
   -0.8565    2.0033    0.0000 C   0  0  0  0  0  0  0  0  0
   -1.4612    1.4422    0.0000 C   0  0  0  0  0  0  0  0  0
   -1.2776    0.6379    0.0000 C   0  0  0  0  0  0  0  0  0
   -0.4893    0.3947    0.0000 C   0  0  0  0  0  0  0  0  0
    2.2068    0.3947    0.0000 C   0  0  0  0  0  0  0  0  0
    2.9952    0.6379    0.0000 C   0  0  0  0  0  0  0  0  0
  1  2  1  0  0  0  0
  2  3  4  0  0  0  0
  2 23  4  0  0  0  0
  3  4  4  0  0  0  0
  4  5  4  0  0  0  0
  4 10  1  0  0  0  0
  5  6  1  0  0  0  0
  5 22  4  0  0  0  0
  6  7  1  0  0  0  0
  7  8  4  0  0  0  0
  7 21  4  0  0  0  0
  8  9  1  0  0  0  0
  8 18  4  0  0  0  0
  9 10  2  0  0  0  0
 10 11  1  0  0  0  0
 11 12  1  0  0  0  0
 11 16  1  0  0  0  0
 12 13  1  0  0  0  0
 13 14  1  0  0  0  0
 14 15  1  0  0  0  0
 14 17  1  0  0  0  0
 15 16  1  0  0  0  0
 18 19  4  0  0  0  0
 19 20  4  0  0  0  0
 20 21  4  0  0  0  0
 22 23  4  0  0  0  0
M  END
>  <Name_Molregno>
LOXAPINE

>  <5-HT1A>
5.59

>  <5-HT1B>
6.41

>  <5-HT1D>
5.46

>  <5-HT1E>
5.85

>  <5-HT2A>
8.43

>  <5-HT2C>
7.9

>  <5-HT3>
6.72

>  <5-HT5>
6.11

>  <5-HT6>
7.46

>  <5-HT7>
7.06

>  <Alpha-1A>
7.51

>  <Alpha-1B>
7.28

>  <Alpha-2A>
6.82

>  <Alpha-2B>
6.97

>  <Alpha-2C>
7.1

>  <Beta-1>
5

>  <Beta-2>
5

>  <DOPAMINE D1>
7.27

>  <DOPAMINE D2>
7.74

>  <DOPAMINE D3>
7.64

>  <DOPAMINE D4>
8.04

>  <DOPAMINE D5>
7.12

>  <Dopamine transporter>
5

>  <HISTAMINE H1>
8.33

>  <HISTAMINE H2>
6.68

>  <HISTAMINE H4>
5.32

>  <Muscarinic acetylcholine receptor M1>
6.98

>  <Muscarinic acetylcholine receptor M2>
6.38

>  <Muscarinic acetylcholine receptor M3>
6.74

>  <Muscarinic acetylcholine receptor M4>
6.09

>  <Muscarinic acetylcholine receptor M5>
6.83

>  <Norepinephrine transporter>
5.24

>  <Serotonin transporter>
5

$$$$
MELPERONE
  Marvin  02231216192D 0   1.00000     0.00000     0

 19 20  0  0  0  0  0  0  0  0999 V2000
    0.1244    2.1151    0.0000 F   0  0  0  0  0  0  0  0  0
    0.8389    1.7026    0.0000 C   0  0  0  0  0  0  0  0  0
    1.5534    2.1151    0.0000 C   0  0  0  0  0  0  0  0  0
    2.2678    1.7026    0.0000 C   0  0  0  0  0  0  0  0  0
    2.2678    0.8776    0.0000 C   0  0  0  0  0  0  0  0  0
    1.5534    0.4651    0.0000 C   0  0  0  0  0  0  0  0  0
    0.8389    0.8776    0.0000 C   0  0  0  0  0  0  0  0  0
    2.9823    0.4651    0.0000 C   0  0  0  0  0  0  0  0  0
    2.9823   -0.3599    0.0000 O   0  0  0  0  0  0  0  0  0
    3.6968    0.8776    0.0000 C   0  0  0  0  0  0  0  0  0
    4.4113    0.4651    0.0000 C   0  0  0  0  0  0  0  0  0
    5.1257    0.8776    0.0000 C   0  0  0  0  0  0  0  0  0
    5.8402    0.4651    0.0000 N   0  0  0  0  0  0  0  0  0
    6.5547    0.8776    0.0000 C   0  0  0  0  0  0  0  0  0
    7.2691    0.4651    0.0000 C   0  0  0  0  0  0  0  0  0
    7.2691   -0.3599    0.0000 C   0  0  0  0  0  0  0  0  0
    6.5547   -0.7724    0.0000 C   0  0  0  0  0  0  0  0  0
    5.8402   -0.3599    0.0000 C   0  0  0  0  0  0  0  0  0
    7.9836   -0.7724    0.0000 C   0  0  0  0  0  0  0  0  0
  1  2  1  0  0  0  0
  2  3  4  0  0  0  0
  2  7  4  0  0  0  0
  3  4  4  0  0  0  0
  4  5  4  0  0  0  0
  5  6  4  0  0  0  0
  5  8  1  0  0  0  0
  6  7  4  0  0  0  0
  8  9  2  0  0  0  0
  8 10  1  0  0  0  0
 10 11  1  0  0  0  0
 11 12  1  0  0  0  0
 12 13  1  0  0  0  0
 13 14  1  0  0  0  0
 13 18  1  0  0  0  0
 14 15  1  0  0  0  0
 15 16  1  0  0  0  0
 16 17  1  0  0  0  0
 16 19  1  0  0  0  0
 17 18  1  0  0  0  0
M  END
>  <Name_Molregno>
MELPERONE

>  <5-HT1A>
5.66

>  <5-HT1D>
5.47

>  <5-HT2A>
6.74

>  <5-HT2C>
5.68

>  <DOPAMINE D2>
7.04

>  <DOPAMINE D3>
7.45

>  <DOPAMINE D4>
6.33

>  <HISTAMINE H1>
6.24

>  <Muscarinic acetylcholine receptor M1>
5

>  <Muscarinic acetylcholine receptor M2>
5.62

>  <Muscarinic acetylcholine receptor M3>
5

>  <Muscarinic acetylcholine receptor M4>
5.36

>  <Muscarinic acetylcholine receptor M5>
5

$$$$
Mequitazine
  Marvin  02231216192D 0   1.00000     0.00000     0

 23 27  0  0  1  0  0  0  0  0999 V2000
   -0.0890    2.6216    0.0000 S   0  0  0  0  0  0  0  0  0
   -0.0890    1.7966    0.0000 C   0  0  0  0  0  0  0  0  0
    0.6254    1.3841    0.0000 C   0  0  0  0  0  0  0  0  0
    1.3399    1.7966    0.0000 N   0  0  0  0  0  0  0  0  0
    1.3399    2.6216    0.0000 C   0  0  0  0  0  0  0  0  0
    0.6254    3.0341    0.0000 C   0  0  0  0  0  0  0  0  0
    0.6254    3.8591    0.0000 C   0  0  0  0  0  0  0  0  0
    1.3399    4.2716    0.0000 C   0  0  0  0  0  0  0  0  0
    2.0544    3.8591    0.0000 C   0  0  0  0  0  0  0  0  0
    2.0544    3.0341    0.0000 C   0  0  0  0  0  0  0  0  0
    2.0544    1.3841    0.0000 C   0  0  0  0  0  0  0  0  0
    2.0544    0.5591    0.0000 C   0  0  0  0  0  0  0  0  0
    2.7531    0.0284    0.0000 C   0  0  0  0  0  0  0  0  0
    2.8226   -0.7785    0.0000 C   0  0  0  0  0  0  0  0  0
    2.2304   -1.2834    0.0000 C   0  0  0  0  0  0  0  0  0
    2.1690   -0.4607    0.0000 N   0  0  0  0  0  0  0  0  0
    1.4468    0.0976    0.0000 C   0  0  0  0  0  0  0  0  0
    3.1441   -0.0770    0.0000 C   0  0  0  0  0  0  0  0  0
    3.5542    0.4318    0.0000 C   0  0  0  0  0  0  0  0  0
    0.6254    0.5591    0.0000 C   0  0  0  0  0  0  0  0  0
   -0.0890    0.1466    0.0000 C   0  0  0  0  0  0  0  0  0
   -0.8035    0.5591    0.0000 C   0  0  0  0  0  0  0  0  0
   -0.8035    1.3841    0.0000 C   0  0  0  0  0  0  0  0  0
  1  2  1  0  0  0  0
  1  6  1  0  0  0  0
  2  3  4  0  0  0  0
  2 23  4  0  0  0  0
  3  4  1  0  0  0  0
  3 20  4  0  0  0  0
  4  5  1  0  0  0  0
  4 11  1  0  0  0  0
  5  6  4  0  0  0  0
  5 10  4  0  0  0  0
  6  7  4  0  0  0  0
  7  8  4  0  0  0  0
  8  9  4  0  0  0  0
  9 10  4  0  0  0  0
 11 12  1  0  0  0  0
 12 13  1  0  0  0  0
 12 17  1  0  0  0  0
 13 14  1  0  0  0  0
 13 19  1  0  0  0  0
 14 15  1  0  0  0  0
 15 16  1  0  0  0  0
 16 17  1  0  0  0  0
 16 18  1  0  0  0  0
 18 19  1  0  0  0  0
 20 21  4  0  0  0  0
 21 22  4  0  0  0  0
 22 23  4  0  0  0  0
M  END
>  <Name_Molregno>
Mequitazine

>  <HISTAMINE H1>
8.24

>  <Muscarinic acetylcholine receptor M1>
8.25

>  <Muscarinic acetylcholine receptor M2>
7.85

>  <Muscarinic acetylcholine receptor M3>
8.28

>  <Muscarinic acetylcholine receptor M4>
7.95

>  <Muscarinic acetylcholine receptor M5>
7.96

$$$$
METHACHOLINE
  Marvin  02231216192D 0   1.00000     0.00000     0

 11 10  0  0  1  0  0  0  0  0999 V2000
    1.6638    0.0076    0.0000 O   0  0  0  0  0  0  0  0  0
    0.9494   -0.4049    0.0000 C   0  0  0  0  0  0  0  0  0
    0.2349    0.0076    0.0000 C   0  0  0  0  0  0  0  0  0
   -0.4796   -0.4049    0.0000 N   0  3  0  0  0  0  0  0  0
   -1.1941   -0.8174    0.0000 C   0  0  0  0  0  0  0  0  0
   -0.0671   -1.1193    0.0000 C   0  0  0  0  0  0  0  0  0
   -0.8921    0.3096    0.0000 C   0  0  0  0  0  0  0  0  0
    0.9494   -1.2299    0.0000 C   0  0  0  0  0  0  0  0  0
    2.3783   -0.4049    0.0000 C   0  0  0  0  0  0  0  0  0
    3.0928    0.0076    0.0000 O   0  0  0  0  0  0  0  0  0
    2.3783   -1.2299    0.0000 C   0  0  0  0  0  0  0  0  0
  1  2  1  0  0  0  0
  1  9  1  0  0  0  0
  2  3  1  0  0  0  0
  2  8  1  0  0  0  0
  3  4  1  0  0  0  0
  4  5  1  0  0  0  0
  4  6  1  0  0  0  0
  4  7  1  0  0  0  0
  9 10  2  0  0  0  0
  9 11  1  0  0  0  0
M  CHG  1   4   1
M  END
>  <Name_Molregno>
METHACHOLINE

>  <Muscarinic acetylcholine receptor M1>
7.64

>  <Muscarinic acetylcholine receptor M2>
7.23

>  <Muscarinic acetylcholine receptor M4>
5.8

$$$$
Methcathinone
  Marvin  02231216192D 0   1.00000     0.00000     0

 12 12  0  0  1  0  0  0  0  0999 V2000
    1.9192   -0.0549    0.0000 O   0  0  0  0  0  0  0  0  0
    1.2047   -0.4674    0.0000 C   0  0  0  0  0  0  0  0  0
    0.4903   -0.0549    0.0000 C   0  0  0  0  0  0  0  0  0
    0.4903    0.7701    0.0000 N   0  0  0  0  0  0  0  0  0
   -0.2242    1.1826    0.0000 C   0  0  0  0  0  0  0  0  0
   -0.2242   -0.4674    0.0000 C   0  0  0  0  0  0  0  0  0
    1.2047   -1.2924    0.0000 C   0  0  0  0  0  0  0  0  0
    1.9192   -1.7049    0.0000 C   0  0  0  0  0  0  0  0  0
    1.9192   -2.5299    0.0000 C   0  0  0  0  0  0  0  0  0
    1.2047   -2.9424    0.0000 C   0  0  0  0  0  0  0  0  0
    0.4903   -2.5299    0.0000 C   0  0  0  0  0  0  0  0  0
    0.4903   -1.7049    0.0000 C   0  0  0  0  0  0  0  0  0
  1  2  2  0  0  0  0
  2  3  1  0  0  0  0
  2  7  1  0  0  0  0
  3  4  1  0  0  0  0
  3  6  1  0  0  0  0
  4  5  1  0  0  0  0
  7  8  4  0  0  0  0
  7 12  4  0  0  0  0
  8  9  4  0  0  0  0
  9 10  4  0  0  0  0
 10 11  4  0  0  0  0
 11 12  4  0  0  0  0
M  END
>  <Name_Molregno>
Methcathinone

>  <5-HT1A>
5

>  <5-HT1B>
5

>  <5-HT1D>
5

>  <5-HT1E>
5

>  <5-HT3>
5

>  <5-HT5>
5

>  <5-HT6>
5

>  <5-HT7>
6

>  <Alpha-1A>
5

>  <Alpha-1B>
5

>  <Alpha-2A>
5.04

>  <Alpha-2B>
5.81

>  <Alpha-2C>
6.22

>  <Beta-1>
5

>  <Beta-2>
5

>  <DOPAMINE D1>
5

>  <DOPAMINE D2>
5

>  <DOPAMINE D4>
5

>  <DOPAMINE D5>
5

>  <Dopamine transporter>
6.41

>  <HISTAMINE H1>
5

>  <HISTAMINE H2>
5

>  <HISTAMINE H4>
5

>  <Muscarinic acetylcholine receptor M1>
5

>  <Muscarinic acetylcholine receptor M2>
5

>  <Muscarinic acetylcholine receptor M3>
5

>  <Muscarinic acetylcholine receptor M4>
5

>  <Muscarinic acetylcholine receptor M5>
5

>  <Norepinephrine transporter>
6.87

>  <Serotonin transporter>
5.38

$$$$
METHYLPHENIDATE
  Marvin  02231216192D 0   1.00000     0.00000     0

 17 18  0  0  1  0  0  0  0  0999 V2000
   -0.3749   -0.6902    0.0000 O   0  0  0  0  0  0  0  0  0
    0.3395   -0.2777    0.0000 C   0  0  0  0  0  0  0  0  0
    0.3395    0.5473    0.0000 O   0  0  0  0  0  0  0  0  0
    1.0540   -0.6902    0.0000 C   0  0  0  0  0  0  0  0  0
    1.0540   -1.5152    0.0000 C   0  0  0  0  0  0  0  0  0
    1.7685   -1.9277    0.0000 N   0  0  0  0  0  0  0  0  0
    1.7685   -2.7527    0.0000 C   0  0  0  0  0  0  0  0  0
    1.0540   -3.1652    0.0000 C   0  0  0  0  0  0  0  0  0
    0.3395   -2.7527    0.0000 C   0  0  0  0  0  0  0  0  0
    0.3395   -1.9277    0.0000 C   0  0  0  0  0  0  0  0  0
    1.7685   -0.2777    0.0000 C   0  0  0  0  0  0  0  0  0
    1.7685    0.5473    0.0000 C   0  0  0  0  0  0  0  0  0
    2.4829    0.9598    0.0000 C   0  0  0  0  0  0  0  0  0
    3.1974    0.5473    0.0000 C   0  0  0  0  0  0  0  0  0
    3.1974   -0.2777    0.0000 C   0  0  0  0  0  0  0  0  0
    2.4829   -0.6902    0.0000 C   0  0  0  0  0  0  0  0  0
   -0.3749   -1.5152    0.0000 C   0  0  0  0  0  0  0  0  0
  1  2  1  0  0  0  0
  1 17  1  0  0  0  0
  2  3  2  0  0  0  0
  2  4  1  0  0  0  0
  4  5  1  0  0  0  0
  4 11  1  0  0  0  0
  5  6  1  0  0  0  0
  5 10  1  0  0  0  0
  6  7  1  0  0  0  0
  7  8  1  0  0  0  0
  8  9  1  0  0  0  0
  9 10  1  0  0  0  0
 11 12  4  0  0  0  0
 11 16  4  0  0  0  0
 12 13  4  0  0  0  0
 13 14  4  0  0  0  0
 14 15  4  0  0  0  0
 15 16  4  0  0  0  0
M  END
>  <Name_Molregno>
METHYLPHENIDATE

>  <5-HT1A>
5

>  <5-HT1B>
5

>  <5-HT1E>
5

>  <5-HT3>
5

>  <5-HT5>
5

>  <5-HT6>
5

>  <5-HT7>
5

>  <Alpha-1A>
5

>  <Alpha-1B>
5

>  <Alpha-2A>
5.25

>  <Alpha-2B>
5.61

>  <Alpha-2C>
6.07

>  <DOPAMINE D1>
5

>  <DOPAMINE D2>
5

>  <Dopamine transporter>
7.28

>  <Muscarinic acetylcholine receptor M1>
5

>  <Muscarinic acetylcholine receptor M2>
5

>  <Muscarinic acetylcholine receptor M3>
5

>  <Muscarinic acetylcholine receptor M4>
5

>  <Muscarinic acetylcholine receptor M5>
5

>  <Norepinephrine transporter>
6.46

>  <Serotonin transporter>
5

$$$$
METHYSERGIDE
  Marvin  02231216192D 0   1.00000     0.00000     0

 26 29  0  0  1  0  0  0  0  0999 V2000
   -5.6466   -4.8655    0.0000 O   0  0  0  0  0  0  0  0  0
   -5.6457   -4.0405    0.0000 C   0  0  0  0  0  0  0  0  0
   -4.9307   -3.6289    0.0000 C   0  0  0  0  0  0  0  0  0
   -4.9297   -2.8039    0.0000 N   0  0  0  0  0  0  0  0  0
   -4.2147   -2.3922    0.0000 C   0  0  0  0  0  0  0  0  0
   -3.5008   -2.8056    0.0000 O   0  0  0  0  0  0  0  0  0
   -4.2138   -1.5672    0.0000 C   0  0  0  0  0  0  0  0  0
   -3.4988   -1.1556    0.0000 C   0  0  0  0  0  0  0  0  0
   -3.4978   -0.3306    0.0000 C   0  0  0  0  0  0  0  0  0
   -4.2118    0.0828    0.0000 C   0  0  0  0  0  0  0  0  0
   -4.9267   -0.3289    0.0000 N   0  0  0  0  0  0  0  0  0
   -4.9277   -1.1539    0.0000 C   0  0  0  0  0  0  0  0  0
   -5.6407    0.0845    0.0000 C   0  0  0  0  0  0  0  0  0
   -4.2103    0.9069    0.0000 C   0  0  0  0  0  0  0  0  0
   -3.4978    1.3194    0.0000 C   0  0  0  0  0  0  0  0  0
   -2.7853    0.9069    0.0000 C   0  0  0  0  0  0  0  0  0
   -2.7853    0.0819    0.0000 C   0  0  0  0  0  0  0  0  0
   -2.0674   -0.3306    0.0000 C   0  0  0  0  0  0  0  0  0
   -1.3549    0.0819    0.0000 C   0  0  0  0  0  0  0  0  0
   -1.3549    0.9069    0.0000 C   0  0  0  0  0  0  0  0  0
   -2.0674    1.3194    0.0000 C   0  0  0  0  0  0  0  0  0
   -2.3728    2.1766    0.0000 N   0  0  0  0  0  0  0  0  0
   -3.1978    2.1766    0.0000 C   0  0  0  0  0  0  0  0  0
   -1.8973    2.8507    0.0000 C   0  0  0  0  0  0  0  0  0
   -4.2167   -4.0422    0.0000 C   0  0  0  0  0  0  0  0  0
   -4.2177   -4.8672    0.0000 C   0  0  0  0  0  0  0  0  0
  1  2  1  0  0  0  0
  2  3  1  0  0  0  0
  3  4  1  0  0  0  0
  3 25  1  0  0  0  0
  4  5  1  0  0  0  0
  5  6  2  0  0  0  0
  5  7  1  0  0  0  0
  7  8  1  0  0  0  0
  7 12  1  0  0  0  0
  8  9  2  0  0  0  0
  9 10  1  0  0  0  0
  9 17  1  0  0  0  0
 10 11  1  0  0  0  0
 10 14  1  0  0  0  0
 11 12  1  0  0  0  0
 11 13  1  0  0  0  0
 14 15  1  0  0  0  0
 15 16  4  0  0  0  0
 15 23  4  0  0  0  0
 16 17  4  0  0  0  0
 16 21  4  0  0  0  0
 17 18  4  0  0  0  0
 18 19  4  0  0  0  0
 19 20  4  0  0  0  0
 20 21  4  0  0  0  0
 21 22  4  0  0  0  0
 22 23  4  0  0  0  0
 22 24  1  0  0  0  0
 25 26  1  0  0  0  0
M  END
>  <Name_Molregno>
METHYSERGIDE

>  <5-HT1A>
7.81

>  <5-HT1B>
7.91

>  <5-HT1D>
7.56

>  <5-HT1E>
6.71

>  <5-HT2A>
8.05

>  <5-HT2C>
8.69

>  <5-HT3>
5

>  <5-HT5>
5

>  <5-HT6>
6.82

>  <5-HT7>
7.32

>  <Alpha-1A>
5

>  <Alpha-1B>
5

>  <Alpha-2A>
6.77

>  <Alpha-2B>
6.97

>  <Alpha-2C>
7.05

>  <Beta-1>
5

>  <Beta-2>
5

>  <DOPAMINE D1>
5

>  <DOPAMINE D2>
5

>  <DOPAMINE D4>
5

>  <DOPAMINE D5>
5

>  <Dopamine transporter>
5

>  <HISTAMINE H1>
5.26

>  <HISTAMINE H2>
5

>  <Muscarinic acetylcholine receptor M1>
5.26

>  <Muscarinic acetylcholine receptor M2>
5.21

>  <Muscarinic acetylcholine receptor M3>
5.33

>  <Muscarinic acetylcholine receptor M4>
5

>  <Muscarinic acetylcholine receptor M5>
5

>  <Norepinephrine transporter>
5

>  <Serotonin transporter>
5

$$$$
MT-3
  Marvin  02231216192D 0   1.00000     0.00000     0

 12 12  0  0  0  0  0  0  0  0999 V2000
    2.8762    1.5318    0.0000 O   0  0  0  0  0  0  0  0  0
    2.8762    2.3568    0.0000 C   0  0  0  0  0  0  0  0  0
    2.1617    1.1193    0.0000 C   0  0  0  0  0  0  0  0  0
    2.1617    0.2943    0.0000 C   0  0  0  0  0  0  0  0  0
    1.4472   -0.1182    0.0000 C   0  0  0  0  0  0  0  0  0
    0.7327    0.2943    0.0000 C   0  0  0  0  0  0  0  0  0
    0.7327    1.1193    0.0000 C   0  0  0  0  0  0  0  0  0
    1.4472    1.5318    0.0000 C   0  0  0  0  0  0  0  0  0
    1.4472    2.3568    0.0000 O   0  0  0  0  0  0  0  0  0
    1.4472   -0.9432    0.0000 C   0  0  0  0  0  0  0  0  0
    0.7327   -1.3557    0.0000 C   0  0  0  0  0  0  0  0  0
    0.7327   -2.1807    0.0000 N   0  0  0  0  0  0  0  0  0
  1  2  1  0  0  0  0
  1  3  1  0  0  0  0
  3  4  4  0  0  0  0
  3  8  4  0  0  0  0
  4  5  4  0  0  0  0
  5  6  4  0  0  0  0
  5 10  1  0  0  0  0
  6  7  4  0  0  0  0
  7  8  4  0  0  0  0
  8  9  1  0  0  0  0
 10 11  1  0  0  0  0
 11 12  1  0  0  0  0
M  END
>  <Name_Molregno>
MT-3

>  <Muscarinic acetylcholine receptor M1>
7.11

>  <Muscarinic acetylcholine receptor M2>
6

>  <Muscarinic acetylcholine receptor M3>
6

>  <Muscarinic acetylcholine receptor M4>
8.7

>  <Muscarinic acetylcholine receptor M5>
6

$$$$
N-DESMETHYLCLOZAPINE
  Marvin  02231216192D 0   1.00000     0.00000     0

 22 25  0  0  0  0  0  0  0  0999 V2000
   -0.3818   -1.7384    0.0000 Cl  0  0  0  0  0  0  0  0  0
    0.4065   -1.9816    0.0000 C   0  0  0  0  0  0  0  0  0
    1.0113   -1.4204    0.0000 C   0  0  0  0  0  0  0  0  0
    1.7996   -1.6636    0.0000 C   0  0  0  0  0  0  0  0  0
    2.3140   -1.0186    0.0000 N   0  0  0  0  0  0  0  0  0
    3.1390   -1.0186    0.0000 C   0  0  0  0  0  0  0  0  0
    3.4969   -0.2753    0.0000 N   0  0  0  0  0  0  0  0  0
    3.0322    0.4063    0.0000 C   0  0  0  0  0  0  0  0  0
    3.3902    1.1496    0.0000 C   0  0  0  0  0  0  0  0  0
    4.2129    1.2113    0.0000 N   0  0  0  0  0  0  0  0  0
    4.6776    0.5296    0.0000 C   0  0  0  0  0  0  0  0  0
    4.3196   -0.2137    0.0000 C   0  0  0  0  0  0  0  0  0
    3.6534   -1.6636    0.0000 C   0  0  0  0  0  0  0  0  0
    3.4698   -2.4679    0.0000 C   0  0  0  0  0  0  0  0  0
    2.7265   -2.8259    0.0000 N   0  0  0  0  0  0  0  0  0
    1.9832   -2.4679    0.0000 C   0  0  0  0  0  0  0  0  0
    1.3784   -3.0291    0.0000 C   0  0  0  0  0  0  0  0  0
    0.5901   -2.7859    0.0000 C   0  0  0  0  0  0  0  0  0
    4.0746   -3.0291    0.0000 C   0  0  0  0  0  0  0  0  0
    4.8629   -2.7859    0.0000 C   0  0  0  0  0  0  0  0  0
    5.0465   -1.9816    0.0000 C   0  0  0  0  0  0  0  0  0
    4.4417   -1.4204    0.0000 C   0  0  0  0  0  0  0  0  0
  1  2  1  0  0  0  0
  2  3  4  0  0  0  0
  2 18  4  0  0  0  0
  3  4  4  0  0  0  0
  4  5  1  0  0  0  0
  4 16  4  0  0  0  0
  5  6  1  0  0  0  0
  6  7  1  0  0  0  0
  6 13  2  0  0  0  0
  7  8  1  0  0  0  0
  7 12  1  0  0  0  0
  8  9  1  0  0  0  0
  9 10  1  0  0  0  0
 10 11  1  0  0  0  0
 11 12  1  0  0  0  0
 13 14  1  0  0  0  0
 13 22  1  0  0  0  0
 14 15  2  0  0  0  0
 14 19  1  0  0  0  0
 15 16  1  0  0  0  0
 16 17  4  0  0  0  0
 17 18  4  0  0  0  0
 19 20  2  0  0  0  0
 20 21  1  0  0  0  0
 21 22  2  0  0  0  0
M  END
>  <Name_Molregno>
N-DESMETHYLCLOZAPINE

>  <5-HT1A>
7.86

>  <5-HT1B>
6.39

>  <5-HT1D>
6.32

>  <5-HT1E>
6.41

>  <5-HT2A>
7.96

>  <5-HT3>
6.57

>  <5-HT5>
6.46

>  <5-HT6>
7.94

>  <5-HT7>
7.22

>  <Alpha-1A>
6.98

>  <Alpha-1B>
7.07

>  <Alpha-2A>
6.86

>  <Alpha-2B>
7.02

>  <Alpha-2C>
6.93

>  <Beta-1>
5.2

>  <Beta-2>
5.33

>  <DOPAMINE D1>
7.84

>  <DOPAMINE D2>
7

>  <DOPAMINE D3>
6.82

>  <DOPAMINE D4>
7.28

>  <DOPAMINE D5>
6.55

>  <Dopamine transporter>
5

>  <HISTAMINE H1>
8.47

>  <HISTAMINE H2>
6.46

>  <HISTAMINE H4>
5.99

>  <Muscarinic acetylcholine receptor M1>
7.17

>  <Muscarinic acetylcholine receptor M2>
6.38

>  <Muscarinic acetylcholine receptor M3>
7.02

>  <Muscarinic acetylcholine receptor M4>
6.77

>  <Muscarinic acetylcholine receptor M5>
7.45

>  <Norepinephrine transporter>
6.31

>  <Serotonin transporter>
6.5

$$$$
N-METHYLSCOPOLAMINE
  Marvin  02231216192D 0   1.00000     0.00000     0

 23 26  0  0  1  0  0  0  0  0999 V2000
    1.1341    0.1047    0.0000 O   0  0  0  0  0  0  0  0  0
    1.1156    0.9294    0.0000 C   0  0  0  0  0  0  0  0  0
    1.4361    1.6380    0.0000 C   0  0  0  0  0  0  0  0  0
    0.8755    2.0779    0.0000 N   0  3  0  0  0  0  0  0  0
    1.0152    1.2648    0.0000 C   0  0  0  0  0  0  0  0  0
    1.9869    1.2648    0.0000 C   0  0  0  0  0  0  0  0  0
    2.5031    0.8361    0.0000 C   0  0  0  0  0  0  0  0  0
    2.9149    0.1213    0.0000 O   0  0  0  0  0  0  0  0  0
    2.5017   -0.5928    0.0000 C   0  0  0  0  0  0  0  0  0
    1.6767   -0.5920    0.0000 O   0  0  0  0  0  0  0  0  0
    2.9135   -1.3077    0.0000 C   0  0  0  0  0  0  0  0  0
    3.7385   -1.3085    0.0000 C   0  0  0  0  0  0  0  0  0
    4.1503   -2.0234    0.0000 O   0  0  0  0  0  0  0  0  0
    2.5003   -2.0217    0.0000 C   0  0  0  0  0  0  0  0  0
    2.9121   -2.7366    0.0000 C   0  0  0  0  0  0  0  0  0
    2.4989   -3.4507    0.0000 C   0  0  0  0  0  0  0  0  0
    1.6739   -3.4499    0.0000 C   0  0  0  0  0  0  0  0  0
    1.2621   -2.7350    0.0000 C   0  0  0  0  0  0  0  0  0
    1.6753   -2.0209    0.0000 C   0  0  0  0  0  0  0  0  0
    2.3649    1.6535    0.0000 C   0  0  0  0  0  0  0  0  0
    0.4106    0.5011    0.0000 C   0  0  0  0  0  0  0  0  0
    0.9656    2.8980    0.0000 C   0  0  0  0  0  0  0  0  0
    0.1111    2.3884    0.0000 C   0  0  0  0  0  0  0  0  0
  1  2  1  0  0  0  0
  1 21  1  0  0  0  0
  2  3  1  0  0  0  0
  2 21  1  0  0  0  0
  3  4  1  0  0  0  0
  3 20  1  0  0  0  0
  4  5  1  0  0  0  0
  4 22  1  0  0  0  0
  4 23  1  0  0  0  0
  5  6  1  0  0  0  0
  5 21  1  0  0  0  0
  6  7  1  0  0  0  0
  7  8  1  0  0  0  0
  7 20  1  0  0  0  0
  8  9  1  0  0  0  0
  9 10  2  0  0  0  0
  9 11  1  0  0  0  0
 11 12  1  0  0  0  0
 11 14  1  0  0  0  0
 12 13  1  0  0  0  0
 14 15  4  0  0  0  0
 14 19  4  0  0  0  0
 15 16  4  0  0  0  0
 16 17  4  0  0  0  0
 17 18  4  0  0  0  0
 18 19  4  0  0  0  0
M  CHG  1   4   1
M  END
>  <Name_Molregno>
N-METHYLSCOPOLAMINE

>  <Muscarinic acetylcholine receptor M1>
9.49

>  <Muscarinic acetylcholine receptor M2>
9.75

>  <Muscarinic acetylcholine receptor M3>
9.87

>  <Muscarinic acetylcholine receptor M4>
9.85

>  <Muscarinic acetylcholine receptor M5>
9.68

$$$$
Norephedrine
  Marvin  02231216192D 0   1.00000     0.00000     0

 11 11  0  0  1  0  0  0  0  0999 V2000
    1.9974    0.2298    0.0000 O   0  0  0  0  0  0  0  0  0
    1.2829   -0.1827    0.0000 C   0  0  0  0  0  0  0  0  0
    0.5684    0.2298    0.0000 C   0  0  0  0  0  0  0  0  0
    0.5684    1.0548    0.0000 N   0  0  0  0  0  0  0  0  0
   -0.1461   -0.1827    0.0000 C   0  0  0  0  0  0  0  0  0
    1.2829   -1.0077    0.0000 C   0  0  0  0  0  0  0  0  0
    1.9974   -1.4202    0.0000 C   0  0  0  0  0  0  0  0  0
    1.9974   -2.2452    0.0000 C   0  0  0  0  0  0  0  0  0
    1.2829   -2.6577    0.0000 C   0  0  0  0  0  0  0  0  0
    0.5684   -2.2452    0.0000 C   0  0  0  0  0  0  0  0  0
    0.5684   -1.4202    0.0000 C   0  0  0  0  0  0  0  0  0
  1  2  1  0  0  0  0
  2  3  1  0  0  0  0
  2  6  1  0  0  0  0
  3  4  1  0  0  0  0
  3  5  1  0  0  0  0
  6  7  4  0  0  0  0
  6 11  4  0  0  0  0
  7  8  4  0  0  0  0
  8  9  4  0  0  0  0
  9 10  4  0  0  0  0
 10 11  4  0  0  0  0
M  END
>  <Name_Molregno>
Norephedrine

>  <5-HT1A>
5

>  <5-HT1B>
5

>  <5-HT1D>
5

>  <5-HT1E>
5

>  <5-HT3>
5

>  <5-HT5>
5

>  <5-HT6>
5

>  <5-HT7>
5.04

>  <Alpha-1A>
5

>  <Alpha-1B>
5

>  <Alpha-2A>
5.64

>  <Alpha-2B>
5.73

>  <Alpha-2C>
6.04

>  <Beta-1>
5

>  <Beta-2>
5

>  <DOPAMINE D1>
5

>  <DOPAMINE D2>
5

>  <DOPAMINE D4>
5

>  <DOPAMINE D5>
5

>  <Dopamine transporter>
5.76

>  <HISTAMINE H1>
5

>  <HISTAMINE H2>
5

>  <HISTAMINE H4>
5

>  <Muscarinic acetylcholine receptor M1>
5.04

>  <Muscarinic acetylcholine receptor M2>
5

>  <Muscarinic acetylcholine receptor M3>
5

>  <Muscarinic acetylcholine receptor M4>
5

>  <Muscarinic acetylcholine receptor M5>
5

>  <Norepinephrine transporter>
6.34

>  <Serotonin transporter>
5

$$$$
Norfenfluramine
  Marvin  02231216192D 0   1.00000     0.00000     0

 14 14  0  0  1  0  0  0  0  0999 V2000
    0.4631   -1.9707    0.0000 F   0  0  0  0  0  0  0  0  0
    1.1776   -1.5582    0.0000 C   0  0  0  0  0  0  0  0  0
    1.5901   -2.2727    0.0000 F   0  0  0  0  0  0  0  0  0
    0.7651   -0.8437    0.0000 F   0  0  0  0  0  0  0  0  0
    1.8921   -1.1457    0.0000 C   0  0  0  0  0  0  0  0  0
    1.8921   -0.3207    0.0000 C   0  0  0  0  0  0  0  0  0
    2.6065    0.0918    0.0000 C   0  0  0  0  0  0  0  0  0
    3.3210   -0.3207    0.0000 C   0  0  0  0  0  0  0  0  0
    3.3210   -1.1457    0.0000 C   0  0  0  0  0  0  0  0  0
    2.6065   -1.5582    0.0000 C   0  0  0  0  0  0  0  0  0
    2.6065    0.9168    0.0000 C   0  0  0  0  0  0  0  0  0
    3.3210    1.3293    0.0000 C   0  0  0  0  0  0  0  0  0
    3.3210    2.1543    0.0000 N   0  0  0  0  0  0  0  0  0
    4.0355    0.9168    0.0000 C   0  0  0  0  0  0  0  0  0
  1  2  1  0  0  0  0
  2  3  1  0  0  0  0
  2  4  1  0  0  0  0
  2  5  1  0  0  0  0
  5  6  4  0  0  0  0
  5 10  4  0  0  0  0
  6  7  4  0  0  0  0
  7  8  4  0  0  0  0
  7 11  1  0  0  0  0
  8  9  4  0  0  0  0
  9 10  4  0  0  0  0
 11 12  1  0  0  0  0
 12 13  1  0  0  0  0
 12 14  1  0  0  0  0
M  END
>  <Name_Molregno>
Norfenfluramine

>  <5-HT1A>
5.77

>  <5-HT1B>
5.57

>  <5-HT1D>
5.88

>  <5-HT1E>
5

>  <5-HT3>
5

>  <5-HT5>
5

>  <5-HT6>
5

>  <5-HT7>
6.44

>  <Alpha-1A>
5.11

>  <Alpha-1B>
5

>  <Alpha-2A>
5.42

>  <Alpha-2B>
5.75

>  <Alpha-2C>
6.08

>  <Beta-1>
5

>  <Beta-2>
5

>  <DOPAMINE D1>
5

>  <DOPAMINE D2>
5

>  <DOPAMINE D4>
5

>  <DOPAMINE D5>
5

>  <Dopamine transporter>
5

>  <HISTAMINE H1>
5

>  <HISTAMINE H2>
5

>  <Muscarinic acetylcholine receptor M1>
5.42

>  <Muscarinic acetylcholine receptor M2>
5.24

>  <Muscarinic acetylcholine receptor M3>
6.04

>  <Muscarinic acetylcholine receptor M4>
5.31

>  <Muscarinic acetylcholine receptor M5>
5.78

>  <Norepinephrine transporter>
5

>  <Serotonin transporter>
5

$$$$
NORTRYPTYLINE
  Marvin  02231216192D 0   1.00000     0.00000     0

 20 22  0  0  0  0  0  0  0  0999 V2000
    0.9332    1.7261    0.0000 N   0  0  0  0  0  0  0  0  0
    1.6477    1.3136    0.0000 C   0  0  0  0  0  0  0  0  0
    2.3622    1.7261    0.0000 C   0  0  0  0  0  0  0  0  0
    3.0767    1.3136    0.0000 C   0  0  0  0  0  0  0  0  0
    3.0767    0.4886    0.0000 C   0  0  0  0  0  0  0  0  0
    3.8200    0.1307    0.0000 C   0  0  0  0  0  0  0  0  0
    4.0035   -0.6736    0.0000 C   0  0  0  0  0  0  0  0  0
    3.4892   -1.3186    0.0000 C   0  0  0  0  0  0  0  0  0
    2.6642   -1.3186    0.0000 C   0  0  0  0  0  0  0  0  0
    2.1498   -0.6736    0.0000 C   0  0  0  0  0  0  0  0  0
    2.3334    0.1307    0.0000 C   0  0  0  0  0  0  0  0  0
    1.7286    0.6918    0.0000 C   0  0  0  0  0  0  0  0  0
    0.9402    0.4487    0.0000 C   0  0  0  0  0  0  0  0  0
    0.7567   -0.3557    0.0000 C   0  0  0  0  0  0  0  0  0
    1.3614   -0.9168    0.0000 C   0  0  0  0  0  0  0  0  0
    4.7919   -0.9168    0.0000 C   0  0  0  0  0  0  0  0  0
    5.3966   -0.3557    0.0000 C   0  0  0  0  0  0  0  0  0
    5.2131    0.4487    0.0000 C   0  0  0  0  0  0  0  0  0
    4.4247    0.6918    0.0000 C   0  0  0  0  0  0  0  0  0
    0.2188    1.3136    0.0000 C   0  0  0  0  0  0  0  0  0
  1  2  1  0  0  0  0
  1 20  1  0  0  0  0
  2  3  1  0  0  0  0
  3  4  1  0  0  0  0
  4  5  2  0  0  0  0
  5  6  1  0  0  0  0
  5 11  1  0  0  0  0
  6  7  4  0  0  0  0
  6 19  4  0  0  0  0
  7  8  1  0  0  0  0
  7 16  4  0  0  0  0
  8  9  1  0  0  0  0
  9 10  1  0  0  0  0
 10 11  4  0  0  0  0
 10 15  4  0  0  0  0
 11 12  4  0  0  0  0
 12 13  4  0  0  0  0
 13 14  4  0  0  0  0
 14 15  4  0  0  0  0
 16 17  4  0  0  0  0
 17 18  4  0  0  0  0
 18 19  4  0  0  0  0
M  END
>  <Name_Molregno>
NORTRYPTYLINE

>  <5-HT1A>
6.53

>  <DOPAMINE D2>
5.59

>  <Dopamine transporter>
5.72

>  <HISTAMINE H1>
8.03

>  <Muscarinic acetylcholine receptor M1>
7.4

>  <Muscarinic acetylcholine receptor M2>
6.96

>  <Muscarinic acetylcholine receptor M3>
7.3

>  <Muscarinic acetylcholine receptor M4>
7.08

>  <Muscarinic acetylcholine receptor M5>
7.01

>  <Norepinephrine transporter>
8.34

>  <Serotonin transporter>
7.27

$$$$
OLANZAPINE
  Marvin  02231216192D 0   1.00000     0.00000     0

 22 25  0  0  0  0  0  0  0  0999 V2000
   -1.5954    3.4952    0.0000 S   0  0  0  0  0  0  0  0  0
   -0.8919    3.0642    0.0000 C   0  0  0  0  0  0  0  0  0
   -0.1447    3.4138    0.0000 N   0  0  0  0  0  0  0  0  0
    0.5946    3.0476    0.0000 C   0  0  0  0  0  0  0  0  0
    0.7691    2.2413    0.0000 C   0  0  0  0  0  0  0  0  0
    0.2476    1.6020    0.0000 N   0  0  0  0  0  0  0  0  0
   -0.5774    1.6113    0.0000 C   0  0  0  0  0  0  0  0  0
   -0.9436    0.8720    0.0000 N   0  0  0  0  0  0  0  0  0
   -0.4865    0.1852    0.0000 C   0  0  0  0  0  0  0  0  0
   -0.8527   -0.5540    0.0000 C   0  0  0  0  0  0  0  0  0
   -1.6761   -0.6065    0.0000 N   0  0  0  0  0  0  0  0  0
   -2.1332    0.0803    0.0000 C   0  0  0  0  0  0  0  0  0
   -1.7669    0.8196    0.0000 C   0  0  0  0  0  0  0  0  0
   -2.0423   -1.3458    0.0000 C   0  0  0  0  0  0  0  0  0
   -1.0845    2.2620    0.0000 C   0  0  0  0  0  0  0  0  0
   -1.9069    2.1972    0.0000 C   0  0  0  0  0  0  0  0  0
   -2.2227    2.9594    0.0000 C   0  0  0  0  0  0  0  0  0
   -3.0249    3.1520    0.0000 C   0  0  0  0  0  0  0  0  0
    1.5547    1.9893    0.0000 C   0  0  0  0  0  0  0  0  0
    2.1657    2.5436    0.0000 C   0  0  0  0  0  0  0  0  0
    1.9912    3.3499    0.0000 C   0  0  0  0  0  0  0  0  0
    1.2056    3.6019    0.0000 C   0  0  0  0  0  0  0  0  0
  1  2  1  0  0  0  0
  1 17  1  0  0  0  0
  2  3  2  0  0  0  0
  2 15  1  0  0  0  0
  3  4  1  0  0  0  0
  4  5  4  0  0  0  0
  4 22  4  0  0  0  0
  5  6  1  0  0  0  0
  5 19  4  0  0  0  0
  6  7  1  0  0  0  0
  7  8  1  0  0  0  0
  7 15  2  0  0  0  0
  8  9  1  0  0  0  0
  8 13  1  0  0  0  0
  9 10  1  0  0  0  0
 10 11  1  0  0  0  0
 11 12  1  0  0  0  0
 11 14  1  0  0  0  0
 12 13  1  0  0  0  0
 15 16  1  0  0  0  0
 16 17  2  0  0  0  0
 17 18  1  0  0  0  0
 19 20  4  0  0  0  0
 20 21  4  0  0  0  0
 21 22  4  0  0  0  0
M  END
>  <Name_Molregno>
OLANZAPINE

>  <5-HT1A>
5.77

>  <5-HT1B>
6.23

>  <5-HT1D>
6.3

>  <5-HT1E>
5.66

>  <5-HT2A>
8.46

>  <5-HT2C>
7.86

>  <5-HT3>
6.69

>  <5-HT5>
5.92

>  <5-HT6>
7.97

>  <5-HT7>
6.73

>  <Alpha-1A>
6.95

>  <Alpha-1B>
6.58

>  <Alpha-2A>
6.51

>  <Alpha-2B>
6.97

>  <Alpha-2C>
7.21

>  <Beta-1>
5.15

>  <Beta-2>
5.15

>  <DOPAMINE D1>
7.3

>  <DOPAMINE D2>
7.67

>  <DOPAMINE D3>
7.53

>  <DOPAMINE D4>
7.73

>  <DOPAMINE D5>
7.09

>  <Dopamine transporter>
5

>  <HISTAMINE H1>
8.96

>  <HISTAMINE H2>
7.36

>  <HISTAMINE H4>
5

>  <Muscarinic acetylcholine receptor M1>
7.99

>  <Muscarinic acetylcholine receptor M2>
6.93

>  <Muscarinic acetylcholine receptor M3>
7.33

>  <Muscarinic acetylcholine receptor M4>
7.35

>  <Muscarinic acetylcholine receptor M5>
7.78

>  <Norepinephrine transporter>
5

>  <Serotonin transporter>
5.48

$$$$
OLANZAPINE-2
  Marvin  02231216192D 0   1.00000     0.00000     0

 22 25  0  0  0  0  0  0  0  0999 V2000
   -1.5954    3.4952    0.0000 S   0  0  0  0  0  0  0  0  0
   -0.8919    3.0642    0.0000 C   0  0  0  0  0  0  0  0  0
   -0.1447    3.4138    0.0000 N   0  0  0  0  0  0  0  0  0
    0.5946    3.0476    0.0000 C   0  0  0  0  0  0  0  0  0
    0.7691    2.2413    0.0000 C   0  0  0  0  0  0  0  0  0
    0.2476    1.6020    0.0000 N   0  0  0  0  0  0  0  0  0
   -0.5774    1.6113    0.0000 C   0  0  0  0  0  0  0  0  0
   -0.9436    0.8720    0.0000 N   0  0  0  0  0  0  0  0  0
   -0.4865    0.1852    0.0000 C   0  0  0  0  0  0  0  0  0
   -0.8527   -0.5540    0.0000 C   0  0  0  0  0  0  0  0  0
   -1.6761   -0.6065    0.0000 N   0  0  0  0  0  0  0  0  0
   -2.1332    0.0803    0.0000 C   0  0  0  0  0  0  0  0  0
   -1.7669    0.8196    0.0000 C   0  0  0  0  0  0  0  0  0
   -2.0423   -1.3458    0.0000 C   0  0  0  0  0  0  0  0  0
   -1.0845    2.2620    0.0000 C   0  0  0  0  0  0  0  0  0
   -1.9069    2.1972    0.0000 C   0  0  0  0  0  0  0  0  0
   -2.2227    2.9594    0.0000 C   0  0  0  0  0  0  0  0  0
   -3.0249    3.1520    0.0000 C   0  0  0  0  0  0  0  0  0
    1.5547    1.9893    0.0000 C   0  0  0  0  0  0  0  0  0
    2.1657    2.5436    0.0000 C   0  0  0  0  0  0  0  0  0
    1.9912    3.3499    0.0000 C   0  0  0  0  0  0  0  0  0
    1.2056    3.6019    0.0000 C   0  0  0  0  0  0  0  0  0
  1  2  4  0  0  0  0
  1 17  4  0  0  0  0
  2  3  1  0  0  0  0
  2 15  4  0  0  0  0
  3  4  1  0  0  0  0
  4  5  4  0  0  0  0
  4 22  4  0  0  0  0
  5  6  1  0  0  0  0
  5 19  4  0  0  0  0
  6  7  2  0  0  0  0
  7  8  1  0  0  0  0
  7 15  1  0  0  0  0
  8  9  1  0  0  0  0
  8 13  1  0  0  0  0
  9 10  1  0  0  0  0
 10 11  1  0  0  0  0
 11 12  1  0  0  0  0
 11 14  1  0  0  0  0
 12 13  1  0  0  0  0
 15 16  4  0  0  0  0
 16 17  4  0  0  0  0
 17 18  1  0  0  0  0
 19 20  4  0  0  0  0
 20 21  4  0  0  0  0
 21 22  4  0  0  0  0
M  END
>  <Name_Molregno>
OLANZAPINE-2

>  <5-HT1A>
5.68

>  <5-HT2A>
8.66

>  <5-HT2C>
8.05

>  <5-HT3>
6.7

>  <5-HT6>
7.8

>  <5-HT7>
6.77

>  <Alpha-2A>
6.72

>  <Alpha-2C>
7.09

>  <DOPAMINE D1>
7.28

>  <DOPAMINE D2>
7.63

>  <DOPAMINE D3>
7.47

>  <DOPAMINE D4>
7.3

>  <HISTAMINE H1>
8.74

>  <Muscarinic acetylcholine receptor M1>
8.16

>  <Muscarinic acetylcholine receptor M4>
7.9

>  <Serotonin transporter>
4.82

$$$$
ORG-5222
  Marvin  02231216192D 0   1.00000     0.00000     0

 20 23  0  0  1  0  0  0  0  0999 V2000
   -0.0754   -0.1702    0.0000 Cl  0  0  0  0  0  0  0  0  0
    0.7129   -0.4133    0.0000 C   0  0  0  0  0  0  0  0  0
    1.3177    0.1478    0.0000 C   0  0  0  0  0  0  0  0  0
    2.1060   -0.0954    0.0000 C   0  0  0  0  0  0  0  0  0
    2.6204    0.5496    0.0000 C   0  0  0  0  0  0  0  0  0
    3.4454    0.5496    0.0000 C   0  0  0  0  0  0  0  0  0
    3.9598   -0.0954    0.0000 C   0  0  0  0  0  0  0  0  0
    3.7762   -0.8997    0.0000 C   0  0  0  0  0  0  0  0  0
    3.0329   -1.2576    0.0000 O   0  0  0  0  0  0  0  0  0
    2.2896   -0.8997    0.0000 C   0  0  0  0  0  0  0  0  0
    1.6849   -1.4608    0.0000 C   0  0  0  0  0  0  0  0  0
    0.8965   -1.2176    0.0000 C   0  0  0  0  0  0  0  0  0
    4.3810   -1.4608    0.0000 C   0  0  0  0  0  0  0  0  0
    5.1693   -1.2176    0.0000 C   0  0  0  0  0  0  0  0  0
    5.3529   -0.4133    0.0000 C   0  0  0  0  0  0  0  0  0
    4.7482    0.1478    0.0000 C   0  0  0  0  0  0  0  0  0
    3.7004    1.3343    0.0000 C   0  0  0  0  0  0  0  0  0
    3.0329    1.8192    0.0000 N   0  0  0  0  0  0  0  0  0
    2.3655    1.3343    0.0000 C   0  0  0  0  0  0  0  0  0
    3.0329    2.6442    0.0000 C   0  0  0  0  0  0  0  0  0
  1  2  1  0  0  0  0
  2  3  4  0  0  0  0
  2 12  4  0  0  0  0
  3  4  4  0  0  0  0
  4  5  1  0  0  0  0
  4 10  4  0  0  0  0
  5  6  1  0  0  0  0
  5 19  1  0  0  0  0
  6  7  1  0  0  0  0
  6 17  1  0  0  0  0
  7  8  4  0  0  0  0
  7 16  4  0  0  0  0
  8  9  1  0  0  0  0
  8 13  4  0  0  0  0
  9 10  1  0  0  0  0
 10 11  4  0  0  0  0
 11 12  4  0  0  0  0
 13 14  4  0  0  0  0
 14 15  4  0  0  0  0
 15 16  4  0  0  0  0
 17 18  1  0  0  0  0
 18 19  1  0  0  0  0
 18 20  1  0  0  0  0
M  END
>  <Name_Molregno>
ORG-5222

>  <5-HT1A>
7.7

>  <5-HT1B>
8.34

>  <5-HT1D>
8.07

>  <5-HT1E>
7.69

>  <5-HT2A>
9.41

>  <5-HT2C>
9.63

>  <5-HT3>
6.35

>  <5-HT5>
8.4

>  <5-HT6>
8.85

>  <5-HT7>
9.05

>  <Alpha-1A>
8.36

>  <Alpha-1B>
8.41

>  <Alpha-2A>
8.08

>  <Alpha-2B>
8.64

>  <Alpha-2C>
7.82

>  <Beta-1>
5.3

>  <Beta-2>
5.3

>  <DOPAMINE D1>
8.54

>  <DOPAMINE D2>
8.72

>  <DOPAMINE D3>
8.74

>  <DOPAMINE D4>
8.58

>  <DOPAMINE D5>
7.64

>  <Dopamine transporter>
5.5

>  <HISTAMINE H1>
8.91

>  <HISTAMINE H2>
8.64

>  <HISTAMINE H4>
5

>  <Muscarinic acetylcholine receptor M1>
7.61

>  <Muscarinic acetylcholine receptor M2>
7.1

>  <Muscarinic acetylcholine receptor M3>
7.41

>  <Muscarinic acetylcholine receptor M4>
5

>  <Muscarinic acetylcholine receptor M5>
8.02

>  <Norepinephrine transporter>
5

>  <Serotonin transporter>
5.5

$$$$
Orphenadrine
  Marvin  02231216192D 0   1.00000     0.00000     0

 20 21  0  0  1  0  0  0  0  0999 V2000
    0.9195    0.0167    0.0000 O   0  0  0  0  0  0  0  0  0
    0.2050   -0.3958    0.0000 C   0  0  0  0  0  0  0  0  0
   -0.5095    0.0167    0.0000 C   0  0  0  0  0  0  0  0  0
   -1.2239   -0.3958    0.0000 C   0  0  0  0  0  0  0  0  0
   -1.9384    0.0167    0.0000 C   0  0  0  0  0  0  0  0  0
   -1.9384    0.8417    0.0000 C   0  0  0  0  0  0  0  0  0
   -1.2239    1.2542    0.0000 C   0  0  0  0  0  0  0  0  0
   -0.5095    0.8417    0.0000 C   0  0  0  0  0  0  0  0  0
    0.2050    1.2542    0.0000 C   0  0  0  0  0  0  0  0  0
    0.2050   -1.2208    0.0000 C   0  0  0  0  0  0  0  0  0
    0.9195   -1.6333    0.0000 C   0  0  0  0  0  0  0  0  0
    0.9195   -2.4583    0.0000 C   0  0  0  0  0  0  0  0  0
    0.2050   -2.8708    0.0000 C   0  0  0  0  0  0  0  0  0
   -0.5095   -2.4583    0.0000 C   0  0  0  0  0  0  0  0  0
   -0.5095   -1.6333    0.0000 C   0  0  0  0  0  0  0  0  0
    1.6339   -0.3958    0.0000 C   0  0  0  0  0  0  0  0  0
    2.3484    0.0167    0.0000 C   0  0  0  0  0  0  0  0  0
    3.0629   -0.3958    0.0000 N   0  0  0  0  0  0  0  0  0
    3.7774    0.0167    0.0000 C   0  0  0  0  0  0  0  0  0
    3.0629   -1.2208    0.0000 C   0  0  0  0  0  0  0  0  0
  1  2  1  0  0  0  0
  1 16  1  0  0  0  0
  2  3  1  0  0  0  0
  2 10  1  0  0  0  0
  3  4  4  0  0  0  0
  3  8  4  0  0  0  0
  4  5  4  0  0  0  0
  5  6  4  0  0  0  0
  6  7  4  0  0  0  0
  7  8  4  0  0  0  0
  8  9  1  0  0  0  0
 10 11  4  0  0  0  0
 10 15  4  0  0  0  0
 11 12  4  0  0  0  0
 12 13  4  0  0  0  0
 13 14  4  0  0  0  0
 14 15  4  0  0  0  0
 16 17  1  0  0  0  0
 17 18  1  0  0  0  0
 18 19  1  0  0  0  0
 18 20  1  0  0  0  0
M  END
>  <Name_Molregno>
Orphenadrine

>  <Muscarinic acetylcholine receptor M1>
7.32

>  <Muscarinic acetylcholine receptor M2>
6.67

>  <Muscarinic acetylcholine receptor M3>
6.92

>  <Muscarinic acetylcholine receptor M4>
6.77

>  <Muscarinic acetylcholine receptor M5>
6.89

$$$$
PAROXETINE
  Marvin  02231216192D 0   1.00000     0.00000     0

 24 27  0  0  1  0  0  0  0  0999 V2000
   -1.1156    1.2820    0.0000 F   0  0  0  0  0  0  0  0  0
   -1.1156    0.4570    0.0000 C   0  0  0  0  0  0  0  0  0
   -0.4011    0.0445    0.0000 C   0  0  0  0  0  0  0  0  0
   -0.4011   -0.7805    0.0000 C   0  0  0  0  0  0  0  0  0
   -1.1156   -1.1930    0.0000 C   0  0  0  0  0  0  0  0  0
   -1.8301   -0.7805    0.0000 C   0  0  0  0  0  0  0  0  0
   -1.8301    0.0445    0.0000 C   0  0  0  0  0  0  0  0  0
   -1.1156   -2.0180    0.0000 C   0  0  0  0  0  0  0  0  0
   -0.4011   -2.4305    0.0000 C   0  0  0  0  0  0  0  0  0
   -0.4011   -3.2555    0.0000 C   0  0  0  0  0  0  0  0  0
   -1.1156   -3.6680    0.0000 N   0  0  0  0  0  0  0  0  0
   -1.8301   -3.2555    0.0000 C   0  0  0  0  0  0  0  0  0
   -1.8301   -2.4305    0.0000 C   0  0  0  0  0  0  0  0  0
   -2.5445   -2.0180    0.0000 C   0  0  0  0  0  0  0  0  0
   -3.2590   -2.4305    0.0000 O   0  0  0  0  0  0  0  0  0
   -3.9735   -2.0180    0.0000 C   0  0  0  0  0  0  0  0  0
   -4.6880   -2.4305    0.0000 C   0  0  0  0  0  0  0  0  0
   -5.4024   -2.0180    0.0000 C   0  0  0  0  0  0  0  0  0
   -6.1870   -2.2729    0.0000 O   0  0  0  0  0  0  0  0  0
   -6.6720   -1.6055    0.0000 C   0  0  0  0  0  0  0  0  0
   -6.1870   -0.9380    0.0000 O   0  0  0  0  0  0  0  0  0
   -5.4024   -1.1930    0.0000 C   0  0  0  0  0  0  0  0  0
   -4.6880   -0.7805    0.0000 C   0  0  0  0  0  0  0  0  0
   -3.9735   -1.1930    0.0000 C   0  0  0  0  0  0  0  0  0
  1  2  1  0  0  0  0
  2  3  4  0  0  0  0
  2  7  4  0  0  0  0
  3  4  4  0  0  0  0
  4  5  4  0  0  0  0
  5  6  4  0  0  0  0
  5  8  1  0  0  0  0
  6  7  4  0  0  0  0
  8  9  1  0  0  0  0
  8 13  1  0  0  0  0
  9 10  1  0  0  0  0
 10 11  1  0  0  0  0
 11 12  1  0  0  0  0
 12 13  1  0  0  0  0
 13 14  1  0  0  0  0
 14 15  1  0  0  0  0
 15 16  1  0  0  0  0
 16 17  4  0  0  0  0
 16 24  4  0  0  0  0
 17 18  4  0  0  0  0
 18 19  1  0  0  0  0
 18 22  4  0  0  0  0
 19 20  1  0  0  0  0
 20 21  1  0  0  0  0
 21 22  1  0  0  0  0
 22 23  4  0  0  0  0
 23 24  4  0  0  0  0
M  END
>  <Name_Molregno>
PAROXETINE

>  <5-HT1A>
5

>  <5-HT2A>
5

>  <5-HT2C>
5

>  <DOPAMINE D2>
5

>  <Dopamine transporter>
6.33

>  <HISTAMINE H1>
5

>  <Muscarinic acetylcholine receptor M1>
6.83

>  <Muscarinic acetylcholine receptor M2>
6.47

>  <Muscarinic acetylcholine receptor M3>
7.1

>  <Muscarinic acetylcholine receptor M4>
6.49

>  <Muscarinic acetylcholine receptor M5>
6.19

>  <Norepinephrine transporter>
7.03

>  <Serotonin transporter>
9.7

$$$$
p-F-HHSiD
  Marvin  02231216192D 0   1.00000     0.00000     0

 61 64  0  0  1  0  0  0  0  0999 V2000
   12.2402   -0.7177    0.0000 O   0  0  0  0  0  0  0  0  0
   11.4876   -0.3798    0.0000 C   0  0  0  0  0  0  0  0  0
   10.8186   -0.8626    0.0000 O   0  0  0  0  0  0  0  0  0
   11.4040    0.4410    0.0000 C   0  0  0  0  0  0  0  0  0
   10.6514    0.7789    0.0000 N   0  0  0  0  0  0  0  0  0
    9.9824    0.2961    0.0000 C   0  0  0  0  0  0  0  0  0
   10.0660   -0.5246    0.0000 O   0  0  0  0  0  0  0  0  0
    9.2298    0.6341    0.0000 C   0  0  0  0  0  0  0  0  0
    8.5608    0.1513    0.0000 N   0  0  0  0  0  0  0  0  0
    7.8082    0.4892    0.0000 C   0  0  0  0  0  0  0  0  0
    7.7246    1.3100    0.0000 O   0  0  0  0  0  0  0  0  0
    7.1392    0.0064    0.0000 C   0  0  0  0  0  0  0  0  0
    6.3866    0.3444    0.0000 N   0  0  0  0  0  0  0  0  0
    5.7177   -0.1384    0.0000 C   0  0  0  0  0  0  0  0  0
    5.8013   -0.9591    0.0000 O   0  0  0  0  0  0  0  0  0
    4.9651    0.1996    0.0000 C   0  0  0  0  0  0  0  0  0
    4.2961   -0.2832    0.0000 N   0  0  0  0  0  0  0  0  0
    3.5435    0.0547    0.0000 C   0  0  0  0  0  0  0  0  0
    3.4599    0.8755    0.0000 O   0  0  0  0  0  0  0  0  0
    2.8745   -0.4281    0.0000 C   0  0  0  0  0  0  0  0  0
    2.1219   -0.0901    0.0000 N   0  0  0  0  0  0  0  0  0
    1.4529   -0.5729    0.0000 C   0  0  0  0  0  0  0  0  0
    1.5365   -1.3937    0.0000 O   0  0  0  0  0  0  0  0  0
    0.7003   -0.2350    0.0000 C   0  0  0  0  0  0  0  0  0
    0.6167    0.5858    0.0000 N   0  0  0  0  0  0  0  0  0
    1.2857    1.0686    0.0000 C   0  0  0  0  0  0  0  0  0
    2.0383    0.7306    0.0000 O   0  0  0  0  0  0  0  0  0
    1.2020    1.8893    0.0000 C   0  0  0  0  0  0  0  0  0
    1.8169    2.4394    0.0000 N   0  0  0  0  0  0  0  0  0
    1.4837    3.1942    0.0000 C   0  0  0  0  0  0  0  0  0
    0.6630    3.1105    0.0000 C   0  0  0  0  0  0  0  0  0
    0.4889    2.3041    0.0000 C   0  0  0  0  0  0  0  0  0
    0.0313   -0.7177    0.0000 C   0  0  0  0  0  0  0  0  0
   -0.7213   -0.3798    0.0000 C   0  0  0  0  0  0  0  0  0
   -1.3903   -0.8626    0.0000 C   0  0  0  0  0  0  0  0  0
   -2.1429   -0.5246    0.0000 C   0  0  0  0  0  0  0  0  0
   -2.2265    0.2961    0.0000 C   0  0  0  0  0  0  0  0  0
   -1.5575    0.7789    0.0000 C   0  0  0  0  0  0  0  0  0
   -0.8049    0.4410    0.0000 C   0  0  0  0  0  0  0  0  0
    2.9581   -1.2488    0.0000 C   0  0  0  0  0  0  0  0  0
    3.7107   -1.5868    0.0000 C   0  0  0  0  0  0  0  0  0
    4.4265   -1.1766    0.0000 N   0  0  0  0  0  0  0  0  0
    5.0378   -1.7305    0.0000 C   0  0  0  0  0  0  0  0  0
    4.6999   -2.4831    0.0000 N   0  0  0  0  0  0  0  0  0
    3.8797   -2.3943    0.0000 C   0  0  0  0  0  0  0  0  0
    4.8814    1.0203    0.0000 C   0  0  0  0  0  0  0  0  0
    5.5504    1.5031    0.0000 C   0  0  0  0  0  0  0  0  0
    5.5530    2.3281    0.0000 N   0  0  0  0  0  0  0  0  0
    6.3385    2.5805    0.0000 C   0  0  0  0  0  0  0  0  0
    6.8213    1.9116    0.0000 N   0  0  0  0  0  0  0  0  0
    6.3342    1.2457    0.0000 C   0  0  0  0  0  0  0  0  0
    7.2229   -0.8143    0.0000 C   0  0  0  0  0  0  0  0  0
    7.9755   -1.1523    0.0000 O   0  0  0  0  0  0  0  0  0
    9.1462    1.4548    0.0000 C   0  0  0  0  0  0  0  0  0
    8.3936    1.7928    0.0000 C   0  0  0  0  0  0  0  0  0
    8.3100    2.6135    0.0000 C   0  0  0  0  0  0  0  0  0
    9.8152    1.9376    0.0000 C   0  0  0  0  0  0  0  0  0
   12.0730    0.9238    0.0000 C   0  0  0  0  0  0  0  0  0
   12.8256    0.5858    0.0000 C   0  0  0  0  0  0  0  0  0
   13.4946    1.0686    0.0000 O   0  0  0  0  0  0  0  0  0
   12.9092   -0.2350    0.0000 O   0  0  0  0  0  0  0  0  0
  1  2  1  0  0  0  0
  2  3  2  0  0  0  0
  2  4  1  0  0  0  0
  4  5  1  0  0  0  0
  4 58  1  0  0  0  0
  5  6  1  0  0  0  0
  6  7  2  0  0  0  0
  6  8  1  0  0  0  0
  8  9  1  0  0  0  0
  8 54  1  0  0  0  0
  9 10  1  0  0  0  0
 10 11  2  0  0  0  0
 10 12  1  0  0  0  0
 12 13  1  0  0  0  0
 12 52  1  0  0  0  0
 13 14  1  0  0  0  0
 14 15  2  0  0  0  0
 14 16  1  0  0  0  0
 16 17  1  0  0  0  0
 16 46  1  0  0  0  0
 17 18  1  0  0  0  0
 18 19  2  0  0  0  0
 18 20  1  0  0  0  0
 20 21  1  0  0  0  0
 20 40  1  0  0  0  0
 21 22  1  0  0  0  0
 22 23  2  0  0  0  0
 22 24  1  0  0  0  0
 24 25  1  0  0  0  0
 24 33  1  0  0  0  0
 25 26  1  0  0  0  0
 26 27  2  0  0  0  0
 26 28  1  0  0  0  0
 28 29  1  0  0  0  0
 28 32  1  0  0  0  0
 29 30  1  0  0  0  0
 30 31  1  0  0  0  0
 31 32  1  0  0  0  0
 33 34  1  0  0  0  0
 34 35  4  0  0  0  0
 34 39  4  0  0  0  0
 35 36  4  0  0  0  0
 36 37  4  0  0  0  0
 37 38  4  0  0  0  0
 38 39  4  0  0  0  0
 40 41  1  0  0  0  0
 41 42  4  0  0  0  0
 41 45  4  0  0  0  0
 42 43  4  0  0  0  0
 43 44  4  0  0  0  0
 44 45  4  0  0  0  0
 46 47  1  0  0  0  0
 47 48  4  0  0  0  0
 47 51  4  0  0  0  0
 48 49  4  0  0  0  0
 49 50  4  0  0  0  0
 50 51  4  0  0  0  0
 52 53  1  0  0  0  0
 54 55  1  0  0  0  0
 54 57  1  0  0  0  0
 55 56  1  0  0  0  0
 58 59  1  0  0  0  0
 59 60  1  0  0  0  0
 59 61  2  0  0  0  0
M  STY  2   1 DAT   2 DAT
M  SAL   1  1  42
M  SDT   1 MRV_IMPLICIT_H                                        
M  SDD   1     0.0000    0.0000    DR    ALL  0       0  
M  SED   1 IMPL_H1
M  SAL   2  1  48
M  SDT   2 MRV_IMPLICIT_H                                        
M  SDD   2     0.0000    0.0000    DR    ALL  0       0  
M  SED   2 IMPL_H1
M  END
>  <Name_Molregno>
p-F-HHSiD

>  <Muscarinic acetylcholine receptor M1>
7.67

>  <Muscarinic acetylcholine receptor M2>
6.89

>  <Muscarinic acetylcholine receptor M3>
7.81

>  <Muscarinic acetylcholine receptor M4>
7.5

>  <Muscarinic acetylcholine receptor M5>
7.03

$$$$
Procyclidine
  Marvin  02231216192D 0   1.00000     0.00000     0

 21 23  0  0  1  0  0  0  0  0999 V2000
   -1.7330   -0.7423    0.0000 O   0  0  0  0  0  0  0  0  0
   -0.9080   -0.7423    0.0000 C   0  0  0  0  0  0  0  0  0
   -0.9080   -1.5673    0.0000 C   0  0  0  0  0  0  0  0  0
   -0.1935   -1.9798    0.0000 C   0  0  0  0  0  0  0  0  0
   -0.1935   -2.8048    0.0000 N   0  0  0  0  0  0  0  0  0
    0.4739   -3.2897    0.0000 C   0  0  0  0  0  0  0  0  0
    0.2190   -4.0743    0.0000 C   0  0  0  0  0  0  0  0  0
   -0.6060   -4.0743    0.0000 C   0  0  0  0  0  0  0  0  0
   -0.8610   -3.2897    0.0000 C   0  0  0  0  0  0  0  0  0
   -0.9080    0.0827    0.0000 C   0  0  0  0  0  0  0  0  0
   -1.6225    0.4952    0.0000 C   0  0  0  0  0  0  0  0  0
   -1.6225    1.3202    0.0000 C   0  0  0  0  0  0  0  0  0
   -0.9080    1.7327    0.0000 C   0  0  0  0  0  0  0  0  0
   -0.1935    1.3202    0.0000 C   0  0  0  0  0  0  0  0  0
   -0.1935    0.4952    0.0000 C   0  0  0  0  0  0  0  0  0
   -0.0830   -0.7423    0.0000 C   0  0  0  0  0  0  0  0  0
    0.3295   -0.0278    0.0000 C   0  0  0  0  0  0  0  0  0
    1.1545   -0.0278    0.0000 C   0  0  0  0  0  0  0  0  0
    1.5670   -0.7423    0.0000 C   0  0  0  0  0  0  0  0  0
    1.1545   -1.4567    0.0000 C   0  0  0  0  0  0  0  0  0
    0.3295   -1.4567    0.0000 C   0  0  0  0  0  0  0  0  0
  1  2  1  0  0  0  0
  2  3  1  0  0  0  0
  2 10  1  0  0  0  0
  2 16  1  0  0  0  0
  3  4  1  0  0  0  0
  4  5  1  0  0  0  0
  5  6  1  0  0  0  0
  5  9  1  0  0  0  0
  6  7  1  0  0  0  0
  7  8  1  0  0  0  0
  8  9  1  0  0  0  0
 10 11  1  0  0  0  0
 10 15  1  0  0  0  0
 11 12  1  0  0  0  0
 12 13  1  0  0  0  0
 13 14  1  0  0  0  0
 14 15  1  0  0  0  0
 16 17  4  0  0  0  0
 16 21  4  0  0  0  0
 17 18  4  0  0  0  0
 18 19  4  0  0  0  0
 19 20  4  0  0  0  0
 20 21  4  0  0  0  0
M  END
>  <Name_Molregno>
Procyclidine

>  <Muscarinic acetylcholine receptor M1>
8.34

>  <Muscarinic acetylcholine receptor M2>
7.6

>  <Muscarinic acetylcholine receptor M3>
7.91

>  <Muscarinic acetylcholine receptor M4>
8.15

>  <Muscarinic acetylcholine receptor M5>
7.62

$$$$
Quercetin
  Marvin  02231216192D 0   1.00000     0.00000     0

 22 24  0  0  0  0  0  0  0  0999 V2000
    0.2617    0.1403    0.0000 O   0  0  0  0  0  0  0  0  0
    0.9762    0.5528    0.0000 C   0  0  0  0  0  0  0  0  0
    0.9762    1.3778    0.0000 C   0  0  0  0  0  0  0  0  0
    0.2617    1.7903    0.0000 C   0  0  0  0  0  0  0  0  0
    0.2617    2.6153    0.0000 O   0  0  0  0  0  0  0  0  0
   -0.4528    1.3778    0.0000 C   0  0  0  0  0  0  0  0  0
   -1.1672    1.7903    0.0000 O   0  0  0  0  0  0  0  0  0
   -0.4528    0.5528    0.0000 C   0  0  0  0  0  0  0  0  0
   -1.1672    0.1403    0.0000 C   0  0  0  0  0  0  0  0  0
   -1.1672   -0.6847    0.0000 C   0  0  0  0  0  0  0  0  0
   -1.8817   -1.0972    0.0000 C   0  0  0  0  0  0  0  0  0
   -1.8817   -1.9222    0.0000 O   0  0  0  0  0  0  0  0  0
   -2.5962   -0.6847    0.0000 C   0  0  0  0  0  0  0  0  0
   -3.3106   -1.0972    0.0000 O   0  0  0  0  0  0  0  0  0
   -2.5962    0.1403    0.0000 C   0  0  0  0  0  0  0  0  0
   -1.8817    0.5528    0.0000 C   0  0  0  0  0  0  0  0  0
    1.6907    1.7903    0.0000 C   0  0  0  0  0  0  0  0  0
    1.6907    2.6153    0.0000 O   0  0  0  0  0  0  0  0  0
    2.4051    1.3778    0.0000 C   0  0  0  0  0  0  0  0  0
    2.4051    0.5528    0.0000 C   0  0  0  0  0  0  0  0  0
    3.1196    0.1403    0.0000 O   0  0  0  0  0  0  0  0  0
    1.6907    0.1403    0.0000 C   0  0  0  0  0  0  0  0  0
  1  2  1  0  0  0  0
  1  8  1  0  0  0  0
  2  3  4  0  0  0  0
  2 22  4  0  0  0  0
  3  4  1  0  0  0  0
  3 17  4  0  0  0  0
  4  5  2  0  0  0  0
  4  6  1  0  0  0  0
  6  7  1  0  0  0  0
  6  8  2  0  0  0  0
  8  9  1  0  0  0  0
  9 10  4  0  0  0  0
  9 16  4  0  0  0  0
 10 11  4  0  0  0  0
 11 12  1  0  0  0  0
 11 13  4  0  0  0  0
 13 14  1  0  0  0  0
 13 15  4  0  0  0  0
 15 16  4  0  0  0  0
 17 18  1  0  0  0  0
 17 19  4  0  0  0  0
 19 20  4  0  0  0  0
 20 21  1  0  0  0  0
 20 22  4  0  0  0  0
M  END
>  <Name_Molregno>
Quercetin

>  <5-HT1A>
5

>  <5-HT1D>
5

>  <5-HT3>
5

>  <5-HT5>
5

>  <5-HT6>
5

>  <5-HT7>
5

>  <Alpha-1A>
5

>  <Alpha-1B>
5

>  <Alpha-2A>
5

>  <Alpha-2B>
5

>  <Alpha-2C>
5

>  <DOPAMINE D1>
5

>  <DOPAMINE D5>
5

>  <Muscarinic acetylcholine receptor M1>
5

>  <Muscarinic acetylcholine receptor M2>
5

>  <Muscarinic acetylcholine receptor M3>
5

>  <Muscarinic acetylcholine receptor M4>
5

>  <Muscarinic acetylcholine receptor M5>
5

>  <Norepinephrine transporter>
5

>  <Serotonin transporter>
5

$$$$
Quercitrin
  Marvin  02231216192D 0   1.00000     0.00000     0

 32 35  0  0  1  0  0  0  0  0999 V2000
    1.5011    1.5398    0.0000 O   0  0  0  0  0  0  0  0  0
    1.5011    2.3648    0.0000 C   0  0  0  0  0  0  0  0  0
    2.2156    2.7773    0.0000 C   0  0  0  0  0  0  0  0  0
    0.7866    2.7773    0.0000 C   0  0  0  0  0  0  0  0  0
    0.7866    3.6023    0.0000 O   0  0  0  0  0  0  0  0  0
    0.0722    2.3648    0.0000 C   0  0  0  0  0  0  0  0  0
   -0.6423    2.7773    0.0000 O   0  0  0  0  0  0  0  0  0
    0.0722    1.5398    0.0000 C   0  0  0  0  0  0  0  0  0
   -0.6423    1.1273    0.0000 O   0  0  0  0  0  0  0  0  0
    0.7866    1.1273    0.0000 C   0  0  0  0  0  0  0  0  0
    0.7866    0.3023    0.0000 O   0  0  0  0  0  0  0  0  0
    1.5011   -0.1102    0.0000 C   0  0  0  0  0  0  0  0  0
    1.5011   -0.9352    0.0000 C   0  0  0  0  0  0  0  0  0
    2.2156   -1.3477    0.0000 O   0  0  0  0  0  0  0  0  0
    2.9300   -0.9352    0.0000 C   0  0  0  0  0  0  0  0  0
    2.9300   -0.1102    0.0000 C   0  0  0  0  0  0  0  0  0
    2.2156    0.3023    0.0000 C   0  0  0  0  0  0  0  0  0
    2.2156    1.1273    0.0000 O   0  0  0  0  0  0  0  0  0
    3.6445    0.3023    0.0000 C   0  0  0  0  0  0  0  0  0
    3.6445    1.1273    0.0000 O   0  0  0  0  0  0  0  0  0
    4.3590   -0.1102    0.0000 C   0  0  0  0  0  0  0  0  0
    4.3590   -0.9352    0.0000 C   0  0  0  0  0  0  0  0  0
    5.0734   -1.3477    0.0000 O   0  0  0  0  0  0  0  0  0
    3.6445   -1.3477    0.0000 C   0  0  0  0  0  0  0  0  0
    0.7866   -1.3477    0.0000 C   0  0  0  0  0  0  0  0  0
    0.7866   -2.1727    0.0000 C   0  0  0  0  0  0  0  0  0
    0.0722   -2.5852    0.0000 C   0  0  0  0  0  0  0  0  0
    0.0722   -3.4102    0.0000 O   0  0  0  0  0  0  0  0  0
   -0.6423   -2.1727    0.0000 C   0  0  0  0  0  0  0  0  0
   -1.3568   -2.5852    0.0000 O   0  0  0  0  0  0  0  0  0
   -0.6423   -1.3477    0.0000 C   0  0  0  0  0  0  0  0  0
    0.0722   -0.9352    0.0000 C   0  0  0  0  0  0  0  0  0
  1  2  1  0  0  0  0
  1 10  1  0  0  0  0
  2  3  1  0  0  0  0
  2  4  1  0  0  0  0
  4  5  1  0  0  0  0
  4  6  1  0  0  0  0
  6  7  1  0  0  0  0
  6  8  1  0  0  0  0
  8  9  1  0  0  0  0
  8 10  1  0  0  0  0
 10 11  1  0  0  0  0
 11 12  1  0  0  0  0
 12 13  2  0  0  0  0
 12 17  1  0  0  0  0
 13 14  1  0  0  0  0
 13 25  1  0  0  0  0
 14 15  1  0  0  0  0
 15 16  1  0  0  0  0
 15 24  2  0  0  0  0
 16 17  2  0  0  0  0
 16 19  1  0  0  0  0
 17 18  1  0  0  0  0
 19 20  1  0  0  0  0
 19 21  2  0  0  0  0
 21 22  1  0  0  0  0
 22 23  2  0  0  0  0
 22 24  1  0  0  0  0
 25 26  4  0  0  0  0
 25 32  4  0  0  0  0
 26 27  4  0  0  0  0
 27 28  1  0  0  0  0
 27 29  4  0  0  0  0
 29 30  1  0  0  0  0
 29 31  4  0  0  0  0
 31 32  4  0  0  0  0
M  END
>  <Name_Molregno>
Quercitrin

>  <5-HT1A>
5

>  <5-HT1D>
5

>  <5-HT3>
5

>  <5-HT5>
5

>  <5-HT6>
5

>  <5-HT7>
5

>  <Alpha-1A>
5

>  <Alpha-1B>
5

>  <Alpha-2A>
5

>  <Alpha-2B>
5

>  <Alpha-2C>
5

>  <DOPAMINE D1>
5

>  <DOPAMINE D5>
5

>  <Muscarinic acetylcholine receptor M1>
5

>  <Muscarinic acetylcholine receptor M2>
5

>  <Muscarinic acetylcholine receptor M3>
5

>  <Muscarinic acetylcholine receptor M4>
5

>  <Muscarinic acetylcholine receptor M5>
5

>  <Norepinephrine transporter>
5

>  <Serotonin transporter>
5

$$$$
QUETIAPINE
  Marvin  02231216192D 0   1.00000     0.00000     0

 27 30  0  0  0  0  0  0  0  0999 V2000
    0.4015    1.2563    0.0000 S   0  0  0  0  0  0  0  0  0
    1.2173    1.3793    0.0000 C   0  0  0  0  0  0  0  0  0
    1.8221    0.8181    0.0000 C   0  0  0  0  0  0  0  0  0
    2.6104    1.0613    0.0000 C   0  0  0  0  0  0  0  0  0
    2.7940    1.8656    0.0000 C   0  0  0  0  0  0  0  0  0
    2.1892    2.4268    0.0000 C   0  0  0  0  0  0  0  0  0
    1.4009    2.1836    0.0000 C   0  0  0  0  0  0  0  0  0
    1.7604   -0.0046    0.0000 C   0  0  0  0  0  0  0  0  0
    1.0788   -0.4693    0.0000 N   0  0  0  0  0  0  0  0  0
    0.2904   -0.2261    0.0000 C   0  0  0  0  0  0  0  0  0
   -0.0110    0.5418    0.0000 C   0  0  0  0  0  0  0  0  0
   -0.8268    0.6648    0.0000 C   0  0  0  0  0  0  0  0  0
   -1.3412    0.0198    0.0000 C   0  0  0  0  0  0  0  0  0
   -1.0398   -0.7482    0.0000 C   0  0  0  0  0  0  0  0  0
   -0.2240   -0.8711    0.0000 C   0  0  0  0  0  0  0  0  0
    2.4749   -0.4171    0.0000 N   0  0  0  0  0  0  0  0  0
    3.1893   -0.0046    0.0000 C   0  0  0  0  0  0  0  0  0
    3.9038   -0.4171    0.0000 C   0  0  0  0  0  0  0  0  0
    3.9038   -1.2421    0.0000 N   0  0  0  0  0  0  0  0  0
    3.1893   -1.6546    0.0000 C   0  0  0  0  0  0  0  0  0
    2.4749   -1.2421    0.0000 C   0  0  0  0  0  0  0  0  0
    4.6183   -1.6546    0.0000 C   0  0  0  0  0  0  0  0  0
    5.3328   -1.2421    0.0000 C   0  0  0  0  0  0  0  0  0
    6.0472   -1.6546    0.0000 O   0  0  0  0  0  0  0  0  0
    6.7617   -1.2421    0.0000 C   0  0  0  0  0  0  0  0  0
    7.4762   -1.6546    0.0000 C   0  0  0  0  0  0  0  0  0
    8.1906   -1.2421    0.0000 O   0  0  0  0  0  0  0  0  0
  1  2  1  0  0  0  0
  1 11  1  0  0  0  0
  2  3  4  0  0  0  0
  2  7  4  0  0  0  0
  3  4  4  0  0  0  0
  3  8  1  0  0  0  0
  4  5  4  0  0  0  0
  5  6  4  0  0  0  0
  6  7  4  0  0  0  0
  8  9  2  0  0  0  0
  8 16  1  0  0  0  0
  9 10  1  0  0  0  0
 10 11  4  0  0  0  0
 10 15  4  0  0  0  0
 11 12  4  0  0  0  0
 12 13  4  0  0  0  0
 13 14  4  0  0  0  0
 14 15  4  0  0  0  0
 16 17  1  0  0  0  0
 16 21  1  0  0  0  0
 17 18  1  0  0  0  0
 18 19  1  0  0  0  0
 19 20  1  0  0  0  0
 19 22  1  0  0  0  0
 20 21  1  0  0  0  0
 22 23  1  0  0  0  0
 23 24  1  0  0  0  0
 24 25  1  0  0  0  0
 25 26  1  0  0  0  0
 26 27  1  0  0  0  0
M  END
>  <Name_Molregno>
QUETIAPINE

>  <5-HT1A>
6.59

>  <5-HT1B>
5.83

>  <5-HT1D>
5.52

>  <5-HT1E>
5.76

>  <5-HT2A>
6.76

>  <5-HT2C>
5.82

>  <5-HT3>
5

>  <5-HT5>
5.51

>  <5-HT6>
6.35

>  <5-HT7>
6.74

>  <Alpha-1A>
7.66

>  <Alpha-1B>
7.41

>  <Alpha-2A>
5.51

>  <Alpha-2B>
6.44

>  <Alpha-2C>
7.18

>  <Beta-1>
5.15

>  <Beta-2>
5.15

>  <DOPAMINE D1>
5.95

>  <DOPAMINE D2>
6.51

>  <DOPAMINE D3>
6.59

>  <DOPAMINE D4>
5.77

>  <DOPAMINE D5>
5.79

>  <Dopamine transporter>
5

>  <HISTAMINE H1>
8.1

>  <HISTAMINE H2>
5

>  <HISTAMINE H4>
5

>  <Muscarinic acetylcholine receptor M1>
6.71

>  <Muscarinic acetylcholine receptor M2>
6.03

>  <Muscarinic acetylcholine receptor M3>
5.69

>  <Muscarinic acetylcholine receptor M4>
6.5

>  <Muscarinic acetylcholine receptor M5>
5.58

>  <Norepinephrine transporter>
5

>  <Serotonin transporter>
5.18

$$$$
Quinuclidinyl-benzilate
  Marvin  02231216192D 0   1.00000     0.00000     0

 17 18  0  0  0  0  0  0  0  0999 V2000
    0.9706   -0.9706    0.0000 O   0  0  0  0  0  0  0  0  0
    0.1456   -0.9706    0.0000 C   0  0  0  0  0  0  0  0  0
   -0.6794   -0.9706    0.0000 C   0  0  0  0  0  0  0  0  0
   -1.0919   -0.2561    0.0000 O   0  0  0  0  0  0  0  0  0
   -1.0919   -1.6851    0.0000 O   0  0  0  0  0  0  0  0  0
    0.1456   -1.7956    0.0000 C   0  0  0  0  0  0  0  0  0
    0.8601   -2.2081    0.0000 C   0  0  0  0  0  0  0  0  0
    0.8601   -3.0331    0.0000 C   0  0  0  0  0  0  0  0  0
    0.1456   -3.4456    0.0000 C   0  0  0  0  0  0  0  0  0
   -0.5689   -3.0331    0.0000 C   0  0  0  0  0  0  0  0  0
   -0.5689   -2.2081    0.0000 C   0  0  0  0  0  0  0  0  0
    0.1456   -0.1456    0.0000 C   0  0  0  0  0  0  0  0  0
   -0.5689    0.2669    0.0000 C   0  0  0  0  0  0  0  0  0
   -0.5689    1.0919    0.0000 C   0  0  0  0  0  0  0  0  0
    0.1456    1.5044    0.0000 C   0  0  0  0  0  0  0  0  0
    0.8601    1.0919    0.0000 C   0  0  0  0  0  0  0  0  0
    0.8601    0.2669    0.0000 C   0  0  0  0  0  0  0  0  0
  1  2  1  0  0  0  0
  2  3  1  0  0  0  0
  2  6  1  0  0  0  0
  2 12  1  0  0  0  0
  3  4  1  0  0  0  0
  3  5  2  0  0  0  0
  6  7  4  0  0  0  0
  6 11  4  0  0  0  0
  7  8  4  0  0  0  0
  8  9  4  0  0  0  0
  9 10  4  0  0  0  0
 10 11  4  0  0  0  0
 12 13  4  0  0  0  0
 12 17  4  0  0  0  0
 13 14  4  0  0  0  0
 14 15  4  0  0  0  0
 15 16  4  0  0  0  0
 16 17  4  0  0  0  0
M  END
>  <Name_Molregno>
Quinuclidinyl-benzilate

>  <Muscarinic acetylcholine receptor M1>
10.41

>  <Muscarinic acetylcholine receptor M2>
10.55

>  <Muscarinic acetylcholine receptor M3>
10.08

>  <Muscarinic acetylcholine receptor M4>
10.45

>  <Muscarinic acetylcholine receptor M5>
10.28

$$$$
RILAPINE
  Marvin  02231216192D 0   1.00000     0.00000     0

 26 29  0  0  0  0  0  0  0  0999 V2000
   -0.4179   -1.6216    0.0000 Cl  0  0  0  0  0  0  0  0  0
    0.3705   -1.8648    0.0000 C   0  0  0  0  0  0  0  0  0
    0.9752   -1.3036    0.0000 C   0  0  0  0  0  0  0  0  0
    1.7636   -1.5468    0.0000 C   0  0  0  0  0  0  0  0  0
    2.2780   -0.9018    0.0000 C   0  0  0  0  0  0  0  0  0
    3.1030   -0.9018    0.0000 C   0  0  0  0  0  0  0  0  0
    3.4609   -0.1585    0.0000 N   0  0  0  0  0  0  0  0  0
    2.9962    0.5232    0.0000 C   0  0  0  0  0  0  0  0  0
    3.3541    1.2665    0.0000 C   0  0  0  0  0  0  0  0  0
    4.1768    1.3281    0.0000 N   0  0  0  0  0  0  0  0  0
    4.6416    0.6465    0.0000 C   0  0  0  0  0  0  0  0  0
    4.2836   -0.0968    0.0000 C   0  0  0  0  0  0  0  0  0
    4.5348    2.0714    0.0000 C   0  0  0  0  0  0  0  0  0
    3.6173   -1.5468    0.0000 C   0  0  0  0  0  0  0  0  0
    3.4338   -2.3511    0.0000 C   0  0  0  0  0  0  0  0  0
    4.0385   -2.9122    0.0000 C   0  0  0  0  0  0  0  0  0
    4.8269   -2.6691    0.0000 C   0  0  0  0  0  0  0  0  0
    5.0105   -1.8648    0.0000 C   0  0  0  0  0  0  0  0  0
    4.4057   -1.3036    0.0000 C   0  0  0  0  0  0  0  0  0
    2.6905   -2.7091    0.0000 C   0  0  0  0  0  0  0  0  0
    1.9472   -2.3511    0.0000 C   0  0  0  0  0  0  0  0  0
    1.3424   -2.9122    0.0000 C   0  0  0  0  0  0  0  0  0
    0.5541   -2.6691    0.0000 C   0  0  0  0  0  0  0  0  0
    2.6905   -3.5341    0.0000 C   0  0  0  0  0  0  0  0  0
    3.4049   -3.9466    0.0000 C   0  0  0  0  0  0  0  0  0
    4.1194   -4.3591    0.0000 N   0  0  0  0  0  0  0  0  0
  1  2  1  0  0  0  0
  2  3  4  0  0  0  0
  2 23  4  0  0  0  0
  3  4  4  0  0  0  0
  4  5  1  0  0  0  0
  4 21  4  0  0  0  0
  5  6  2  0  0  0  0
  6  7  1  0  0  0  0
  6 14  1  0  0  0  0
  7  8  1  0  0  0  0
  7 12  1  0  0  0  0
  8  9  1  0  0  0  0
  9 10  1  0  0  0  0
 10 11  1  0  0  0  0
 10 13  1  0  0  0  0
 11 12  1  0  0  0  0
 14 15  4  0  0  0  0
 14 19  4  0  0  0  0
 15 16  4  0  0  0  0
 15 20  1  0  0  0  0
 16 17  4  0  0  0  0
 17 18  4  0  0  0  0
 18 19  4  0  0  0  0
 20 21  1  0  0  0  0
 20 24  2  0  0  0  0
 21 22  4  0  0  0  0
 22 23  4  0  0  0  0
 24 25  1  0  0  0  0
 25 26  3  0  0  0  0
M  END
>  <Name_Molregno>
RILAPINE

>  <5-HT6>
7.77

>  <Muscarinic acetylcholine receptor M1>
6.72

>  <Muscarinic acetylcholine receptor M2>
6.33

>  <Muscarinic acetylcholine receptor M3>
5.85

>  <Muscarinic acetylcholine receptor M4>
6

>  <Muscarinic acetylcholine receptor M5>
5.96

$$$$
RISPERIDONE
  Marvin  02231216192D 0   1.00000     0.00000     0

 30 34  0  0  0  0  0  0  0  0999 V2000
    1.8325   -2.9394    0.0000 F   0  0  0  0  0  0  0  0  0
    2.0875   -2.1548    0.0000 C   0  0  0  0  0  0  0  0  0
    1.5354   -1.5417    0.0000 C   0  0  0  0  0  0  0  0  0
    1.7904   -0.7571    0.0000 C   0  0  0  0  0  0  0  0  0
    1.3779   -0.0426    0.0000 O   0  0  0  0  0  0  0  0  0
    1.9299    0.5705    0.0000 N   0  0  0  0  0  0  0  0  0
    2.6836    0.2349    0.0000 C   0  0  0  0  0  0  0  0  0
    2.5974   -0.5856    0.0000 C   0  0  0  0  0  0  0  0  0
    3.1494   -1.1987    0.0000 C   0  0  0  0  0  0  0  0  0
    2.8945   -1.9833    0.0000 C   0  0  0  0  0  0  0  0  0
    3.3981    0.6474    0.0000 C   0  0  0  0  0  0  0  0  0
    3.3981    1.4724    0.0000 C   0  0  0  0  0  0  0  0  0
    4.1125    1.8849    0.0000 C   0  0  0  0  0  0  0  0  0
    4.8270    1.4724    0.0000 N   0  0  0  0  0  0  0  0  0
    4.8270    0.6474    0.0000 C   0  0  0  0  0  0  0  0  0
    4.1125    0.2349    0.0000 C   0  0  0  0  0  0  0  0  0
    5.5415    1.8849    0.0000 C   0  0  0  0  0  0  0  0  0
    6.2559    1.4724    0.0000 C   0  0  0  0  0  0  0  0  0
    6.9704    1.8849    0.0000 C   0  0  0  0  0  0  0  0  0
    7.6849    1.4724    0.0000 C   0  0  0  0  0  0  0  0  0
    7.6849    0.6474    0.0000 O   0  0  0  0  0  0  0  0  0
    8.3994    1.8849    0.0000 N   0  0  0  0  0  0  0  0  0
    8.3994    2.7099    0.0000 C   0  0  0  0  0  0  0  0  0
    7.6849    3.1224    0.0000 N   0  0  0  0  0  0  0  0  0
    6.9704    2.7099    0.0000 C   0  0  0  0  0  0  0  0  0
    6.2559    3.1224    0.0000 C   0  0  0  0  0  0  0  0  0
    9.1138    3.1224    0.0000 C   0  0  0  0  0  0  0  0  0
    9.8283    2.7099    0.0000 C   0  0  0  0  0  0  0  0  0
    9.8283    1.8849    0.0000 C   0  0  0  0  0  0  0  0  0
    9.1138    1.4724    0.0000 C   0  0  0  0  0  0  0  0  0
  1  2  1  0  0  0  0
  2  3  4  0  0  0  0
  2 10  4  0  0  0  0
  3  4  4  0  0  0  0
  4  5  4  0  0  0  0
  4  8  4  0  0  0  0
  5  6  4  0  0  0  0
  6  7  4  0  0  0  0
  7  8  4  0  0  0  0
  7 11  1  0  0  0  0
  8  9  4  0  0  0  0
  9 10  4  0  0  0  0
 11 12  1  0  0  0  0
 11 16  1  0  0  0  0
 12 13  1  0  0  0  0
 13 14  1  0  0  0  0
 14 15  1  0  0  0  0
 14 17  1  0  0  0  0
 15 16  1  0  0  0  0
 17 18  1  0  0  0  0
 18 19  1  0  0  0  0
 19 20  1  0  0  0  0
 19 25  2  0  0  0  0
 20 21  2  0  0  0  0
 20 22  1  0  0  0  0
 22 23  1  0  0  0  0
 22 30  1  0  0  0  0
 23 24  2  0  0  0  0
 23 27  1  0  0  0  0
 24 25  1  0  0  0  0
 25 26  1  0  0  0  0
 27 28  1  0  0  0  0
 28 29  1  0  0  0  0
 29 30  1  0  0  0  0
M  END
>  <Name_Molregno>
RISPERIDONE

>  <5-HT1A>
6.52

>  <5-HT1B>
7.66

>  <5-HT1D>
7.6

>  <5-HT1E>
5.44

>  <5-HT2A>
9.35

>  <5-HT2C>
7.74

>  <5-HT3>
5

>  <5-HT5>
6.69

>  <5-HT6>
5.7

>  <5-HT7>
8.4

>  <Alpha-1A>
8.38

>  <Alpha-1B>
8.05

>  <Alpha-2A>
7.46

>  <Alpha-2B>
7.34

>  <Alpha-2C>
8.56

>  <Beta-1>
5.15

>  <Beta-2>
5.15

>  <DOPAMINE D1>
6.61

>  <DOPAMINE D2>
8.58

>  <DOPAMINE D3>
8.17

>  <DOPAMINE D4>
8.17

>  <DOPAMINE D5>
7.03

>  <Dopamine transporter>
5

>  <HISTAMINE H1>
7.79

>  <HISTAMINE H2>
6.92

>  <HISTAMINE H4>
5

>  <Muscarinic acetylcholine receptor M1>
5.22

>  <Muscarinic acetylcholine receptor M2>
5.14

>  <Muscarinic acetylcholine receptor M3>
5

>  <Muscarinic acetylcholine receptor M4>
5.18

>  <Muscarinic acetylcholine receptor M5>
5

>  <Norepinephrine transporter>
5

>  <Serotonin transporter>
5.67

$$$$
Rutin
  Marvin  02231216192D 0   1.00000     0.00000     0

 43 47  0  0  1  0  0  0  0  0999 V2000
   -0.5116   -0.2044    0.0000 O   0  0  0  0  0  0  0  0  0
   -0.5116    0.6206    0.0000 C   0  0  0  0  0  0  0  0  0
    0.2029    1.0331    0.0000 C   0  0  0  0  0  0  0  0  0
    0.2029    1.8581    0.0000 O   0  0  0  0  0  0  0  0  0
    0.9173    2.2706    0.0000 C   0  0  0  0  0  0  0  0  0
    0.9173    3.0956    0.0000 O   0  0  0  0  0  0  0  0  0
    1.6318    3.5081    0.0000 C   0  0  0  0  0  0  0  0  0
    1.6318    4.3331    0.0000 C   0  0  0  0  0  0  0  0  0
    2.3463    3.0956    0.0000 C   0  0  0  0  0  0  0  0  0
    3.0608    3.5081    0.0000 O   0  0  0  0  0  0  0  0  0
    2.3463    2.2706    0.0000 C   0  0  0  0  0  0  0  0  0
    3.0608    1.8581    0.0000 O   0  0  0  0  0  0  0  0  0
    1.6318    1.8581    0.0000 C   0  0  0  0  0  0  0  0  0
    1.6318    1.0331    0.0000 O   0  0  0  0  0  0  0  0  0
   -1.2261    1.0331    0.0000 C   0  0  0  0  0  0  0  0  0
   -1.2261    1.8581    0.0000 O   0  0  0  0  0  0  0  0  0
   -1.9405    0.6206    0.0000 C   0  0  0  0  0  0  0  0  0
   -2.6550    1.0331    0.0000 O   0  0  0  0  0  0  0  0  0
   -1.9405   -0.2044    0.0000 C   0  0  0  0  0  0  0  0  0
   -2.6550   -0.6169    0.0000 O   0  0  0  0  0  0  0  0  0
   -1.2261   -0.6169    0.0000 C   0  0  0  0  0  0  0  0  0
   -1.2261   -1.4419    0.0000 O   0  0  0  0  0  0  0  0  0
   -0.5116   -1.8544    0.0000 C   0  0  0  0  0  0  0  0  0
   -0.5116   -2.6794    0.0000 C   0  0  0  0  0  0  0  0  0
    0.2029   -3.0919    0.0000 O   0  0  0  0  0  0  0  0  0
    0.9173   -2.6794    0.0000 C   0  0  0  0  0  0  0  0  0
    0.9173   -1.8544    0.0000 C   0  0  0  0  0  0  0  0  0
    0.2029   -1.4419    0.0000 C   0  0  0  0  0  0  0  0  0
    0.2029   -0.6169    0.0000 O   0  0  0  0  0  0  0  0  0
    1.6318   -1.4419    0.0000 C   0  0  0  0  0  0  0  0  0
    1.6318   -0.6169    0.0000 O   0  0  0  0  0  0  0  0  0
    2.3463   -1.8544    0.0000 C   0  0  0  0  0  0  0  0  0
    2.3463   -2.6794    0.0000 C   0  0  0  0  0  0  0  0  0
    3.0608   -3.0919    0.0000 O   0  0  0  0  0  0  0  0  0
    1.6318   -3.0919    0.0000 C   0  0  0  0  0  0  0  0  0
   -1.2261   -3.0919    0.0000 C   0  0  0  0  0  0  0  0  0
   -1.2261   -3.9169    0.0000 C   0  0  0  0  0  0  0  0  0
   -1.9405   -4.3294    0.0000 C   0  0  0  0  0  0  0  0  0
   -1.9405   -5.1544    0.0000 O   0  0  0  0  0  0  0  0  0
   -2.6550   -3.9169    0.0000 C   0  0  0  0  0  0  0  0  0
   -3.3695   -4.3294    0.0000 O   0  0  0  0  0  0  0  0  0
   -2.6550   -3.0919    0.0000 C   0  0  0  0  0  0  0  0  0
   -1.9405   -2.6794    0.0000 C   0  0  0  0  0  0  0  0  0
  1  2  1  0  0  0  0
  1 21  1  0  0  0  0
  2  3  1  0  0  0  0
  2 15  1  0  0  0  0
  3  4  1  0  0  0  0
  4  5  1  0  0  0  0
  5  6  1  0  0  0  0
  5 13  1  0  0  0  0
  6  7  1  0  0  0  0
  7  8  1  0  0  0  0
  7  9  1  0  0  0  0
  9 10  1  0  0  0  0
  9 11  1  0  0  0  0
 11 12  1  0  0  0  0
 11 13  1  0  0  0  0
 13 14  1  0  0  0  0
 15 16  1  0  0  0  0
 15 17  1  0  0  0  0
 17 18  1  0  0  0  0
 17 19  1  0  0  0  0
 19 20  1  0  0  0  0
 19 21  1  0  0  0  0
 21 22  1  0  0  0  0
 22 23  1  0  0  0  0
 23 24  2  0  0  0  0
 23 28  1  0  0  0  0
 24 25  1  0  0  0  0
 24 36  1  0  0  0  0
 25 26  1  0  0  0  0
 26 27  4  0  0  0  0
 26 35  4  0  0  0  0
 27 28  1  0  0  0  0
 27 30  4  0  0  0  0
 28 29  2  0  0  0  0
 30 31  1  0  0  0  0
 30 32  4  0  0  0  0
 32 33  4  0  0  0  0
 33 34  1  0  0  0  0
 33 35  4  0  0  0  0
 36 37  4  0  0  0  0
 36 43  4  0  0  0  0
 37 38  4  0  0  0  0
 38 39  1  0  0  0  0
 38 40  4  0  0  0  0
 40 41  1  0  0  0  0
 40 42  4  0  0  0  0
 42 43  4  0  0  0  0
M  END
>  <Name_Molregno>
Rutin

>  <5-HT1A>
5

>  <5-HT1D>
5

>  <5-HT3>
5

>  <5-HT5>
5

>  <5-HT6>
5

>  <5-HT7>
5

>  <Alpha-1A>
5

>  <Alpha-1B>
5

>  <Alpha-2A>
5.03

>  <Alpha-2B>
5

>  <Alpha-2C>
5.02

>  <DOPAMINE D1>
5

>  <DOPAMINE D5>
5

>  <Muscarinic acetylcholine receptor M1>
5

>  <Muscarinic acetylcholine receptor M2>
5

>  <Muscarinic acetylcholine receptor M3>
5

>  <Muscarinic acetylcholine receptor M4>
5

>  <Muscarinic acetylcholine receptor M5>
7.45

>  <Norepinephrine transporter>
5

>  <Serotonin transporter>
5

$$$$
SalvinorinA
  Marvin  02231216192D 0   1.00000     0.00000     0

 31 34  0  0  1  0  0  0  0  0999 V2000
   -4.2035   -1.1582    0.0000 O   0  0  0  0  0  0  0  0  0
   -3.7910   -1.8727    0.0000 C   0  0  0  0  0  0  0  0  0
   -2.9660   -1.8727    0.0000 C   0  0  0  0  0  0  0  0  0
   -2.5535   -1.1582    0.0000 C   0  0  0  0  0  0  0  0  0
   -1.7285   -1.1582    0.0000 C   0  0  0  0  0  0  0  0  0
   -1.3160   -0.4437    0.0000 C   0  0  0  0  0  0  0  0  0
   -1.7285    0.2708    0.0000 C   0  0  0  0  0  0  0  0  0
   -2.5535    0.2708    0.0000 C   0  0  0  0  0  0  0  0  0
   -2.9660   -0.4437    0.0000 C   0  0  0  0  0  0  0  0  0
   -3.7910   -0.4437    0.0000 C   0  0  0  0  0  0  0  0  0
   -4.2035    0.2708    0.0000 O   0  0  0  0  0  0  0  0  0
   -0.9035    0.2708    0.0000 C   0  0  0  0  0  0  0  0  0
   -0.4910   -0.4437    0.0000 C   0  0  0  0  0  0  0  0  0
   -0.0785   -1.1582    0.0000 C   0  0  0  0  0  0  0  0  0
   -0.4910   -1.8727    0.0000 C   0  0  0  0  0  0  0  0  0
   -0.0785   -2.5871    0.0000 O   0  0  0  0  0  0  0  0  0
    0.7465   -2.5871    0.0000 C   0  0  0  0  0  0  0  0  0
    1.1590   -3.3016    0.0000 O   0  0  0  0  0  0  0  0  0
    1.1590   -1.8727    0.0000 C   0  0  0  0  0  0  0  0  0
   -1.3160   -1.8727    0.0000 C   0  0  0  0  0  0  0  0  0
   -1.7285   -2.5871    0.0000 O   0  0  0  0  0  0  0  0  0
   -0.0785    0.2708    0.0000 C   0  0  0  0  0  0  0  0  0
   -0.4910    0.9852    0.0000 O   0  0  0  0  0  0  0  0  0
   -0.0785    1.6997    0.0000 C   0  0  0  0  0  0  0  0  0
    0.7465    0.2708    0.0000 O   0  0  0  0  0  0  0  0  0
   -2.1410   -1.8727    0.0000 C   0  0  0  0  0  0  0  0  0
   -4.2035   -2.5871    0.0000 C   0  0  0  0  0  0  0  0  0
   -3.8680   -3.3408    0.0000 C   0  0  0  0  0  0  0  0  0
   -4.4811   -3.8928    0.0000 C   0  0  0  0  0  0  0  0  0
   -5.1956   -3.4803    0.0000 O   0  0  0  0  0  0  0  0  0
   -5.0240   -2.6734    0.0000 C   0  0  0  0  0  0  0  0  0
  1  2  1  0  0  0  0
  1 10  1  0  0  0  0
  2  3  1  0  0  0  0
  2 27  1  0  0  0  0
  3  4  1  0  0  0  0
  4  5  1  0  0  0  0
  4  9  1  0  0  0  0
  4 26  1  0  0  0  0
  5  6  1  0  0  0  0
  5 20  1  0  0  0  0
  6  7  1  0  0  0  0
  6 12  1  0  0  0  0
  6 13  1  0  0  0  0
  7  8  1  0  0  0  0
  8  9  1  0  0  0  0
  9 10  1  0  0  0  0
 10 11  2  0  0  0  0
 13 14  1  0  0  0  0
 13 22  1  0  0  0  0
 14 15  1  0  0  0  0
 15 16  1  0  0  0  0
 15 20  1  0  0  0  0
 16 17  1  0  0  0  0
 17 18  2  0  0  0  0
 17 19  1  0  0  0  0
 20 21  2  0  0  0  0
 22 23  1  0  0  0  0
 22 25  2  0  0  0  0
 23 24  1  0  0  0  0
 27 28  4  0  0  0  0
 27 31  4  0  0  0  0
 28 29  4  0  0  0  0
 29 30  4  0  0  0  0
 30 31  4  0  0  0  0
M  END
>  <Name_Molregno>
SalvinorinA

>  <5-HT1A>
5

>  <5-HT1B>
5

>  <5-HT1D>
5

>  <5-HT1E>
5

>  <5-HT3>
5

>  <5-HT5>
5

>  <5-HT6>
5

>  <5-HT7>
5

>  <Alpha-1A>
5

>  <Alpha-1B>
5

>  <DOPAMINE D1>
5

>  <DOPAMINE D2>
5

>  <DOPAMINE D3>
5

>  <DOPAMINE D5>
5

>  <HISTAMINE H1>
5

>  <Muscarinic acetylcholine receptor M1>
5

>  <Muscarinic acetylcholine receptor M2>
5

>  <Muscarinic acetylcholine receptor M3>
5

>  <Muscarinic acetylcholine receptor M4>
5

>  <Muscarinic acetylcholine receptor M5>
5

>  <Serotonin transporter>
5

$$$$
SCOPOLAMINE
  Marvin  02231216192D 0   1.00000     0.00000     0

 22 25  0  0  1  0  0  0  0  0999 V2000
    1.1869    0.3274    0.0000 O   0  0  0  0  0  0  0  0  0
    1.1684    1.1522    0.0000 C   0  0  0  0  0  0  0  0  0
    1.4889    1.8608    0.0000 C   0  0  0  0  0  0  0  0  0
    0.9283    2.3007    0.0000 N   0  0  0  0  0  0  0  0  0
    1.0680    1.4876    0.0000 C   0  0  0  0  0  0  0  0  0
    2.0397    1.4876    0.0000 C   0  0  0  0  0  0  0  0  0
    2.5559    1.0589    0.0000 C   0  0  0  0  0  0  0  0  0
    2.9677    0.3440    0.0000 O   0  0  0  0  0  0  0  0  0
    2.5545   -0.3700    0.0000 C   0  0  0  0  0  0  0  0  0
    1.7295   -0.3692    0.0000 O   0  0  0  0  0  0  0  0  0
    2.9663   -1.0849    0.0000 C   0  0  0  0  0  0  0  0  0
    3.7913   -1.0857    0.0000 C   0  0  0  0  0  0  0  0  0
    4.2031   -1.8006    0.0000 O   0  0  0  0  0  0  0  0  0
    2.5531   -1.7990    0.0000 C   0  0  0  0  0  0  0  0  0
    2.9649   -2.5139    0.0000 C   0  0  0  0  0  0  0  0  0
    2.5517   -3.2279    0.0000 C   0  0  0  0  0  0  0  0  0
    1.7267   -3.2271    0.0000 C   0  0  0  0  0  0  0  0  0
    1.3149   -2.5122    0.0000 C   0  0  0  0  0  0  0  0  0
    1.7281   -1.7982    0.0000 C   0  0  0  0  0  0  0  0  0
    2.4177    1.8763    0.0000 C   0  0  0  0  0  0  0  0  0
    0.4634    0.7238    0.0000 C   0  0  0  0  0  0  0  0  0
    0.5057    3.0092    0.0000 C   0  0  0  0  0  0  0  0  0
  1  2  1  0  0  0  0
  1 21  1  0  0  0  0
  2  3  1  0  0  0  0
  2 21  1  0  0  0  0
  3  4  1  0  0  0  0
  3 20  1  0  0  0  0
  4  5  1  0  0  0  0
  4 22  1  0  0  0  0
  5  6  1  0  0  0  0
  5 21  1  0  0  0  0
  6  7  1  0  0  0  0
  7  8  1  0  0  0  0
  7 20  1  0  0  0  0
  8  9  1  0  0  0  0
  9 10  2  0  0  0  0
  9 11  1  0  0  0  0
 11 12  1  0  0  0  0
 11 14  1  0  0  0  0
 12 13  1  0  0  0  0
 14 15  4  0  0  0  0
 14 19  4  0  0  0  0
 15 16  4  0  0  0  0
 16 17  4  0  0  0  0
 17 18  4  0  0  0  0
 18 19  4  0  0  0  0
M  END
>  <Name_Molregno>
SCOPOLAMINE

>  <Muscarinic acetylcholine receptor M1>
8.96

>  <Muscarinic acetylcholine receptor M2>
9.03

>  <Muscarinic acetylcholine receptor M3>
9.36

>  <Muscarinic acetylcholine receptor M4>
9.1

>  <Muscarinic acetylcholine receptor M5>
8.68

$$$$
SERTRALINE
  Marvin  02231216192D 0   1.00000     0.00000     0

 20 22  0  0  1  0  0  0  0  0999 V2000
    3.7848    2.1302    0.0000 Cl  0  0  0  0  0  0  0  0  0
    3.0703    1.7177    0.0000 C   0  0  0  0  0  0  0  0  0
    3.0703    0.8927    0.0000 C   0  0  0  0  0  0  0  0  0
    2.3558    0.4802    0.0000 C   0  0  0  0  0  0  0  0  0
    1.6413    0.8927    0.0000 C   0  0  0  0  0  0  0  0  0
    1.6413    1.7177    0.0000 C   0  0  0  0  0  0  0  0  0
    2.3558    2.1302    0.0000 C   0  0  0  0  0  0  0  0  0
    2.3558    2.9552    0.0000 Cl  0  0  0  0  0  0  0  0  0
    2.3558   -0.3448    0.0000 C   0  0  0  0  0  0  0  0  0
    1.6413   -0.7573    0.0000 C   0  0  0  0  0  0  0  0  0
    1.6413   -1.5823    0.0000 C   0  0  0  0  0  0  0  0  0
    2.3558   -1.9948    0.0000 C   0  0  0  0  0  0  0  0  0
    2.3558   -2.8198    0.0000 N   0  0  0  0  0  0  0  0  0
    3.0703   -3.2323    0.0000 C   0  0  0  0  0  0  0  0  0
    3.0703   -1.5823    0.0000 C   0  0  0  0  0  0  0  0  0
    3.0703   -0.7573    0.0000 C   0  0  0  0  0  0  0  0  0
    3.7848   -0.3448    0.0000 C   0  0  0  0  0  0  0  0  0
    4.4992   -0.7573    0.0000 C   0  0  0  0  0  0  0  0  0
    4.4992   -1.5823    0.0000 C   0  0  0  0  0  0  0  0  0
    3.7848   -1.9948    0.0000 C   0  0  0  0  0  0  0  0  0
  1  2  1  0  0  0  0
  2  3  4  0  0  0  0
  2  7  4  0  0  0  0
  3  4  4  0  0  0  0
  4  5  4  0  0  0  0
  4  9  1  0  0  0  0
  5  6  4  0  0  0  0
  6  7  4  0  0  0  0
  7  8  1  0  0  0  0
  9 10  1  0  0  0  0
  9 16  1  0  0  0  0
 10 11  1  0  0  0  0
 11 12  1  0  0  0  0
 12 13  1  0  0  0  0
 12 15  1  0  0  0  0
 13 14  1  0  0  0  0
 15 16  4  0  0  0  0
 15 20  4  0  0  0  0
 16 17  4  0  0  0  0
 17 18  4  0  0  0  0
 18 19  4  0  0  0  0
 19 20  4  0  0  0  0
M  END
>  <Name_Molregno>
SERTRALINE

>  <5-HT1A>
5

>  <DOPAMINE D2>
5

>  <Dopamine transporter>
7.34

>  <HISTAMINE H1>
5

>  <Muscarinic acetylcholine receptor M1>
6.13

>  <Muscarinic acetylcholine receptor M2>
5.68

>  <Muscarinic acetylcholine receptor M3>
5.89

>  <Muscarinic acetylcholine receptor M4>
5.85

>  <Muscarinic acetylcholine receptor M5>
5.72

>  <Norepinephrine transporter>
6.1

>  <Serotonin transporter>
9.17

$$$$
SR144528
  Marvin  02231216192D 0   1.00000     0.00000     0

 34 38  0  0  1  0  0  0  0  0999 V2000
   -3.4859   -7.8445    0.0000 Cl  0  0  0  0  0  0  0  0  0
   -3.3410   -7.0323    0.0000 C   0  0  0  0  0  0  0  0  0
   -3.9720   -6.5008    0.0000 C   0  0  0  0  0  0  0  0  0
   -3.8271   -5.6886    0.0000 C   0  0  0  0  0  0  0  0  0
   -3.0513   -5.4080    0.0000 C   0  0  0  0  0  0  0  0  0
   -2.4203   -5.9395    0.0000 C   0  0  0  0  0  0  0  0  0
   -2.5652   -6.7517    0.0000 C   0  0  0  0  0  0  0  0  0
   -1.9343   -7.2833    0.0000 C   0  0  0  0  0  0  0  0  0
   -2.9064   -4.5958    0.0000 C   0  0  0  0  0  0  0  0  0
   -3.4783   -4.0012    0.0000 N   0  0  0  0  0  0  0  0  0
   -3.0895   -3.2735    0.0000 N   0  0  0  0  0  0  0  0  0
   -2.2773   -3.4184    0.0000 C   0  0  0  0  0  0  0  0  0
   -2.1641   -4.2356    0.0000 C   0  0  0  0  0  0  0  0  0
   -1.6827   -2.8465    0.0000 C   0  0  0  0  0  0  0  0  0
   -1.8807   -2.0456    0.0000 O   0  0  0  0  0  0  0  0  0
   -0.8901   -3.0755    0.0000 N   0  0  0  0  0  0  0  0  0
   -0.2955   -2.5036    0.0000 C   0  0  0  0  0  0  0  0  0
    0.0698   -1.8431    0.0000 C   0  0  0  0  0  0  0  0  0
    0.7101   -1.3929    0.0000 C   0  0  0  0  0  0  0  0  0
    0.5501   -0.5775    0.0000 C   0  0  0  0  0  0  0  0  0
    0.4800   -2.1133    0.0000 C   0  0  0  0  0  0  0  0  0
    1.2105   -2.4836    0.0000 C   0  0  0  0  0  0  0  0  0
    1.5056   -1.8582    0.0000 C   0  0  0  0  0  0  0  0  0
    0.4788   -2.9383    0.0000 C   0  0  0  0  0  0  0  0  0
   -0.7153   -1.5897    0.0000 C   0  0  0  0  0  0  0  0  0
   -0.2665   -1.0898    0.0000 C   0  0  0  0  0  0  0  0  0
   -4.2955   -4.1144    0.0000 C   0  0  0  0  0  0  0  0  0
   -4.8021   -3.4633    0.0000 C   0  0  0  0  0  0  0  0  0
   -5.6193   -3.5764    0.0000 C   0  0  0  0  0  0  0  0  0
   -6.1259   -2.9253    0.0000 C   0  0  0  0  0  0  0  0  0
   -5.8153   -2.1610    0.0000 C   0  0  0  0  0  0  0  0  0
   -4.9981   -2.0478    0.0000 C   0  0  0  0  0  0  0  0  0
   -4.4915   -2.6989    0.0000 C   0  0  0  0  0  0  0  0  0
   -6.3219   -1.5099    0.0000 C   0  0  0  0  0  0  0  0  0
  1  2  1  0  0  0  0
  2  3  4  0  0  0  0
  2  7  4  0  0  0  0
  3  4  4  0  0  0  0
  4  5  4  0  0  0  0
  5  6  4  0  0  0  0
  5  9  1  0  0  0  0
  6  7  4  0  0  0  0
  7  8  1  0  0  0  0
  9 10  4  0  0  0  0
  9 13  4  0  0  0  0
 10 11  4  0  0  0  0
 10 27  1  0  0  0  0
 11 12  4  0  0  0  0
 12 13  4  0  0  0  0
 12 14  1  0  0  0  0
 14 15  2  0  0  0  0
 14 16  1  0  0  0  0
 16 17  1  0  0  0  0
 17 18  1  0  0  0  0
 17 21  1  0  0  0  0
 18 19  1  0  0  0  0
 18 25  1  0  0  0  0
 18 26  1  0  0  0  0
 19 20  1  0  0  0  0
 19 23  1  0  0  0  0
 20 21  1  0  0  0  0
 21 22  1  0  0  0  0
 21 24  1  0  0  0  0
 22 23  1  0  0  0  0
 27 28  1  0  0  0  0
 28 29  4  0  0  0  0
 28 33  4  0  0  0  0
 29 30  4  0  0  0  0
 30 31  4  0  0  0  0
 31 32  4  0  0  0  0
 31 34  1  0  0  0  0
 32 33  4  0  0  0  0
M  END
>  <Name_Molregno>
SR144528

>  <5-HT1A>
5

>  <5-HT1B>
5

>  <5-HT1D>
5

>  <5-HT2A>
5

>  <5-HT2C>
5

>  <5-HT3>
5

>  <Beta-1>
5

>  <Beta-2>
5

>  <DOPAMINE D1>
5

>  <DOPAMINE D2>
5

>  <DOPAMINE D3>
5

>  <DOPAMINE D4>
5

>  <HISTAMINE H1>
5

>  <HISTAMINE H2>
5

>  <HISTAMINE H3>
5

>  <Muscarinic acetylcholine receptor M1>
5

>  <Muscarinic acetylcholine receptor M2>
5

>  <Muscarinic acetylcholine receptor M4>
5

$$$$
SR46349B
  Marvin  02231216192D 0   1.00000     0.00000     0

 24 25  0  0  0  0  0  0  0  0999 V2000
   -0.7835    2.8630    0.0000 F   0  0  0  0  0  0  0  0  0
   -0.0691    3.2755    0.0000 C   0  0  0  0  0  0  0  0  0
   -0.0691    4.1005    0.0000 C   0  0  0  0  0  0  0  0  0
    0.6454    4.5130    0.0000 C   0  0  0  0  0  0  0  0  0
    1.3599    4.1005    0.0000 C   0  0  0  0  0  0  0  0  0
    1.3599    3.2755    0.0000 C   0  0  0  0  0  0  0  0  0
    0.6454    2.8630    0.0000 C   0  0  0  0  0  0  0  0  0
    0.6454    2.0380    0.0000 C   0  0  0  0  0  0  0  0  0
    1.3599    1.6255    0.0000 N   0  0  0  0  0  0  0  0  0
    2.0743    2.0380    0.0000 O   0  0  0  0  0  0  0  0  0
    2.7888    1.6255    0.0000 C   0  0  0  0  0  0  0  0  0
    3.5033    2.0380    0.0000 C   0  0  0  0  0  0  0  0  0
    4.2177    1.6255    0.0000 N   0  0  0  0  0  0  0  0  0
    4.9322    2.0380    0.0000 C   0  0  0  0  0  0  0  0  0
    4.2177    0.8005    0.0000 C   0  0  0  0  0  0  0  0  0
   -0.0691    1.6255    0.0000 C   0  0  0  0  0  0  0  0  0
   -0.0691    0.8005    0.0000 C   0  0  0  0  0  0  0  0  0
   -0.7835    0.3880    0.0000 C   0  0  0  0  0  0  0  0  0
   -0.7835   -0.4370    0.0000 C   0  0  0  0  0  0  0  0  0
   -1.4980   -0.8495    0.0000 C   0  0  0  0  0  0  0  0  0
   -2.2125   -0.4370    0.0000 C   0  0  0  0  0  0  0  0  0
   -2.9270   -0.8495    0.0000 O   0  0  0  0  0  0  0  0  0
   -2.2125    0.3880    0.0000 C   0  0  0  0  0  0  0  0  0
   -1.4980    0.8005    0.0000 C   0  0  0  0  0  0  0  0  0
  1  2  1  0  0  0  0
  2  3  4  0  0  0  0
  2  7  4  0  0  0  0
  3  4  4  0  0  0  0
  4  5  4  0  0  0  0
  5  6  4  0  0  0  0
  6  7  4  0  0  0  0
  7  8  1  0  0  0  0
  8  9  1  0  0  0  0
  8 16  2  0  0  0  0
  9 10  1  0  0  0  0
 10 11  1  0  0  0  0
 11 12  1  0  0  0  0
 12 13  1  0  0  0  0
 13 14  1  0  0  0  0
 13 15  1  0  0  0  0
 16 17  1  0  0  0  0
 17 18  2  0  0  0  0
 18 19  1  0  0  0  0
 18 24  1  0  0  0  0
 19 20  2  0  0  0  0
 20 21  1  0  0  0  0
 21 22  2  0  0  0  0
 21 23  1  0  0  0  0
 23 24  2  0  0  0  0
M  END
>  <Name_Molregno>
SR46349B

>  <5-HT1A>
5.6

>  <5-HT2A>
9

>  <5-HT2C>
8.09

>  <5-HT5>
5.76

>  <5-HT6>
5.41

>  <Alpha-2A>
6.14

>  <Alpha-2C>
5.67

>  <DOPAMINE D1>
5

>  <Dopamine transporter>
5.25

>  <Muscarinic acetylcholine receptor M1>
6.14

>  <Muscarinic acetylcholine receptor M2>
5

>  <Muscarinic acetylcholine receptor M3>
5.62

>  <Muscarinic acetylcholine receptor M4>
5.44

>  <Muscarinic acetylcholine receptor M5>
5.52

>  <Norepinephrine transporter>
6.13

$$$$
TENILAPINE
  Marvin  02231216192D 0   1.00000     0.00000     0

 23 26  0  0  0  0  0  0  0  0999 V2000
    1.8544   -2.7951    0.0000 S   0  0  0  0  0  0  0  0  0
    1.5301   -2.0365    0.0000 C   0  0  0  0  0  0  0  0  0
    0.7085   -2.1104    0.0000 C   0  0  0  0  0  0  0  0  0
    0.5249   -2.9147    0.0000 C   0  0  0  0  0  0  0  0  0
    1.2331   -3.3379    0.0000 C   0  0  0  0  0  0  0  0  0
   -0.2184   -3.2727    0.0000 C   0  0  0  0  0  0  0  0  0
   -0.9617   -2.9147    0.0000 C   0  0  0  0  0  0  0  0  0
   -1.1453   -2.1104    0.0000 C   0  0  0  0  0  0  0  0  0
   -0.6309   -1.4654    0.0000 N   0  0  0  0  0  0  0  0  0
    0.1941   -1.4654    0.0000 C   0  0  0  0  0  0  0  0  0
    0.5520   -0.7221    0.0000 N   0  0  0  0  0  0  0  0  0
    0.0873   -0.0405    0.0000 C   0  0  0  0  0  0  0  0  0
    0.4452    0.7028    0.0000 C   0  0  0  0  0  0  0  0  0
    1.2679    0.7645    0.0000 N   0  0  0  0  0  0  0  0  0
    1.7327    0.0828    0.0000 C   0  0  0  0  0  0  0  0  0
    1.3747   -0.6605    0.0000 C   0  0  0  0  0  0  0  0  0
    1.6259    1.5078    0.0000 C   0  0  0  0  0  0  0  0  0
   -1.9670   -2.0365    0.0000 C   0  0  0  0  0  0  0  0  0
   -2.2912   -2.7951    0.0000 S   0  0  0  0  0  0  0  0  0
   -1.6699   -3.3379    0.0000 C   0  0  0  0  0  0  0  0  0
   -0.2184   -4.0977    0.0000 C   0  0  0  0  0  0  0  0  0
   -0.9329   -4.5102    0.0000 C   0  0  0  0  0  0  0  0  0
   -1.6474   -4.9227    0.0000 N   0  0  0  0  0  0  0  0  0
  1  2  4  0  0  0  0
  1  5  4  0  0  0  0
  2  3  4  0  0  0  0
  3  4  4  0  0  0  0
  3 10  1  0  0  0  0
  4  5  4  0  0  0  0
  4  6  1  0  0  0  0
  6  7  1  0  0  0  0
  6 21  2  0  0  0  0
  7  8  4  0  0  0  0
  7 20  4  0  0  0  0
  8  9  1  0  0  0  0
  8 18  4  0  0  0  0
  9 10  2  0  0  0  0
 10 11  1  0  0  0  0
 11 12  1  0  0  0  0
 11 16  1  0  0  0  0
 12 13  1  0  0  0  0
 13 14  1  0  0  0  0
 14 15  1  0  0  0  0
 14 17  1  0  0  0  0
 15 16  1  0  0  0  0
 18 19  4  0  0  0  0
 19 20  4  0  0  0  0
 21 22  1  0  0  0  0
 22 23  3  0  0  0  0
M  END
>  <Name_Molregno>
TENILAPINE

>  <5-HT6>
6.24

>  <Muscarinic acetylcholine receptor M1>
6.59

>  <Muscarinic acetylcholine receptor M2>
7.21

>  <Muscarinic acetylcholine receptor M3>
6.28

>  <Muscarinic acetylcholine receptor M4>
6.37

>  <Muscarinic acetylcholine receptor M5>
6.18

$$$$
THIORIDAZINE
  Marvin  02231216192D 0   1.00000     0.00000     0

 25 28  0  0  1  0  0  0  0  0999 V2000
    1.0601   -0.3753    0.0000 S   0  0  0  0  0  0  0  0  0
    1.7746    0.0372    0.0000 C   0  0  0  0  0  0  0  0  0
    1.7746    0.8622    0.0000 C   0  0  0  0  0  0  0  0  0
    1.0601    1.2747    0.0000 N   0  0  0  0  0  0  0  0  0
    0.3456    0.8622    0.0000 C   0  0  0  0  0  0  0  0  0
    0.3456    0.0372    0.0000 C   0  0  0  0  0  0  0  0  0
   -0.3689   -0.3753    0.0000 C   0  0  0  0  0  0  0  0  0
   -1.0833    0.0372    0.0000 C   0  0  0  0  0  0  0  0  0
   -1.0833    0.8622    0.0000 C   0  0  0  0  0  0  0  0  0
   -0.3689    1.2747    0.0000 C   0  0  0  0  0  0  0  0  0
    1.0601    2.0997    0.0000 C   0  0  0  0  0  0  0  0  0
    0.3456    2.5122    0.0000 C   0  0  0  0  0  0  0  0  0
    0.3456    3.3372    0.0000 C   0  0  0  0  0  0  0  0  0
   -0.3689    3.7497    0.0000 N   0  0  0  0  0  0  0  0  0
   -0.3689    4.5747    0.0000 C   0  0  0  0  0  0  0  0  0
    0.3456    4.9872    0.0000 C   0  0  0  0  0  0  0  0  0
    1.0601    4.5747    0.0000 C   0  0  0  0  0  0  0  0  0
    1.0601    3.7497    0.0000 C   0  0  0  0  0  0  0  0  0
   -1.0833    3.3372    0.0000 C   0  0  0  0  0  0  0  0  0
    2.4890    1.2747    0.0000 C   0  0  0  0  0  0  0  0  0
    3.2035    0.8622    0.0000 C   0  0  0  0  0  0  0  0  0
    3.9180    1.2747    0.0000 S   0  0  0  0  0  0  0  0  0
    3.9180    2.0997    0.0000 C   0  0  0  0  0  0  0  0  0
    3.2035    0.0372    0.0000 C   0  0  0  0  0  0  0  0  0
    2.4890   -0.3753    0.0000 C   0  0  0  0  0  0  0  0  0
  1  2  1  0  0  0  0
  1  6  1  0  0  0  0
  2  3  4  0  0  0  0
  2 25  4  0  0  0  0
  3  4  1  0  0  0  0
  3 20  4  0  0  0  0
  4  5  1  0  0  0  0
  4 11  1  0  0  0  0
  5  6  4  0  0  0  0
  5 10  4  0  0  0  0
  6  7  4  0  0  0  0
  7  8  4  0  0  0  0
  8  9  4  0  0  0  0
  9 10  4  0  0  0  0
 11 12  1  0  0  0  0
 12 13  1  0  0  0  0
 13 14  1  0  0  0  0
 13 18  1  0  0  0  0
 14 15  1  0  0  0  0
 14 19  1  0  0  0  0
 15 16  1  0  0  0  0
 16 17  1  0  0  0  0
 17 18  1  0  0  0  0
 20 21  4  0  0  0  0
 21 22  1  0  0  0  0
 21 24  4  0  0  0  0
 22 23  1  0  0  0  0
 24 25  4  0  0  0  0
M  END
>  <Name_Molregno>
THIORIDAZINE

>  <5-HT1A>
6.85

>  <5-HT1B>
6.96

>  <5-HT1D>
6.24

>  <5-HT1E>
6.71

>  <5-HT2A>
7.95

>  <5-HT2C>
7.28

>  <5-HT3>
5

>  <5-HT5>
6.44

>  <5-HT6>
7.24

>  <5-HT7>
7.05

>  <Alpha-1A>
8.6

>  <Alpha-1B>
8.62

>  <Alpha-2A>
6.87

>  <Alpha-2B>
6.47

>  <Alpha-2C>
7.13

>  <Beta-1>
5

>  <Beta-2>
5

>  <DOPAMINE D1>
7.03

>  <DOPAMINE D2>
8.31

>  <DOPAMINE D3>
8.59

>  <DOPAMINE D4>
8.21

>  <DOPAMINE D5>
6.6

>  <Dopamine transporter>
5.77

>  <HISTAMINE H1>
7.79

>  <HISTAMINE H2>
6.87

>  <HISTAMINE H4>
5.62

>  <Muscarinic acetylcholine receptor M1>
8.21

>  <Muscarinic acetylcholine receptor M2>
7.26

>  <Muscarinic acetylcholine receptor M3>
7.6

>  <Muscarinic acetylcholine receptor M4>
7.38

>  <Muscarinic acetylcholine receptor M5>
7.9

>  <Norepinephrine transporter>
6.07

>  <Serotonin transporter>
5.9

$$$$
TOLTERODINE
  Marvin  02231216192D 0   1.00000     0.00000     0

 24 25  0  0  1  0  0  0  0  0999 V2000
   -1.5352    1.6300    0.0000 O   0  0  0  0  0  0  0  0  0
   -1.1227    2.3445    0.0000 C   0  0  0  0  0  0  0  0  0
   -1.5352    3.0590    0.0000 C   0  0  0  0  0  0  0  0  0
   -1.1227    3.7734    0.0000 C   0  0  0  0  0  0  0  0  0
   -0.2977    3.7734    0.0000 C   0  0  0  0  0  0  0  0  0
    0.1148    3.0590    0.0000 C   0  0  0  0  0  0  0  0  0
   -0.2977    2.3445    0.0000 C   0  0  0  0  0  0  0  0  0
    0.1148    1.6300    0.0000 C   0  0  0  0  0  0  0  0  0
    0.9398    1.6300    0.0000 C   0  0  0  0  0  0  0  0  0
    1.3523    0.9155    0.0000 C   0  0  0  0  0  0  0  0  0
    2.1773    0.9155    0.0000 N   0  0  0  0  0  0  0  0  0
    2.5898    0.2011    0.0000 C   0  0  0  0  0  0  0  0  0
    3.4148    0.2011    0.0000 C   0  0  0  0  0  0  0  0  0
    2.1773   -0.5134    0.0000 C   0  0  0  0  0  0  0  0  0
    2.5898    1.6300    0.0000 C   0  0  0  0  0  0  0  0  0
    2.1773    2.3445    0.0000 C   0  0  0  0  0  0  0  0  0
    3.4148    1.6300    0.0000 C   0  0  0  0  0  0  0  0  0
   -0.2977    0.9155    0.0000 C   0  0  0  0  0  0  0  0  0
    0.1148    0.2011    0.0000 C   0  0  0  0  0  0  0  0  0
   -0.2977   -0.5134    0.0000 C   0  0  0  0  0  0  0  0  0
   -1.1227   -0.5134    0.0000 C   0  0  0  0  0  0  0  0  0
   -1.5352    0.2011    0.0000 C   0  0  0  0  0  0  0  0  0
   -1.1227    0.9155    0.0000 C   0  0  0  0  0  0  0  0  0
    0.1148    4.4879    0.0000 C   0  0  0  0  0  0  0  0  0
  1  2  1  0  0  0  0
  2  3  4  0  0  0  0
  2  7  4  0  0  0  0
  3  4  4  0  0  0  0
  4  5  4  0  0  0  0
  5  6  4  0  0  0  0
  5 24  1  0  0  0  0
  6  7  4  0  0  0  0
  7  8  1  0  0  0  0
  8  9  1  0  0  0  0
  8 18  1  0  0  0  0
  9 10  1  0  0  0  0
 10 11  1  0  0  0  0
 11 12  1  0  0  0  0
 11 15  1  0  0  0  0
 12 13  1  0  0  0  0
 12 14  1  0  0  0  0
 15 16  1  0  0  0  0
 15 17  1  0  0  0  0
 18 19  4  0  0  0  0
 18 23  4  0  0  0  0
 19 20  4  0  0  0  0
 20 21  4  0  0  0  0
 21 22  4  0  0  0  0
 22 23  4  0  0  0  0
M  END
>  <Name_Molregno>
TOLTERODINE

>  <Muscarinic acetylcholine receptor M1>
8.85

>  <Muscarinic acetylcholine receptor M2>
8.48

>  <Muscarinic acetylcholine receptor M3>
8.46

>  <Muscarinic acetylcholine receptor M4>
8.51

>  <Muscarinic acetylcholine receptor M5>
8.66

$$$$
TRAZODONE
  Marvin  02231216192D 0   1.00000     0.00000     0

 26 29  0  0  0  0  0  0  0  0999 V2000
    0.6158   -2.7707    0.0000 Cl  0  0  0  0  0  0  0  0  0
    1.4408   -2.7707    0.0000 C   0  0  0  0  0  0  0  0  0
    1.8533   -2.0563    0.0000 C   0  0  0  0  0  0  0  0  0
    2.6783   -2.0563    0.0000 C   0  0  0  0  0  0  0  0  0
    3.0908   -1.3418    0.0000 N   0  0  0  0  0  0  0  0  0
    2.6783   -0.6273    0.0000 C   0  0  0  0  0  0  0  0  0
    3.0908    0.0872    0.0000 C   0  0  0  0  0  0  0  0  0
    3.9158    0.0872    0.0000 N   0  0  0  0  0  0  0  0  0
    4.3283   -0.6273    0.0000 C   0  0  0  0  0  0  0  0  0
    3.9158   -1.3418    0.0000 C   0  0  0  0  0  0  0  0  0
    4.3283    0.8016    0.0000 C   0  0  0  0  0  0  0  0  0
    5.1533    0.8016    0.0000 C   0  0  0  0  0  0  0  0  0
    5.5658    1.5161    0.0000 C   0  0  0  0  0  0  0  0  0
    6.3908    1.5161    0.0000 N   0  0  0  0  0  0  0  0  0
    6.8757    0.8487    0.0000 N   0  0  0  0  0  0  0  0  0
    7.6604    1.1036    0.0000 C   0  0  0  0  0  0  0  0  0
    7.6604    1.9286    0.0000 N   0  0  0  0  0  0  0  0  0
    8.3748    2.3411    0.0000 C   0  0  0  0  0  0  0  0  0
    9.0893    1.9286    0.0000 C   0  0  0  0  0  0  0  0  0
    9.0893    1.1036    0.0000 C   0  0  0  0  0  0  0  0  0
    8.3748    0.6911    0.0000 C   0  0  0  0  0  0  0  0  0
    6.8757    2.1835    0.0000 C   0  0  0  0  0  0  0  0  0
    6.6208    2.9682    0.0000 O   0  0  0  0  0  0  0  0  0
    3.0908   -2.7707    0.0000 C   0  0  0  0  0  0  0  0  0
    2.6783   -3.4852    0.0000 C   0  0  0  0  0  0  0  0  0
    1.8533   -3.4852    0.0000 C   0  0  0  0  0  0  0  0  0
  1  2  1  0  0  0  0
  2  3  4  0  0  0  0
  2 26  4  0  0  0  0
  3  4  4  0  0  0  0
  4  5  1  0  0  0  0
  4 24  4  0  0  0  0
  5  6  1  0  0  0  0
  5 10  1  0  0  0  0
  6  7  1  0  0  0  0
  7  8  1  0  0  0  0
  8  9  1  0  0  0  0
  8 11  1  0  0  0  0
  9 10  1  0  0  0  0
 11 12  1  0  0  0  0
 12 13  1  0  0  0  0
 13 14  1  0  0  0  0
 14 15  1  0  0  0  0
 14 22  1  0  0  0  0
 15 16  2  0  0  0  0
 16 17  1  0  0  0  0
 16 21  1  0  0  0  0
 17 18  1  0  0  0  0
 17 22  1  0  0  0  0
 18 19  2  0  0  0  0
 19 20  1  0  0  0  0
 20 21  2  0  0  0  0
 22 23  2  0  0  0  0
 24 25  4  0  0  0  0
 25 26  4  0  0  0  0
M  END
>  <Name_Molregno>
TRAZODONE

>  <5-HT1A>
6.97

>  <5-HT1B>
5

>  <5-HT1D>
6.97

>  <5-HT1E>
5

>  <5-HT2A>
7.46

>  <5-HT2C>
6.65

>  <5-HT3>
5

>  <5-HT5>
5

>  <5-HT6>
5

>  <5-HT7>
5.75

>  <Alpha-1A>
6.82

>  <Alpha-2A>
6.14

>  <Alpha-2C>
6.81

>  <Beta-1>
5

>  <Beta-2>
5

>  <DOPAMINE D1>
5.43

>  <DOPAMINE D2>
5.42

>  <DOPAMINE D4>
6.15

>  <DOPAMINE D5>
5

>  <Dopamine transporter>
5.07

>  <HISTAMINE H1>
6.31

>  <HISTAMINE H2>
5.48

>  <HISTAMINE H4>
5

>  <Muscarinic acetylcholine receptor M1>
5

>  <Muscarinic acetylcholine receptor M2>
5

>  <Muscarinic acetylcholine receptor M3>
5

>  <Muscarinic acetylcholine receptor M4>
5

>  <Muscarinic acetylcholine receptor M5>
5

>  <Norepinephrine transporter>
5.02

>  <Serotonin transporter>
6.14

$$$$
TROPICAMIDE
  Marvin  02231216192D 0   1.00000     0.00000     0

 21 22  0  0  1  0  0  0  0  0999 V2000
   -0.1719   -2.2473    0.0000 O   0  0  0  0  0  0  0  0  0
    0.5426   -1.8348    0.0000 C   0  0  0  0  0  0  0  0  0
    0.5426   -1.0098    0.0000 C   0  0  0  0  0  0  0  0  0
    1.2571   -0.5973    0.0000 C   0  0  0  0  0  0  0  0  0
    1.2571    0.2277    0.0000 O   0  0  0  0  0  0  0  0  0
    1.9716   -1.0098    0.0000 N   0  0  0  0  0  0  0  0  0
    2.6860   -0.5973    0.0000 C   0  0  0  0  0  0  0  0  0
    3.4005   -1.0098    0.0000 C   0  0  0  0  0  0  0  0  0
    4.1150   -0.5973    0.0000 C   0  0  0  0  0  0  0  0  0
    4.8294   -1.0098    0.0000 C   0  0  0  0  0  0  0  0  0
    4.8294   -1.8348    0.0000 N   0  0  0  0  0  0  0  0  0
    4.1150   -2.2473    0.0000 C   0  0  0  0  0  0  0  0  0
    3.4005   -1.8348    0.0000 C   0  0  0  0  0  0  0  0  0
    1.9716   -1.8348    0.0000 C   0  0  0  0  0  0  0  0  0
    1.2571   -2.2473    0.0000 C   0  0  0  0  0  0  0  0  0
   -0.1719   -0.5973    0.0000 C   0  0  0  0  0  0  0  0  0
   -0.8863   -1.0098    0.0000 C   0  0  0  0  0  0  0  0  0
   -1.6008   -0.5973    0.0000 C   0  0  0  0  0  0  0  0  0
   -1.6008    0.2277    0.0000 C   0  0  0  0  0  0  0  0  0
   -0.8863    0.6402    0.0000 C   0  0  0  0  0  0  0  0  0
   -0.1719    0.2277    0.0000 C   0  0  0  0  0  0  0  0  0
  1  2  1  0  0  0  0
  2  3  1  0  0  0  0
  3  4  1  0  0  0  0
  3 16  1  0  0  0  0
  4  5  2  0  0  0  0
  4  6  1  0  0  0  0
  6  7  1  0  0  0  0
  6 14  1  0  0  0  0
  7  8  1  0  0  0  0
  8  9  4  0  0  0  0
  8 13  4  0  0  0  0
  9 10  4  0  0  0  0
 10 11  4  0  0  0  0
 11 12  4  0  0  0  0
 12 13  4  0  0  0  0
 14 15  1  0  0  0  0
 16 17  4  0  0  0  0
 16 21  4  0  0  0  0
 17 18  4  0  0  0  0
 18 19  4  0  0  0  0
 19 20  4  0  0  0  0
 20 21  4  0  0  0  0
M  END
>  <Name_Molregno>
TROPICAMIDE

>  <Muscarinic acetylcholine receptor M4>
8.46

$$$$
Venlafaxine
  Marvin  02231216192D 0   1.00000     0.00000     0

 20 21  0  0  1  0  0  0  0  0999 V2000
    2.4113    2.7171    0.0000 O   0  0  0  0  0  0  0  0  0
    1.6968    3.1296    0.0000 C   0  0  0  0  0  0  0  0  0
    2.4113    1.8921    0.0000 C   0  0  0  0  0  0  0  0  0
    3.1257    1.4796    0.0000 C   0  0  0  0  0  0  0  0  0
    3.1257    0.6546    0.0000 C   0  0  0  0  0  0  0  0  0
    2.4113    0.2421    0.0000 C   0  0  0  0  0  0  0  0  0
    1.6968    0.6546    0.0000 C   0  0  0  0  0  0  0  0  0
    1.6968    1.4796    0.0000 C   0  0  0  0  0  0  0  0  0
    2.4113   -0.5829    0.0000 C   0  0  0  0  0  0  0  0  0
    1.6968   -0.9954    0.0000 C   0  0  0  0  0  0  0  0  0
    1.6968   -1.8204    0.0000 N   0  0  0  0  0  0  0  0  0
    2.4113   -2.2329    0.0000 C   0  0  0  0  0  0  0  0  0
    0.9823   -2.2329    0.0000 C   0  0  0  0  0  0  0  0  0
    3.1257   -0.9954    0.0000 C   0  0  0  0  0  0  0  0  0
    2.5954   -1.6274    0.0000 O   0  0  0  0  0  0  0  0  0
    3.4079   -0.2201    0.0000 C   0  0  0  0  0  0  0  0  0
    4.2204   -0.0769    0.0000 C   0  0  0  0  0  0  0  0  0
    4.7507   -0.7089    0.0000 C   0  0  0  0  0  0  0  0  0
    4.4685   -1.4841    0.0000 C   0  0  0  0  0  0  0  0  0
    3.6560   -1.6274    0.0000 C   0  0  0  0  0  0  0  0  0
  1  2  1  0  0  0  0
  1  3  1  0  0  0  0
  3  4  4  0  0  0  0
  3  8  4  0  0  0  0
  4  5  4  0  0  0  0
  5  6  4  0  0  0  0
  6  7  4  0  0  0  0
  6  9  1  0  0  0  0
  7  8  4  0  0  0  0
  9 10  1  0  0  0  0
  9 14  1  0  0  0  0
 10 11  1  0  0  0  0
 11 12  1  0  0  0  0
 11 13  1  0  0  0  0
 14 15  1  0  0  0  0
 14 16  1  0  0  0  0
 14 20  1  0  0  0  0
 16 17  1  0  0  0  0
 17 18  1  0  0  0  0
 18 19  1  0  0  0  0
 19 20  1  0  0  0  0
M  END
>  <Name_Molregno>
Venlafaxine

>  <5-HT1A>
5

>  <5-HT1B>
5

>  <5-HT1D>
5

>  <5-HT1E>
5

>  <5-HT2A>
5.33

>  <5-HT2C>
5.35

>  <5-HT6>
5.55

>  <5-HT7>
5

>  <Alpha-1A>
5

>  <Alpha-2A>
5.5

>  <DOPAMINE D2>
5

>  <DOPAMINE D3>
5

>  <Dopamine transporter>
5.17

>  <HISTAMINE H1>
5

>  <Muscarinic acetylcholine receptor M1>
5.5

>  <Muscarinic acetylcholine receptor M2>
5.5

>  <Muscarinic acetylcholine receptor M3>
5

>  <Muscarinic acetylcholine receptor M4>
5

>  <Muscarinic acetylcholine receptor M5>
5

>  <Norepinephrine transporter>
5.82

>  <Serotonin transporter>
7.43

$$$$
ZIPRASIDONE
  Marvin  02231216192D 0   1.00000     0.00000     0

 28 32  0  0  0  0  0  0  0  0999 V2000
   -5.2868    0.2535    0.0000 Cl  0  0  0  0  0  0  0  0  0
   -4.7347    0.8666    0.0000 C   0  0  0  0  0  0  0  0  0
   -4.9897    1.6513    0.0000 C   0  0  0  0  0  0  0  0  0
   -4.4376    2.2643    0.0000 C   0  0  0  0  0  0  0  0  0
   -4.5239    3.0848    0.0000 N   0  0  0  0  0  0  0  0  0
   -3.7702    3.4204    0.0000 C   0  0  0  0  0  0  0  0  0
   -3.5987    4.2274    0.0000 O   0  0  0  0  0  0  0  0  0
   -3.2182    2.8073    0.0000 C   0  0  0  0  0  0  0  0  0
   -3.6307    2.0928    0.0000 C   0  0  0  0  0  0  0  0  0
   -3.3757    1.3082    0.0000 C   0  0  0  0  0  0  0  0  0
   -3.9278    0.6951    0.0000 C   0  0  0  0  0  0  0  0  0
   -3.6728   -0.0895    0.0000 C   0  0  0  0  0  0  0  0  0
   -2.8658   -0.2610    0.0000 C   0  0  0  0  0  0  0  0  0
   -2.6109   -1.0457    0.0000 N   0  0  0  0  0  0  0  0  0
   -1.8039   -1.2172    0.0000 C   0  0  0  0  0  0  0  0  0
   -1.5490   -2.0018    0.0000 C   0  0  0  0  0  0  0  0  0
   -2.1010   -2.6149    0.0000 N   0  0  0  0  0  0  0  0  0
   -2.9080   -2.4434    0.0000 C   0  0  0  0  0  0  0  0  0
   -3.1629   -1.6588    0.0000 C   0  0  0  0  0  0  0  0  0
   -1.8461   -3.3995    0.0000 C   0  0  0  0  0  0  0  0  0
   -2.3310   -4.0670    0.0000 N   0  0  0  0  0  0  0  0  0
   -1.8461   -4.7344    0.0000 S   0  0  0  0  0  0  0  0  0
   -1.0615   -4.4795    0.0000 C   0  0  0  0  0  0  0  0  0
   -1.0615   -3.6545    0.0000 C   0  0  0  0  0  0  0  0  0
   -0.3470   -3.2420    0.0000 C   0  0  0  0  0  0  0  0  0
    0.3675   -3.6545    0.0000 C   0  0  0  0  0  0  0  0  0
    0.3675   -4.4795    0.0000 C   0  0  0  0  0  0  0  0  0
   -0.3470   -4.8920    0.0000 C   0  0  0  0  0  0  0  0  0
  1  2  1  0  0  0  0
  2  3  4  0  0  0  0
  2 11  4  0  0  0  0
  3  4  4  0  0  0  0
  4  5  1  0  0  0  0
  4  9  4  0  0  0  0
  5  6  1  0  0  0  0
  6  7  2  0  0  0  0
  6  8  1  0  0  0  0
  8  9  1  0  0  0  0
  9 10  4  0  0  0  0
 10 11  4  0  0  0  0
 11 12  1  0  0  0  0
 12 13  1  0  0  0  0
 13 14  1  0  0  0  0
 14 15  1  0  0  0  0
 14 19  1  0  0  0  0
 15 16  1  0  0  0  0
 16 17  1  0  0  0  0
 17 18  1  0  0  0  0
 17 20  1  0  0  0  0
 18 19  1  0  0  0  0
 20 21  4  0  0  0  0
 20 24  4  0  0  0  0
 21 22  4  0  0  0  0
 22 23  4  0  0  0  0
 23 24  4  0  0  0  0
 23 28  4  0  0  0  0
 24 25  4  0  0  0  0
 25 26  4  0  0  0  0
 26 27  4  0  0  0  0
 27 28  4  0  0  0  0
M  END
>  <Name_Molregno>
ZIPRASIDONE

>  <5-HT1A>
8.19

>  <5-HT1B>
8.7

>  <5-HT1D>
8.32

>  <5-HT1E>
6.17

>  <5-HT2A>
9.54

>  <5-HT2C>
8.82

>  <5-HT3>
5.7

>  <5-HT5>
6.54

>  <5-HT6>
7.17

>  <5-HT7>
8.23

>  <Alpha-1A>
7.74

>  <Alpha-1B>
8.05

>  <Alpha-2A>
6.8

>  <Alpha-2B>
7.32

>  <Alpha-2C>
7.15

>  <Beta-1>
5.3

>  <Beta-2>
5.15

>  <DOPAMINE D1>
7.1

>  <DOPAMINE D2>
8.39

>  <DOPAMINE D3>
8.21

>  <DOPAMINE D4>
7.43

>  <DOPAMINE D5>
6.82

>  <Dopamine transporter>
5

>  <HISTAMINE H1>
7.51

>  <HISTAMINE H2>
5.46

>  <HISTAMINE H4>
5

>  <Muscarinic acetylcholine receptor M1>
5.53

>  <Muscarinic acetylcholine receptor M2>
5.26

>  <Muscarinic acetylcholine receptor M3>
5.3

>  <Muscarinic acetylcholine receptor M4>
5.4

>  <Muscarinic acetylcholine receptor M5>
5.4

>  <Norepinephrine transporter>
7.36

>  <Serotonin transporter>
6.92

$$$$
ZOTEPINE
  Marvin  02231216192D 0   1.00000     0.00000     0

 22 24  0  0  0  0  0  0  0  0999 V2000
    1.8575   -4.4413    0.0000 Cl  0  0  0  0  0  0  0  0  0
    1.0691   -4.1981    0.0000 C   0  0  0  0  0  0  0  0  0
    0.8856   -3.3938    0.0000 C   0  0  0  0  0  0  0  0  0
    0.0972   -3.1507    0.0000 C   0  0  0  0  0  0  0  0  0
   -0.5076   -3.7118    0.0000 C   0  0  0  0  0  0  0  0  0
   -1.3233   -3.5888    0.0000 S   0  0  0  0  0  0  0  0  0
   -1.7358   -2.8744    0.0000 C   0  0  0  0  0  0  0  0  0
   -1.4344   -2.1064    0.0000 C   0  0  0  0  0  0  0  0  0
   -0.6461   -1.8632    0.0000 C   0  0  0  0  0  0  0  0  0
    0.0356   -2.3280    0.0000 C   0  0  0  0  0  0  0  0  0
    0.7500   -1.9155    0.0000 O   0  0  0  0  0  0  0  0  0
    1.4645   -2.3280    0.0000 C   0  0  0  0  0  0  0  0  0
    2.1790   -1.9155    0.0000 C   0  0  0  0  0  0  0  0  0
    2.8934   -2.3280    0.0000 N   0  0  0  0  0  0  0  0  0
    3.6079   -1.9155    0.0000 C   0  0  0  0  0  0  0  0  0
    2.8934   -3.1530    0.0000 C   0  0  0  0  0  0  0  0  0
   -1.9488   -1.4614    0.0000 C   0  0  0  0  0  0  0  0  0
   -2.7646   -1.5843    0.0000 C   0  0  0  0  0  0  0  0  0
   -3.0660   -2.3523    0.0000 C   0  0  0  0  0  0  0  0  0
   -2.5516   -2.9973    0.0000 C   0  0  0  0  0  0  0  0  0
   -0.3240   -4.5161    0.0000 C   0  0  0  0  0  0  0  0  0
    0.4644   -4.7593    0.0000 C   0  0  0  0  0  0  0  0  0
  1  2  1  0  0  0  0
  2  3  4  0  0  0  0
  2 22  4  0  0  0  0
  3  4  4  0  0  0  0
  4  5  4  0  0  0  0
  4 10  1  0  0  0  0
  5  6  1  0  0  0  0
  5 21  4  0  0  0  0
  6  7  1  0  0  0  0
  7  8  4  0  0  0  0
  7 20  4  0  0  0  0
  8  9  1  0  0  0  0
  8 17  4  0  0  0  0
  9 10  2  0  0  0  0
 10 11  1  0  0  0  0
 11 12  1  0  0  0  0
 12 13  1  0  0  0  0
 13 14  1  0  0  0  0
 14 15  1  0  0  0  0
 14 16  1  0  0  0  0
 17 18  4  0  0  0  0
 18 19  4  0  0  0  0
 19 20  4  0  0  0  0
 21 22  4  0  0  0  0
M  END
>  <Name_Molregno>
ZOTEPINE

>  <5-HT1A>
6.41

>  <5-HT1B>
7.23

>  <5-HT1D>
7.02

>  <5-HT1E>
6.23

>  <5-HT2A>
8.58

>  <5-HT2C>
8.49

>  <5-HT3>
6.33

>  <5-HT5>
7.54

>  <5-HT6>
8.22

>  <5-HT7>
7.92

>  <Alpha-1A>
8.15

>  <Alpha-1B>
8.3

>  <Alpha-2A>
6.68

>  <Alpha-2B>
8.27

>  <Alpha-2C>
7.02

>  <Beta-1>
5.19

>  <Beta-2>
5.32

>  <DOPAMINE D1>
7.15

>  <DOPAMINE D2>
7.98

>  <DOPAMINE D3>
8.19

>  <DOPAMINE D4>
7.57

>  <DOPAMINE D5>
6.61

>  <Dopamine transporter>
5.44

>  <HISTAMINE H1>
8.64

>  <HISTAMINE H2>
6.3

>  <HISTAMINE H4>
5.7

>  <Muscarinic acetylcholine receptor M1>
6.37

>  <Muscarinic acetylcholine receptor M2>
5.92

>  <Muscarinic acetylcholine receptor M3>
6.07

>  <Muscarinic acetylcholine receptor M4>
6.06

>  <Muscarinic acetylcholine receptor M5>
5.8

>  <Norepinephrine transporter>
6.28

>  <Serotonin transporter>
6.41

$$$$
