10383
  Marvin  02231216192D 0   1.00000     0.00000     0

  9  9  0  0  1  0  0  0  0  0999 V2000
   -2.0047   -1.9979    0.0000 N   0  0  0  0  0  0  0  0  0
   -2.2597   -1.2133    0.0000 C   0  0  0  0  0  0  0  0  0
   -1.5922   -0.7283    0.0000 C   0  0  0  0  0  0  0  0  0
   -0.9248   -1.2133    0.0000 N   0  0  0  0  0  0  0  0  0
   -1.1797   -1.9979    0.0000 C   0  0  0  0  0  0  0  0  0
   -1.5922    0.0967    0.0000 C   0  0  0  0  0  0  0  0  0
   -0.8778    0.5092    0.0000 C   0  0  0  0  0  0  0  0  0
   -0.8778    1.3342    0.0000 N   0  0  0  0  0  0  0  0  0
   -0.1633    0.0967    0.0000 C   0  0  0  0  0  0  0  0  0
  1  2  4  0  0  0  0
  1  5  4  0  0  0  0
  2  3  4  0  0  0  0
  3  4  4  0  0  0  0
  3  6  1  0  0  0  0
  4  5  4  0  0  0  0
  6  7  1  0  0  0  0
  7  8  1  0  0  0  0
  7  9  1  0  0  0  0
M  STY  1   1 DAT
M  SAL   1  1   1
M  SDT   1 MRV_IMPLICIT_H                                        
M  SDD   1     0.0000    0.0000    DR    ALL  0       0  
M  SED   1 IMPL_H1
M  END
>  <Name_Molregno>
10383

>  <HISTAMINE H3>
8.98

>  <HISTAMINE H4>
6.74

$$$$
10519
  Marvin  02231216192D 0   1.00000     0.00000     0

 10  9  0  0  0  0  0  0  0  0999 V2000
    2.1160    0.4045    0.0000 S   0  0  0  0  0  0  0  0  0
    1.4016   -0.0080    0.0000 C   0  0  0  0  0  0  0  0  0
    0.6871    0.4045    0.0000 C   0  0  0  0  0  0  0  0  0
   -0.0274   -0.0080    0.0000 C   0  0  0  0  0  0  0  0  0
   -0.7419    0.4045    0.0000 N   0  0  0  0  0  0  0  0  0
   -1.4563   -0.0080    0.0000 C   0  0  0  0  0  0  0  0  0
   -0.7419    1.2295    0.0000 C   0  0  0  0  0  0  0  0  0
    2.8305   -0.0080    0.0000 C   0  0  0  0  0  0  0  0  0
    3.5450    0.4045    0.0000 N   0  0  0  0  0  0  0  0  0
    2.8305   -0.8330    0.0000 N   0  0  0  0  0  0  0  0  0
  1  2  1  0  0  0  0
  1  8  1  0  0  0  0
  2  3  1  0  0  0  0
  3  4  1  0  0  0  0
  4  5  1  0  0  0  0
  5  6  1  0  0  0  0
  5  7  1  0  0  0  0
  8  9  1  0  0  0  0
  8 10  2  0  0  0  0
M  END
>  <Name_Molregno>
10519

>  <HISTAMINE H3>
6.08

>  <HISTAMINE H4>
6.24

$$$$
14715
  Marvin  02231216192D 0   1.00000     0.00000     0

 28 31  0  0  0  0  0  0  0  0999 V2000
    4.6145    4.0451    0.0000 Cl  0  0  0  0  0  0  0  0  0
    5.3290    3.6326    0.0000 C   0  0  0  0  0  0  0  0  0
    6.0434    4.0451    0.0000 C   0  0  0  0  0  0  0  0  0
    6.7579    3.6326    0.0000 C   0  0  0  0  0  0  0  0  0
    7.4724    4.0451    0.0000 N   0  0  0  0  0  0  0  0  0
    8.1869    3.6326    0.0000 C   0  0  0  0  0  0  0  0  0
    8.1869    2.8076    0.0000 C   0  0  0  0  0  0  0  0  0
    7.4724    2.3951    0.0000 C   0  0  0  0  0  0  0  0  0
    7.4724    1.5701    0.0000 N   0  0  0  0  0  0  0  0  0
    6.7579    1.1576    0.0000 C   0  0  0  0  0  0  0  0  0
    6.7579    0.3326    0.0000 C   0  0  0  0  0  0  0  0  0
    6.0434   -0.0799    0.0000 C   0  0  0  0  0  0  0  0  0
    5.3290    0.3326    0.0000 C   0  0  0  0  0  0  0  0  0
    4.6145   -0.0799    0.0000 O   0  0  0  0  0  0  0  0  0
    4.6145   -0.9049    0.0000 C   0  0  0  0  0  0  0  0  0
    3.9000   -1.3174    0.0000 C   0  0  0  0  0  0  0  0  0
    3.9000   -2.1424    0.0000 C   0  0  0  0  0  0  0  0  0
    3.1856   -2.5549    0.0000 N   0  0  0  0  0  0  0  0  0
    3.1856   -3.3799    0.0000 C   0  0  0  0  0  0  0  0  0
    2.4711   -3.7924    0.0000 C   0  0  0  0  0  0  0  0  0
    1.7566   -3.3799    0.0000 C   0  0  0  0  0  0  0  0  0
    1.7566   -2.5549    0.0000 C   0  0  0  0  0  0  0  0  0
    2.4711   -2.1424    0.0000 C   0  0  0  0  0  0  0  0  0
    5.3290    1.1576    0.0000 C   0  0  0  0  0  0  0  0  0
    6.0434    1.5701    0.0000 C   0  0  0  0  0  0  0  0  0
    6.7579    2.8076    0.0000 C   0  0  0  0  0  0  0  0  0
    6.0434    2.3951    0.0000 C   0  0  0  0  0  0  0  0  0
    5.3290    2.8076    0.0000 C   0  0  0  0  0  0  0  0  0
  1  2  1  0  0  0  0
  2  3  4  0  0  0  0
  2 28  4  0  0  0  0
  3  4  4  0  0  0  0
  4  5  4  0  0  0  0
  4 26  4  0  0  0  0
  5  6  4  0  0  0  0
  6  7  4  0  0  0  0
  7  8  4  0  0  0  0
  8  9  1  0  0  0  0
  8 26  4  0  0  0  0
  9 10  1  0  0  0  0
 10 11  4  0  0  0  0
 10 25  4  0  0  0  0
 11 12  4  0  0  0  0
 12 13  4  0  0  0  0
 13 14  1  0  0  0  0
 13 24  4  0  0  0  0
 14 15  1  0  0  0  0
 15 16  1  0  0  0  0
 16 17  1  0  0  0  0
 17 18  1  0  0  0  0
 18 19  1  0  0  0  0
 18 23  1  0  0  0  0
 19 20  1  0  0  0  0
 20 21  1  0  0  0  0
 21 22  1  0  0  0  0
 22 23  1  0  0  0  0
 24 25  4  0  0  0  0
 26 27  4  0  0  0  0
 27 28  4  0  0  0  0
M  STY  1   1 DAT
M  SAL   1  1   5
M  SDT   1 MRV_IMPLICIT_H                                        
M  SDD   1     0.0000    0.0000    DR    ALL  0       0  
M  SED   1 IMPL_H1
M  END
>  <Name_Molregno>
14715

>  <HISTAMINE H3>
10.1

$$$$
14718
  Marvin  02231216192D 0   1.00000     0.00000     0

 20 22  0  0  0  0  0  0  0  0999 V2000
   -0.1307   -0.2468    0.0000 O   0  0  0  0  0  0  0  0  0
    0.5837    0.1657    0.0000 C   0  0  0  0  0  0  0  0  0
    1.2982   -0.2468    0.0000 C   0  0  0  0  0  0  0  0  0
    2.0127    0.1657    0.0000 C   0  0  0  0  0  0  0  0  0
    2.7272   -0.2468    0.0000 C   0  0  0  0  0  0  0  0  0
    3.4808    0.0888    0.0000 N   0  0  0  0  0  0  0  0  0
    4.0329   -0.5243    0.0000 C   0  0  0  0  0  0  0  0  0
    3.6204   -1.2388    0.0000 N   0  0  0  0  0  0  0  0  0
    2.8134   -1.0672    0.0000 C   0  0  0  0  0  0  0  0  0
   -0.8452    0.1657    0.0000 C   0  0  0  0  0  0  0  0  0
   -1.5597   -0.2468    0.0000 C   0  0  0  0  0  0  0  0  0
   -2.2741    0.1657    0.0000 C   0  0  0  0  0  0  0  0  0
   -2.2741    0.9907    0.0000 C   0  0  0  0  0  0  0  0  0
   -1.5597    1.4032    0.0000 C   0  0  0  0  0  0  0  0  0
   -0.8452    0.9907    0.0000 C   0  0  0  0  0  0  0  0  0
   -2.9886    1.4032    0.0000 C   0  0  0  0  0  0  0  0  0
   -3.7031    0.9907    0.0000 O   0  0  0  0  0  0  0  0  0
   -2.9886    2.2282    0.0000 C   0  0  0  0  0  0  0  0  0
   -3.4011    2.9427    0.0000 C   0  0  0  0  0  0  0  0  0
   -2.5761    2.9427    0.0000 C   0  0  0  0  0  0  0  0  0
  1  2  1  0  0  0  0
  1 10  1  0  0  0  0
  2  3  1  0  0  0  0
  3  4  1  0  0  0  0
  4  5  1  0  0  0  0
  5  6  4  0  0  0  0
  5  9  4  0  0  0  0
  6  7  4  0  0  0  0
  7  8  4  0  0  0  0
  8  9  4  0  0  0  0
 10 11  4  0  0  0  0
 10 15  4  0  0  0  0
 11 12  4  0  0  0  0
 12 13  4  0  0  0  0
 13 14  4  0  0  0  0
 13 16  1  0  0  0  0
 14 15  4  0  0  0  0
 16 17  2  0  0  0  0
 16 18  1  0  0  0  0
 18 19  1  0  0  0  0
 18 20  1  0  0  0  0
 19 20  1  0  0  0  0
M  STY  1   1 DAT
M  SAL   1  1   8
M  SDT   1 MRV_IMPLICIT_H                                        
M  SDD   1     0.0000    0.0000    DR    ALL  0       0  
M  SED   1 IMPL_H1
M  END
>  <Name_Molregno>
14718

>  <Alpha-2A>
7.37

>  <Alpha-2C>
7.2

>  <HISTAMINE H1>
5

>  <HISTAMINE H2>
5

>  <HISTAMINE H3>
7.19

>  <HISTAMINE H4>
5.97

$$$$
14727
  Marvin  02231216192D 0   1.00000     0.00000     0

 34 38  0  0  0  0  0  0  0  0999 V2000
   -2.4547   -2.4570    0.0000 O   0  0  0  0  0  0  0  0  0
   -3.1691   -2.8695    0.0000 C   0  0  0  0  0  0  0  0  0
   -3.8836   -2.4570    0.0000 C   0  0  0  0  0  0  0  0  0
   -4.5981   -2.8695    0.0000 C   0  0  0  0  0  0  0  0  0
   -5.3126   -2.4570    0.0000 N   0  0  0  0  0  0  0  0  0
   -6.0270   -2.8695    0.0000 C   0  0  0  0  0  0  0  0  0
   -6.7415   -2.4570    0.0000 C   0  0  0  0  0  0  0  0  0
   -6.7415   -1.6320    0.0000 C   0  0  0  0  0  0  0  0  0
   -6.0270   -1.2195    0.0000 C   0  0  0  0  0  0  0  0  0
   -5.3126   -1.6320    0.0000 C   0  0  0  0  0  0  0  0  0
   -2.4547   -1.6320    0.0000 C   0  0  0  0  0  0  0  0  0
   -3.1691   -1.2195    0.0000 C   0  0  0  0  0  0  0  0  0
   -3.1691   -0.3945    0.0000 C   0  0  0  0  0  0  0  0  0
   -2.4547    0.0180    0.0000 C   0  0  0  0  0  0  0  0  0
   -1.7402   -0.3945    0.0000 C   0  0  0  0  0  0  0  0  0
   -1.7402   -1.2195    0.0000 C   0  0  0  0  0  0  0  0  0
   -2.4547    0.8430    0.0000 C   0  0  0  0  0  0  0  0  0
   -1.7402    1.2555    0.0000 C   0  0  0  0  0  0  0  0  0
   -1.7402    2.0805    0.0000 C   0  0  0  0  0  0  0  0  0
   -1.0257    2.4930    0.0000 N   0  0  0  0  0  0  0  0  0
   -1.0257    3.3180    0.0000 C   0  0  0  0  0  0  0  0  0
   -0.3113    3.7305    0.0000 C   0  0  0  0  0  0  0  0  0
    0.4032    3.3180    0.0000 C   0  0  0  0  0  0  0  0  0
    1.1177    3.7305    0.0000 C   0  0  0  0  0  0  0  0  0
    1.1177    4.5555    0.0000 C   0  0  0  0  0  0  0  0  0
    0.4032    4.9680    0.0000 C   0  0  0  0  0  0  0  0  0
   -0.3113    4.5555    0.0000 C   0  0  0  0  0  0  0  0  0
   -1.0257    4.9680    0.0000 N   0  0  0  0  0  0  0  0  0
   -1.7402    4.5555    0.0000 C   0  0  0  0  0  0  0  0  0
   -1.7402    3.7305    0.0000 C   0  0  0  0  0  0  0  0  0
   -2.4547    3.3180    0.0000 C   0  0  0  0  0  0  0  0  0
   -3.1691    3.7305    0.0000 C   0  0  0  0  0  0  0  0  0
   -3.1691    4.5555    0.0000 C   0  0  0  0  0  0  0  0  0
   -2.4547    4.9680    0.0000 C   0  0  0  0  0  0  0  0  0
  1  2  1  0  0  0  0
  1 11  1  0  0  0  0
  2  3  1  0  0  0  0
  3  4  1  0  0  0  0
  4  5  1  0  0  0  0
  5  6  1  0  0  0  0
  5 10  1  0  0  0  0
  6  7  1  0  0  0  0
  7  8  1  0  0  0  0
  8  9  1  0  0  0  0
  9 10  1  0  0  0  0
 11 12  4  0  0  0  0
 11 16  4  0  0  0  0
 12 13  4  0  0  0  0
 13 14  4  0  0  0  0
 14 15  4  0  0  0  0
 14 17  1  0  0  0  0
 15 16  4  0  0  0  0
 17 18  1  0  0  0  0
 18 19  1  0  0  0  0
 19 20  1  0  0  0  0
 20 21  1  0  0  0  0
 21 22  4  0  0  0  0
 21 30  4  0  0  0  0
 22 23  1  0  0  0  0
 22 27  4  0  0  0  0
 23 24  1  0  0  0  0
 24 25  1  0  0  0  0
 25 26  1  0  0  0  0
 26 27  1  0  0  0  0
 27 28  4  0  0  0  0
 28 29  4  0  0  0  0
 29 30  4  0  0  0  0
 29 34  4  0  0  0  0
 30 31  4  0  0  0  0
 31 32  4  0  0  0  0
 32 33  4  0  0  0  0
 33 34  4  0  0  0  0
M  STY  1   1 DAT
M  SAL   1  1  28
M  SDT   1 MRV_IMPLICIT_H                                        
M  SDD   1     0.0000    0.0000    DR    ALL  0       0  
M  SED   1 IMPL_H1
M  END
>  <Name_Molregno>
14727

>  <HISTAMINE H3>
8.9

$$$$
14734
  Marvin  02231216192D 0   1.00000     0.00000     0

 35 39  0  0  0  0  0  0  0  0999 V2000
   -4.9456   -1.6490    0.0000 O   0  0  0  0  0  0  0  0  0
   -4.9456   -2.4740    0.0000 C   0  0  0  0  0  0  0  0  0
   -5.6601   -2.8865    0.0000 C   0  0  0  0  0  0  0  0  0
   -5.6601   -3.7115    0.0000 C   0  0  0  0  0  0  0  0  0
   -6.3745   -4.1240    0.0000 N   0  0  0  0  0  0  0  0  0
   -6.3745   -4.9490    0.0000 C   0  0  0  0  0  0  0  0  0
   -7.0890   -5.3615    0.0000 C   0  0  0  0  0  0  0  0  0
   -7.8035   -4.9490    0.0000 C   0  0  0  0  0  0  0  0  0
   -7.8035   -4.1240    0.0000 C   0  0  0  0  0  0  0  0  0
   -7.0890   -3.7115    0.0000 C   0  0  0  0  0  0  0  0  0
   -4.2311   -1.2365    0.0000 C   0  0  0  0  0  0  0  0  0
   -4.2311   -0.4115    0.0000 C   0  0  0  0  0  0  0  0  0
   -3.5167    0.0010    0.0000 C   0  0  0  0  0  0  0  0  0
   -2.8022   -0.4115    0.0000 C   0  0  0  0  0  0  0  0  0
   -2.8022   -1.2365    0.0000 C   0  0  0  0  0  0  0  0  0
   -3.5167   -1.6490    0.0000 C   0  0  0  0  0  0  0  0  0
   -2.0877    0.0010    0.0000 C   0  0  0  0  0  0  0  0  0
   -2.0877    0.8260    0.0000 C   0  0  0  0  0  0  0  0  0
   -1.3733    1.2385    0.0000 C   0  0  0  0  0  0  0  0  0
   -1.3733    2.0635    0.0000 C   0  0  0  0  0  0  0  0  0
   -0.6588    2.4760    0.0000 N   0  0  0  0  0  0  0  0  0
   -0.6588    3.3010    0.0000 C   0  0  0  0  0  0  0  0  0
    0.0557    3.7135    0.0000 C   0  0  0  0  0  0  0  0  0
    0.7702    3.3010    0.0000 C   0  0  0  0  0  0  0  0  0
    1.4846    3.7135    0.0000 C   0  0  0  0  0  0  0  0  0
    1.4846    4.5385    0.0000 C   0  0  0  0  0  0  0  0  0
    0.7702    4.9510    0.0000 C   0  0  0  0  0  0  0  0  0
    0.0557    4.5385    0.0000 C   0  0  0  0  0  0  0  0  0
   -0.6588    4.9510    0.0000 N   0  0  0  0  0  0  0  0  0
   -1.3733    4.5385    0.0000 C   0  0  0  0  0  0  0  0  0
   -1.3733    3.7135    0.0000 C   0  0  0  0  0  0  0  0  0
   -2.0877    3.3010    0.0000 C   0  0  0  0  0  0  0  0  0
   -2.8022    3.7135    0.0000 C   0  0  0  0  0  0  0  0  0
   -2.8022    4.5385    0.0000 C   0  0  0  0  0  0  0  0  0
   -2.0877    4.9510    0.0000 C   0  0  0  0  0  0  0  0  0
  1  2  1  0  0  0  0
  1 11  1  0  0  0  0
  2  3  1  0  0  0  0
  3  4  1  0  0  0  0
  4  5  1  0  0  0  0
  5  6  1  0  0  0  0
  5 10  1  0  0  0  0
  6  7  1  0  0  0  0
  7  8  1  0  0  0  0
  8  9  1  0  0  0  0
  9 10  1  0  0  0  0
 11 12  4  0  0  0  0
 11 16  4  0  0  0  0
 12 13  4  0  0  0  0
 13 14  4  0  0  0  0
 14 15  4  0  0  0  0
 14 17  1  0  0  0  0
 15 16  4  0  0  0  0
 17 18  1  0  0  0  0
 18 19  1  0  0  0  0
 19 20  1  0  0  0  0
 20 21  1  0  0  0  0
 21 22  1  0  0  0  0
 22 23  4  0  0  0  0
 22 31  4  0  0  0  0
 23 24  1  0  0  0  0
 23 28  4  0  0  0  0
 24 25  1  0  0  0  0
 25 26  1  0  0  0  0
 26 27  1  0  0  0  0
 27 28  1  0  0  0  0
 28 29  4  0  0  0  0
 29 30  4  0  0  0  0
 30 31  4  0  0  0  0
 30 35  4  0  0  0  0
 31 32  4  0  0  0  0
 32 33  4  0  0  0  0
 33 34  4  0  0  0  0
 34 35  4  0  0  0  0
M  STY  1   1 DAT
M  SAL   1  1  29
M  SDT   1 MRV_IMPLICIT_H                                        
M  SDD   1     0.0000    0.0000    DR    ALL  0       0  
M  SED   1 IMPL_H1
M  END
>  <Name_Molregno>
14734

>  <HISTAMINE H3>
8.72

$$$$
14768
  Marvin  02231216192D 0   1.00000     0.00000     0

 31 34  0  0  0  0  0  0  0  0999 V2000
   -5.0453    1.6173    0.0000 O   0  0  0  0  0  0  0  0  0
   -5.7598    1.2048    0.0000 C   0  0  0  0  0  0  0  0  0
   -6.4743    1.6173    0.0000 C   0  0  0  0  0  0  0  0  0
   -7.1887    1.2048    0.0000 C   0  0  0  0  0  0  0  0  0
   -7.9032    1.6173    0.0000 N   0  0  0  0  0  0  0  0  0
   -8.6177    1.2048    0.0000 C   0  0  0  0  0  0  0  0  0
   -9.3321    1.6173    0.0000 C   0  0  0  0  0  0  0  0  0
   -9.3321    2.4423    0.0000 C   0  0  0  0  0  0  0  0  0
   -8.6177    2.8548    0.0000 C   0  0  0  0  0  0  0  0  0
   -7.9032    2.4423    0.0000 C   0  0  0  0  0  0  0  0  0
   -4.3308    1.2048    0.0000 C   0  0  0  0  0  0  0  0  0
   -3.6164    1.6173    0.0000 C   0  0  0  0  0  0  0  0  0
   -2.9019    1.2048    0.0000 C   0  0  0  0  0  0  0  0  0
   -2.9019    0.3798    0.0000 C   0  0  0  0  0  0  0  0  0
   -3.6164   -0.0327    0.0000 C   0  0  0  0  0  0  0  0  0
   -4.3308    0.3798    0.0000 C   0  0  0  0  0  0  0  0  0
   -2.1874   -0.0327    0.0000 C   0  0  0  0  0  0  0  0  0
   -1.4730    0.3798    0.0000 C   0  0  0  0  0  0  0  0  0
   -0.7585   -0.0327    0.0000 C   0  0  0  0  0  0  0  0  0
   -0.0440    0.3798    0.0000 C   0  0  0  0  0  0  0  0  0
    0.6705   -0.0327    0.0000 N   0  0  0  0  0  0  0  0  0
    1.3849    0.3798    0.0000 C   0  0  0  0  0  0  0  0  0
    2.0994   -0.0327    0.0000 C   0  0  0  0  0  0  0  0  0
    2.8139    0.3798    0.0000 C   0  0  0  0  0  0  0  0  0
    2.8139    1.2048    0.0000 N   0  0  0  0  0  0  0  0  0
    2.0994    1.6173    0.0000 C   0  0  0  0  0  0  0  0  0
    1.3849    1.2048    0.0000 C   0  0  0  0  0  0  0  0  0
    3.5283   -0.0327    0.0000 C   0  0  0  0  0  0  0  0  0
    3.5283   -0.8577    0.0000 C   0  0  0  0  0  0  0  0  0
    2.8139   -1.2702    0.0000 C   0  0  0  0  0  0  0  0  0
    2.0994   -0.8577    0.0000 C   0  0  0  0  0  0  0  0  0
  1  2  1  0  0  0  0
  1 11  1  0  0  0  0
  2  3  1  0  0  0  0
  3  4  1  0  0  0  0
  4  5  1  0  0  0  0
  5  6  1  0  0  0  0
  5 10  1  0  0  0  0
  6  7  1  0  0  0  0
  7  8  1  0  0  0  0
  8  9  1  0  0  0  0
  9 10  1  0  0  0  0
 11 12  4  0  0  0  0
 11 16  4  0  0  0  0
 12 13  4  0  0  0  0
 13 14  4  0  0  0  0
 14 15  4  0  0  0  0
 14 17  1  0  0  0  0
 15 16  4  0  0  0  0
 17 18  1  0  0  0  0
 18 19  1  0  0  0  0
 19 20  1  0  0  0  0
 20 21  1  0  0  0  0
 21 22  1  0  0  0  0
 22 23  4  0  0  0  0
 22 27  4  0  0  0  0
 23 24  4  0  0  0  0
 23 31  4  0  0  0  0
 24 25  4  0  0  0  0
 24 28  4  0  0  0  0
 25 26  4  0  0  0  0
 26 27  4  0  0  0  0
 28 29  4  0  0  0  0
 29 30  4  0  0  0  0
 30 31  4  0  0  0  0
M  STY  1   1 DAT
M  SAL   1  1  25
M  SDT   1 MRV_IMPLICIT_H                                        
M  SDD   1     0.0000    0.0000    DR    ALL  0       0  
M  SED   1 IMPL_H1
M  END
>  <Name_Molregno>
14768

>  <HISTAMINE H3>
8.8

$$$$
14776
  Marvin  02231216192D 0   1.00000     0.00000     0

 30 33  0  0  0  0  0  0  0  0999 V2000
   -2.1061   -2.3615    0.0000 O   0  0  0  0  0  0  0  0  0
   -2.8206   -2.7740    0.0000 C   0  0  0  0  0  0  0  0  0
   -3.5351   -2.3615    0.0000 C   0  0  0  0  0  0  0  0  0
   -4.2495   -2.7740    0.0000 C   0  0  0  0  0  0  0  0  0
   -4.9640   -2.3615    0.0000 N   0  0  0  0  0  0  0  0  0
   -5.6785   -2.7740    0.0000 C   0  0  0  0  0  0  0  0  0
   -6.3929   -2.3615    0.0000 C   0  0  0  0  0  0  0  0  0
   -6.3929   -1.5365    0.0000 C   0  0  0  0  0  0  0  0  0
   -5.6785   -1.1240    0.0000 C   0  0  0  0  0  0  0  0  0
   -4.9640   -1.5365    0.0000 C   0  0  0  0  0  0  0  0  0
   -2.1061   -1.5365    0.0000 C   0  0  0  0  0  0  0  0  0
   -2.8206   -1.1240    0.0000 C   0  0  0  0  0  0  0  0  0
   -2.8206   -0.2990    0.0000 C   0  0  0  0  0  0  0  0  0
   -2.1061    0.1135    0.0000 C   0  0  0  0  0  0  0  0  0
   -1.3916   -0.2990    0.0000 C   0  0  0  0  0  0  0  0  0
   -1.3916   -1.1240    0.0000 C   0  0  0  0  0  0  0  0  0
   -2.1061    0.9385    0.0000 C   0  0  0  0  0  0  0  0  0
   -1.3916    1.3510    0.0000 C   0  0  0  0  0  0  0  0  0
   -1.3916    2.1760    0.0000 C   0  0  0  0  0  0  0  0  0
   -0.6772    2.5885    0.0000 N   0  0  0  0  0  0  0  0  0
   -0.6772    3.4135    0.0000 C   0  0  0  0  0  0  0  0  0
    0.0373    3.8260    0.0000 C   0  0  0  0  0  0  0  0  0
    0.0373    4.6510    0.0000 C   0  0  0  0  0  0  0  0  0
   -0.6772    5.0635    0.0000 N   0  0  0  0  0  0  0  0  0
   -1.3916    4.6510    0.0000 C   0  0  0  0  0  0  0  0  0
   -1.3916    3.8260    0.0000 C   0  0  0  0  0  0  0  0  0
    0.7518    5.0635    0.0000 C   0  0  0  0  0  0  0  0  0
    1.4662    4.6510    0.0000 C   0  0  0  0  0  0  0  0  0
    1.4662    3.8260    0.0000 C   0  0  0  0  0  0  0  0  0
    0.7518    3.4135    0.0000 C   0  0  0  0  0  0  0  0  0
  1  2  1  0  0  0  0
  1 11  1  0  0  0  0
  2  3  1  0  0  0  0
  3  4  1  0  0  0  0
  4  5  1  0  0  0  0
  5  6  1  0  0  0  0
  5 10  1  0  0  0  0
  6  7  1  0  0  0  0
  7  8  1  0  0  0  0
  8  9  1  0  0  0  0
  9 10  1  0  0  0  0
 11 12  4  0  0  0  0
 11 16  4  0  0  0  0
 12 13  4  0  0  0  0
 13 14  4  0  0  0  0
 14 15  4  0  0  0  0
 14 17  1  0  0  0  0
 15 16  4  0  0  0  0
 17 18  1  0  0  0  0
 18 19  1  0  0  0  0
 19 20  1  0  0  0  0
 20 21  1  0  0  0  0
 21 22  4  0  0  0  0
 21 26  4  0  0  0  0
 22 23  4  0  0  0  0
 22 30  4  0  0  0  0
 23 24  4  0  0  0  0
 23 27  4  0  0  0  0
 24 25  4  0  0  0  0
 25 26  4  0  0  0  0
 27 28  4  0  0  0  0
 28 29  4  0  0  0  0
 29 30  4  0  0  0  0
M  STY  1   1 DAT
M  SAL   1  1  24
M  SDT   1 MRV_IMPLICIT_H                                        
M  SDD   1     0.0000    0.0000    DR    ALL  0       0  
M  SED   1 IMPL_H1
M  END
>  <Name_Molregno>
14776

>  <HISTAMINE H3>
9.11

$$$$
14798
  Marvin  02231216192D 0   1.00000     0.00000     0

 33 37  0  0  0  0  0  0  0  0999 V2000
   -3.7930   -1.0542    0.0000 O   0  0  0  0  0  0  0  0  0
   -3.7930   -1.8792    0.0000 C   0  0  0  0  0  0  0  0  0
   -4.5074   -2.2917    0.0000 C   0  0  0  0  0  0  0  0  0
   -4.5074   -3.1167    0.0000 C   0  0  0  0  0  0  0  0  0
   -5.2219   -3.5292    0.0000 N   0  0  0  0  0  0  0  0  0
   -5.2219   -4.3542    0.0000 C   0  0  0  0  0  0  0  0  0
   -5.9364   -4.7667    0.0000 C   0  0  0  0  0  0  0  0  0
   -6.6509   -4.3542    0.0000 C   0  0  0  0  0  0  0  0  0
   -6.6509   -3.5292    0.0000 C   0  0  0  0  0  0  0  0  0
   -5.9364   -3.1167    0.0000 C   0  0  0  0  0  0  0  0  0
   -3.0785   -0.6417    0.0000 C   0  0  0  0  0  0  0  0  0
   -3.0785    0.1833    0.0000 C   0  0  0  0  0  0  0  0  0
   -2.3640    0.5958    0.0000 C   0  0  0  0  0  0  0  0  0
   -1.6496    0.1833    0.0000 C   0  0  0  0  0  0  0  0  0
   -1.6496   -0.6417    0.0000 C   0  0  0  0  0  0  0  0  0
   -2.3640   -1.0542    0.0000 C   0  0  0  0  0  0  0  0  0
   -0.9351    0.5958    0.0000 C   0  0  0  0  0  0  0  0  0
   -0.9351    1.4208    0.0000 C   0  0  0  0  0  0  0  0  0
   -0.2206    1.8333    0.0000 N   0  0  0  0  0  0  0  0  0
   -0.2206    2.6583    0.0000 C   0  0  0  0  0  0  0  0  0
    0.4939    3.0708    0.0000 C   0  0  0  0  0  0  0  0  0
    1.2083    2.6583    0.0000 C   0  0  0  0  0  0  0  0  0
    1.9228    3.0708    0.0000 C   0  0  0  0  0  0  0  0  0
    1.9228    3.8958    0.0000 C   0  0  0  0  0  0  0  0  0
    1.2083    4.3083    0.0000 C   0  0  0  0  0  0  0  0  0
    0.4939    3.8958    0.0000 C   0  0  0  0  0  0  0  0  0
   -0.2206    4.3083    0.0000 N   0  0  0  0  0  0  0  0  0
   -0.9351    3.8958    0.0000 C   0  0  0  0  0  0  0  0  0
   -0.9351    3.0708    0.0000 C   0  0  0  0  0  0  0  0  0
   -1.6496    2.6583    0.0000 C   0  0  0  0  0  0  0  0  0
   -2.3640    3.0708    0.0000 C   0  0  0  0  0  0  0  0  0
   -2.3640    3.8958    0.0000 C   0  0  0  0  0  0  0  0  0
   -1.6496    4.3083    0.0000 C   0  0  0  0  0  0  0  0  0
  1  2  1  0  0  0  0
  1 11  1  0  0  0  0
  2  3  1  0  0  0  0
  3  4  1  0  0  0  0
  4  5  1  0  0  0  0
  5  6  1  0  0  0  0
  5 10  1  0  0  0  0
  6  7  1  0  0  0  0
  7  8  1  0  0  0  0
  8  9  1  0  0  0  0
  9 10  1  0  0  0  0
 11 12  4  0  0  0  0
 11 16  4  0  0  0  0
 12 13  4  0  0  0  0
 13 14  4  0  0  0  0
 14 15  4  0  0  0  0
 14 17  1  0  0  0  0
 15 16  4  0  0  0  0
 17 18  1  0  0  0  0
 18 19  1  0  0  0  0
 19 20  1  0  0  0  0
 20 21  4  0  0  0  0
 20 29  4  0  0  0  0
 21 22  1  0  0  0  0
 21 26  4  0  0  0  0
 22 23  1  0  0  0  0
 23 24  1  0  0  0  0
 24 25  1  0  0  0  0
 25 26  1  0  0  0  0
 26 27  4  0  0  0  0
 27 28  4  0  0  0  0
 28 29  4  0  0  0  0
 28 33  4  0  0  0  0
 29 30  4  0  0  0  0
 30 31  4  0  0  0  0
 31 32  4  0  0  0  0
 32 33  4  0  0  0  0
M  STY  1   1 DAT
M  SAL   1  1  27
M  SDT   1 MRV_IMPLICIT_H                                        
M  SDD   1     0.0000    0.0000    DR    ALL  0       0  
M  SED   1 IMPL_H1
M  END
>  <Name_Molregno>
14798

>  <HISTAMINE H3>
9.5

$$$$
14825
  Marvin  02231216192D 0   1.00000     0.00000     0

 30 33  0  0  0  0  0  0  0  0999 V2000
    5.5984    3.9355    0.0000 Cl  0  0  0  0  0  0  0  0  0
    6.3129    3.5230    0.0000 C   0  0  0  0  0  0  0  0  0
    7.0274    3.9355    0.0000 C   0  0  0  0  0  0  0  0  0
    7.7418    3.5230    0.0000 C   0  0  0  0  0  0  0  0  0
    8.4563    3.9355    0.0000 N   0  0  0  0  0  0  0  0  0
    9.1708    3.5230    0.0000 C   0  0  0  0  0  0  0  0  0
    9.1708    2.6980    0.0000 C   0  0  0  0  0  0  0  0  0
    8.4563    2.2855    0.0000 C   0  0  0  0  0  0  0  0  0
    8.4563    1.4605    0.0000 N   0  0  0  0  0  0  0  0  0
    7.7418    1.0480    0.0000 C   0  0  0  0  0  0  0  0  0
    7.7418    0.2230    0.0000 C   0  0  0  0  0  0  0  0  0
    7.0274   -0.1895    0.0000 C   0  0  0  0  0  0  0  0  0
    7.0274   -1.0145    0.0000 C   0  0  0  0  0  0  0  0  0
    6.3129   -1.4270    0.0000 C   0  0  0  0  0  0  0  0  0
    5.5984   -1.0145    0.0000 C   0  0  0  0  0  0  0  0  0
    4.8839   -1.4270    0.0000 O   0  0  0  0  0  0  0  0  0
    4.8839   -2.2520    0.0000 C   0  0  0  0  0  0  0  0  0
    4.1695   -2.6645    0.0000 C   0  0  0  0  0  0  0  0  0
    4.1695   -3.4895    0.0000 C   0  0  0  0  0  0  0  0  0
    3.4550   -3.9020    0.0000 N   0  0  0  0  0  0  0  0  0
    3.4550   -4.7270    0.0000 C   0  0  0  0  0  0  0  0  0
    2.7405   -5.1395    0.0000 C   0  0  0  0  0  0  0  0  0
    2.0261   -4.7270    0.0000 C   0  0  0  0  0  0  0  0  0
    2.0261   -3.9020    0.0000 C   0  0  0  0  0  0  0  0  0
    2.7405   -3.4895    0.0000 C   0  0  0  0  0  0  0  0  0
    5.5984   -0.1895    0.0000 C   0  0  0  0  0  0  0  0  0
    6.3129    0.2230    0.0000 C   0  0  0  0  0  0  0  0  0
    7.7418    2.6980    0.0000 C   0  0  0  0  0  0  0  0  0
    7.0274    2.2855    0.0000 C   0  0  0  0  0  0  0  0  0
    6.3129    2.6980    0.0000 C   0  0  0  0  0  0  0  0  0
  1  2  1  0  0  0  0
  2  3  4  0  0  0  0
  2 30  4  0  0  0  0
  3  4  4  0  0  0  0
  4  5  4  0  0  0  0
  4 28  4  0  0  0  0
  5  6  4  0  0  0  0
  6  7  4  0  0  0  0
  7  8  4  0  0  0  0
  8  9  1  0  0  0  0
  8 28  4  0  0  0  0
  9 10  1  0  0  0  0
 10 11  1  0  0  0  0
 11 12  1  0  0  0  0
 12 13  4  0  0  0  0
 12 27  4  0  0  0  0
 13 14  4  0  0  0  0
 14 15  4  0  0  0  0
 15 16  1  0  0  0  0
 15 26  4  0  0  0  0
 16 17  1  0  0  0  0
 17 18  1  0  0  0  0
 18 19  1  0  0  0  0
 19 20  1  0  0  0  0
 20 21  1  0  0  0  0
 20 25  1  0  0  0  0
 21 22  1  0  0  0  0
 22 23  1  0  0  0  0
 23 24  1  0  0  0  0
 24 25  1  0  0  0  0
 26 27  4  0  0  0  0
 28 29  4  0  0  0  0
 29 30  4  0  0  0  0
M  STY  1   1 DAT
M  SAL   1  1   5
M  SDT   1 MRV_IMPLICIT_H                                        
M  SDD   1     0.0000    0.0000    DR    ALL  0       0  
M  SED   1 IMPL_H1
M  END
>  <Name_Molregno>
14825

>  <HISTAMINE H3>
9.29

$$$$
14851
  Marvin  02231216192D 0   1.00000     0.00000     0

 29 32  0  0  0  0  0  0  0  0999 V2000
   -3.4291   -0.4989    0.0000 O   0  0  0  0  0  0  0  0  0
   -3.4291   -1.3239    0.0000 C   0  0  0  0  0  0  0  0  0
   -4.1436   -1.7364    0.0000 C   0  0  0  0  0  0  0  0  0
   -4.1436   -2.5614    0.0000 C   0  0  0  0  0  0  0  0  0
   -4.8581   -2.9739    0.0000 N   0  0  0  0  0  0  0  0  0
   -4.8581   -3.7989    0.0000 C   0  0  0  0  0  0  0  0  0
   -5.5725   -4.2114    0.0000 C   0  0  0  0  0  0  0  0  0
   -6.2870   -3.7989    0.0000 C   0  0  0  0  0  0  0  0  0
   -6.2870   -2.9739    0.0000 C   0  0  0  0  0  0  0  0  0
   -5.5725   -2.5614    0.0000 C   0  0  0  0  0  0  0  0  0
   -2.7146   -0.0864    0.0000 C   0  0  0  0  0  0  0  0  0
   -2.7146    0.7386    0.0000 C   0  0  0  0  0  0  0  0  0
   -2.0002    1.1511    0.0000 C   0  0  0  0  0  0  0  0  0
   -1.2857    0.7386    0.0000 C   0  0  0  0  0  0  0  0  0
   -1.2857   -0.0864    0.0000 C   0  0  0  0  0  0  0  0  0
   -2.0002   -0.4989    0.0000 C   0  0  0  0  0  0  0  0  0
   -0.5712    1.1511    0.0000 C   0  0  0  0  0  0  0  0  0
   -0.5712    1.9761    0.0000 C   0  0  0  0  0  0  0  0  0
    0.1432    2.3886    0.0000 N   0  0  0  0  0  0  0  0  0
    0.1432    3.2136    0.0000 C   0  0  0  0  0  0  0  0  0
    0.8577    3.6261    0.0000 C   0  0  0  0  0  0  0  0  0
    0.8577    4.4511    0.0000 C   0  0  0  0  0  0  0  0  0
    0.1432    4.8636    0.0000 N   0  0  0  0  0  0  0  0  0
   -0.5712    4.4511    0.0000 C   0  0  0  0  0  0  0  0  0
   -0.5712    3.6261    0.0000 C   0  0  0  0  0  0  0  0  0
    1.5722    4.8636    0.0000 C   0  0  0  0  0  0  0  0  0
    2.2867    4.4511    0.0000 C   0  0  0  0  0  0  0  0  0
    2.2867    3.6261    0.0000 C   0  0  0  0  0  0  0  0  0
    1.5722    3.2136    0.0000 C   0  0  0  0  0  0  0  0  0
  1  2  1  0  0  0  0
  1 11  1  0  0  0  0
  2  3  1  0  0  0  0
  3  4  1  0  0  0  0
  4  5  1  0  0  0  0
  5  6  1  0  0  0  0
  5 10  1  0  0  0  0
  6  7  1  0  0  0  0
  7  8  1  0  0  0  0
  8  9  1  0  0  0  0
  9 10  1  0  0  0  0
 11 12  4  0  0  0  0
 11 16  4  0  0  0  0
 12 13  4  0  0  0  0
 13 14  4  0  0  0  0
 14 15  4  0  0  0  0
 14 17  1  0  0  0  0
 15 16  4  0  0  0  0
 17 18  1  0  0  0  0
 18 19  1  0  0  0  0
 19 20  1  0  0  0  0
 20 21  4  0  0  0  0
 20 25  4  0  0  0  0
 21 22  4  0  0  0  0
 21 29  4  0  0  0  0
 22 23  4  0  0  0  0
 22 26  4  0  0  0  0
 23 24  4  0  0  0  0
 24 25  4  0  0  0  0
 26 27  4  0  0  0  0
 27 28  4  0  0  0  0
 28 29  4  0  0  0  0
M  STY  1   1 DAT
M  SAL   1  1  23
M  SDT   1 MRV_IMPLICIT_H                                        
M  SDD   1     0.0000    0.0000    DR    ALL  0       0  
M  SED   1 IMPL_H1
M  END
>  <Name_Molregno>
14851

>  <HISTAMINE H3>
9.3

$$$$
14923
  Marvin  02231216192D 0   1.00000     0.00000     0

 27 30  0  0  0  0  0  0  0  0999 V2000
   -2.3815    0.0200    0.0000 O   0  0  0  0  0  0  0  0  0
   -2.3815   -0.8050    0.0000 C   0  0  0  0  0  0  0  0  0
   -3.0960   -1.2175    0.0000 C   0  0  0  0  0  0  0  0  0
   -3.0960   -2.0425    0.0000 C   0  0  0  0  0  0  0  0  0
   -3.8105   -2.4550    0.0000 N   0  0  0  0  0  0  0  0  0
   -3.8105   -3.2800    0.0000 C   0  0  0  0  0  0  0  0  0
   -4.5249   -3.6925    0.0000 C   0  0  0  0  0  0  0  0  0
   -5.2394   -3.2800    0.0000 C   0  0  0  0  0  0  0  0  0
   -5.2394   -2.4550    0.0000 C   0  0  0  0  0  0  0  0  0
   -4.5249   -2.0425    0.0000 C   0  0  0  0  0  0  0  0  0
   -1.6670    0.4325    0.0000 C   0  0  0  0  0  0  0  0  0
   -1.6670    1.2575    0.0000 C   0  0  0  0  0  0  0  0  0
   -0.9526    1.6700    0.0000 C   0  0  0  0  0  0  0  0  0
   -0.2381    1.2575    0.0000 C   0  0  0  0  0  0  0  0  0
    0.4764    1.6700    0.0000 N   0  0  0  0  0  0  0  0  0
    0.4764    2.4950    0.0000 C   0  0  0  0  0  0  0  0  0
    1.1908    2.9075    0.0000 C   0  0  0  0  0  0  0  0  0
    1.1908    3.7325    0.0000 C   0  0  0  0  0  0  0  0  0
    0.4764    4.1450    0.0000 N   0  0  0  0  0  0  0  0  0
   -0.2381    3.7325    0.0000 C   0  0  0  0  0  0  0  0  0
   -0.2381    2.9075    0.0000 C   0  0  0  0  0  0  0  0  0
    1.9053    4.1450    0.0000 C   0  0  0  0  0  0  0  0  0
    2.6198    3.7325    0.0000 C   0  0  0  0  0  0  0  0  0
    2.6198    2.9075    0.0000 C   0  0  0  0  0  0  0  0  0
    1.9053    2.4950    0.0000 C   0  0  0  0  0  0  0  0  0
   -0.2381    0.4325    0.0000 C   0  0  0  0  0  0  0  0  0
   -0.9526    0.0200    0.0000 C   0  0  0  0  0  0  0  0  0
  1  2  1  0  0  0  0
  1 11  1  0  0  0  0
  2  3  1  0  0  0  0
  3  4  1  0  0  0  0
  4  5  1  0  0  0  0
  5  6  1  0  0  0  0
  5 10  1  0  0  0  0
  6  7  1  0  0  0  0
  7  8  1  0  0  0  0
  8  9  1  0  0  0  0
  9 10  1  0  0  0  0
 11 12  4  0  0  0  0
 11 27  4  0  0  0  0
 12 13  4  0  0  0  0
 13 14  4  0  0  0  0
 14 15  1  0  0  0  0
 14 26  4  0  0  0  0
 15 16  1  0  0  0  0
 16 17  4  0  0  0  0
 16 21  4  0  0  0  0
 17 18  4  0  0  0  0
 17 25  4  0  0  0  0
 18 19  4  0  0  0  0
 18 22  4  0  0  0  0
 19 20  4  0  0  0  0
 20 21  4  0  0  0  0
 22 23  4  0  0  0  0
 23 24  4  0  0  0  0
 24 25  4  0  0  0  0
 26 27  4  0  0  0  0
M  STY  1   1 DAT
M  SAL   1  1  19
M  SDT   1 MRV_IMPLICIT_H                                        
M  SDD   1     0.0000    0.0000    DR    ALL  0       0  
M  SED   1 IMPL_H1
M  END
>  <Name_Molregno>
14923

>  <HISTAMINE H3>
9.65

$$$$
21917
  Marvin  02231216192D 0   1.00000     0.00000     0

 17 18  0  0  0  0  0  0  0  0999 V2000
   -0.1202    0.0508    0.0000 I   0  0  0  0  0  0  0  0  0
    0.5943    0.4633    0.0000 C   0  0  0  0  0  0  0  0  0
    0.5943    1.2883    0.0000 C   0  0  0  0  0  0  0  0  0
    1.3088    1.7008    0.0000 C   0  0  0  0  0  0  0  0  0
    2.0232    1.2883    0.0000 C   0  0  0  0  0  0  0  0  0
    2.0232    0.4633    0.0000 C   0  0  0  0  0  0  0  0  0
    1.3088    0.0508    0.0000 C   0  0  0  0  0  0  0  0  0
    2.7377    1.7008    0.0000 C   0  0  0  0  0  0  0  0  0
    3.4522    1.2883    0.0000 O   0  0  0  0  0  0  0  0  0
    4.1667    1.7008    0.0000 C   0  0  0  0  0  0  0  0  0
    4.8811    1.2883    0.0000 C   0  0  0  0  0  0  0  0  0
    5.5956    1.7008    0.0000 C   0  0  0  0  0  0  0  0  0
    6.3101    1.2883    0.0000 C   0  0  0  0  0  0  0  0  0
    7.0637    1.6239    0.0000 N   0  0  0  0  0  0  0  0  0
    7.6158    1.0108    0.0000 C   0  0  0  0  0  0  0  0  0
    7.2033    0.2963    0.0000 N   0  0  0  0  0  0  0  0  0
    6.3963    0.4678    0.0000 C   0  0  0  0  0  0  0  0  0
  1  2  1  0  0  0  0
  2  3  4  0  0  0  0
  2  7  4  0  0  0  0
  3  4  4  0  0  0  0
  4  5  4  0  0  0  0
  5  6  4  0  0  0  0
  5  8  1  0  0  0  0
  6  7  4  0  0  0  0
  8  9  1  0  0  0  0
  9 10  1  0  0  0  0
 10 11  1  0  0  0  0
 11 12  1  0  0  0  0
 12 13  1  0  0  0  0
 13 14  4  0  0  0  0
 13 17  4  0  0  0  0
 14 15  4  0  0  0  0
 15 16  4  0  0  0  0
 16 17  4  0  0  0  0
M  STY  1   1 DAT
M  SAL   1  1  16
M  SDT   1 MRV_IMPLICIT_H                                        
M  SDD   1     0.0000    0.0000    DR    ALL  0       0  
M  SED   1 IMPL_H1
M  END
>  <Name_Molregno>
21917

>  <HISTAMINE H3>
7.39

$$$$
22383
  Marvin  02231216192D 0   1.00000     0.00000     0

 11 11  0  0  0  0  0  0  0  0999 V2000
   -4.0086    0.2676    0.0000 N   0  0  0  0  0  0  0  0  0
   -3.2016    0.0961    0.0000 C   0  0  0  0  0  0  0  0  0
   -3.1154   -0.7244    0.0000 C   0  0  0  0  0  0  0  0  0
   -3.8691   -1.0599    0.0000 N   0  0  0  0  0  0  0  0  0
   -4.4211   -0.4468    0.0000 C   0  0  0  0  0  0  0  0  0
   -2.4009   -1.1369    0.0000 C   0  0  0  0  0  0  0  0  0
   -1.6865   -0.7244    0.0000 C   0  0  0  0  0  0  0  0  0
   -0.9720   -1.1369    0.0000 C   0  0  0  0  0  0  0  0  0
   -0.2575   -0.7244    0.0000 C   0  0  0  0  0  0  0  0  0
    0.4569   -1.1369    0.0000 C   0  0  0  0  0  0  0  0  0
    1.1714   -0.7244    0.0000 N   0  0  0  0  0  0  0  0  0
  1  2  4  0  0  0  0
  1  5  4  0  0  0  0
  2  3  4  0  0  0  0
  3  4  4  0  0  0  0
  3  6  1  0  0  0  0
  4  5  4  0  0  0  0
  6  7  1  0  0  0  0
  7  8  1  0  0  0  0
  8  9  1  0  0  0  0
  9 10  1  0  0  0  0
 10 11  1  0  0  0  0
M  STY  1   1 DAT
M  SAL   1  1   1
M  SDT   1 MRV_IMPLICIT_H                                        
M  SDD   1     0.0000    0.0000    DR    ALL  0       0  
M  SED   1 IMPL_H1
M  END
>  <Name_Molregno>
22383

>  <HISTAMINE H3>
8.3

>  <HISTAMINE H4>
6.6

$$$$
22384
  Marvin  02231216192D 0   1.00000     0.00000     0

 12 12  0  0  0  0  0  0  0  0999 V2000
    3.0853    0.1267    0.0000 S   0  0  0  0  0  0  0  0  0
    2.3708   -0.2858    0.0000 C   0  0  0  0  0  0  0  0  0
    1.6563    0.1267    0.0000 C   0  0  0  0  0  0  0  0  0
    0.9419   -0.2858    0.0000 C   0  0  0  0  0  0  0  0  0
    0.2274    0.1267    0.0000 C   0  0  0  0  0  0  0  0  0
   -0.5263   -0.2089    0.0000 N   0  0  0  0  0  0  0  0  0
   -1.0783    0.4042    0.0000 C   0  0  0  0  0  0  0  0  0
   -0.6658    1.1187    0.0000 N   0  0  0  0  0  0  0  0  0
    0.1412    0.9472    0.0000 C   0  0  0  0  0  0  0  0  0
    3.7998   -0.2858    0.0000 C   0  0  0  0  0  0  0  0  0
    4.5142    0.1267    0.0000 N   0  0  0  0  0  0  0  0  0
    3.7998   -1.1108    0.0000 N   0  0  0  0  0  0  0  0  0
  1  2  1  0  0  0  0
  1 10  1  0  0  0  0
  2  3  1  0  0  0  0
  3  4  1  0  0  0  0
  4  5  1  0  0  0  0
  5  6  4  0  0  0  0
  5  9  4  0  0  0  0
  6  7  4  0  0  0  0
  7  8  4  0  0  0  0
  8  9  4  0  0  0  0
 10 11  1  0  0  0  0
 10 12  2  0  0  0  0
M  STY  1   1 DAT
M  SAL   1  1   8
M  SDT   1 MRV_IMPLICIT_H                                        
M  SDD   1     0.0000    0.0000    DR    ALL  0       0  
M  SED   1 IMPL_H1
M  END
>  <Name_Molregno>
22384

>  <HISTAMINE H3>
8.6

>  <HISTAMINE H4>
7.9

$$$$
34050
  Marvin  02231216192D 0   1.00000     0.00000     0

 23 25  0  0  0  0  0  0  0  0999 V2000
   -0.3472   -1.4083    0.0000 O   0  0  0  0  0  0  0  0  0
    0.3673   -0.9958    0.0000 C   0  0  0  0  0  0  0  0  0
    1.0818   -1.4083    0.0000 C   0  0  0  0  0  0  0  0  0
    1.7962   -0.9958    0.0000 C   0  0  0  0  0  0  0  0  0
    2.5107   -1.4083    0.0000 N   0  0  0  0  0  0  0  0  0
    3.2644   -1.0727    0.0000 C   0  0  0  0  0  0  0  0  0
    3.8164   -1.6858    0.0000 C   0  0  0  0  0  0  0  0  0
    3.4039   -2.4003    0.0000 C   0  0  0  0  0  0  0  0  0
    2.5969   -2.2288    0.0000 C   0  0  0  0  0  0  0  0  0
   -1.0616   -0.9958    0.0000 C   0  0  0  0  0  0  0  0  0
   -1.7761   -1.4083    0.0000 C   0  0  0  0  0  0  0  0  0
   -2.4906   -0.9958    0.0000 C   0  0  0  0  0  0  0  0  0
   -2.4906   -0.1708    0.0000 C   0  0  0  0  0  0  0  0  0
   -1.7761    0.2417    0.0000 C   0  0  0  0  0  0  0  0  0
   -1.0616   -0.1708    0.0000 C   0  0  0  0  0  0  0  0  0
   -3.2051    0.2417    0.0000 C   0  0  0  0  0  0  0  0  0
   -3.9195   -0.1708    0.0000 C   0  0  0  0  0  0  0  0  0
   -4.6340    0.2417    0.0000 C   0  0  0  0  0  0  0  0  0
   -4.6340    1.0667    0.0000 C   0  0  0  0  0  0  0  0  0
   -3.9195    1.4792    0.0000 C   0  0  0  0  0  0  0  0  0
   -3.2051    1.0667    0.0000 C   0  0  0  0  0  0  0  0  0
   -5.3485    1.4792    0.0000 C   0  0  0  0  0  0  0  0  0
   -6.0629    1.8917    0.0000 N   0  0  0  0  0  0  0  0  0
  1  2  1  0  0  0  0
  1 10  1  0  0  0  0
  2  3  1  0  0  0  0
  3  4  1  0  0  0  0
  4  5  1  0  0  0  0
  5  6  1  0  0  0  0
  5  9  1  0  0  0  0
  6  7  1  0  0  0  0
  7  8  1  0  0  0  0
  8  9  1  0  0  0  0
 10 11  4  0  0  0  0
 10 15  4  0  0  0  0
 11 12  4  0  0  0  0
 12 13  4  0  0  0  0
 13 14  4  0  0  0  0
 13 16  1  0  0  0  0
 14 15  4  0  0  0  0
 16 17  4  0  0  0  0
 16 21  4  0  0  0  0
 17 18  4  0  0  0  0
 18 19  4  0  0  0  0
 19 20  4  0  0  0  0
 19 22  1  0  0  0  0
 20 21  4  0  0  0  0
 22 23  3  0  0  0  0
M  END
>  <Name_Molregno>
34050

>  <HISTAMINE H1>
5.3

>  <HISTAMINE H2>
4.17

>  <HISTAMINE H3>
8.14

$$$$
58349
  Marvin  02231216192D 0   1.00000     0.00000     0

 17 19  0  0  0  0  0  0  0  0999 V2000
    0.2117    0.2218    0.0000 N   0  0  0  0  0  0  0  0  0
    0.9262    0.6343    0.0000 C   0  0  0  0  0  0  0  0  0
    0.9262    1.4593    0.0000 C   0  0  0  0  0  0  0  0  0
    0.2117    1.8718    0.0000 C   0  0  0  0  0  0  0  0  0
   -0.5028    1.4593    0.0000 C   0  0  0  0  0  0  0  0  0
   -0.5028    0.6343    0.0000 C   0  0  0  0  0  0  0  0  0
   -1.2172    0.2218    0.0000 N   0  0  0  0  0  0  0  0  0
   -1.2172   -0.6032    0.0000 C   0  0  0  0  0  0  0  0  0
   -1.9317   -1.0157    0.0000 C   0  0  0  0  0  0  0  0  0
   -2.6462   -0.6032    0.0000 N   0  0  0  0  0  0  0  0  0
   -2.6462    0.2218    0.0000 C   0  0  0  0  0  0  0  0  0
   -1.9317    0.6343    0.0000 C   0  0  0  0  0  0  0  0  0
   -3.3607   -1.0157    0.0000 C   0  0  0  0  0  0  0  0  0
    1.6406    1.8718    0.0000 C   0  0  0  0  0  0  0  0  0
    2.3551    1.4593    0.0000 C   0  0  0  0  0  0  0  0  0
    2.3551    0.6343    0.0000 C   0  0  0  0  0  0  0  0  0
    1.6406    0.2218    0.0000 C   0  0  0  0  0  0  0  0  0
  1  2  4  0  0  0  0
  1  6  4  0  0  0  0
  2  3  4  0  0  0  0
  2 17  4  0  0  0  0
  3  4  4  0  0  0  0
  3 14  4  0  0  0  0
  4  5  4  0  0  0  0
  5  6  4  0  0  0  0
  6  7  1  0  0  0  0
  7  8  1  0  0  0  0
  7 12  1  0  0  0  0
  8  9  1  0  0  0  0
  9 10  1  0  0  0  0
 10 11  1  0  0  0  0
 10 13  1  0  0  0  0
 11 12  1  0  0  0  0
 14 15  4  0  0  0  0
 15 16  4  0  0  0  0
 16 17  4  0  0  0  0
M  END
>  <Name_Molregno>
58349

>  <HISTAMINE H3>
6.39

>  <HISTAMINE H4>
5.16

$$$$
67179
  Marvin  02231216192D 0   1.00000     0.00000     0

 15 16  0  0  0  0  0  0  0  0999 V2000
   -5.9401    1.4341    0.0000 N   0  0  0  0  0  0  0  0  0
   -5.1331    1.2626    0.0000 C   0  0  0  0  0  0  0  0  0
   -5.0469    0.4421    0.0000 C   0  0  0  0  0  0  0  0  0
   -5.8006    0.1065    0.0000 N   0  0  0  0  0  0  0  0  0
   -6.3526    0.7196    0.0000 C   0  0  0  0  0  0  0  0  0
   -4.3324    0.0296    0.0000 C   0  0  0  0  0  0  0  0  0
   -3.6179    0.4421    0.0000 C   0  0  0  0  0  0  0  0  0
   -2.9035    0.0296    0.0000 C   0  0  0  0  0  0  0  0  0
   -2.1890    0.4421    0.0000 C   0  0  0  0  0  0  0  0  0
   -1.4745    0.0296    0.0000 C   0  0  0  0  0  0  0  0  0
   -0.7601    0.4421    0.0000 C   0  0  0  0  0  0  0  0  0
   -0.0456    0.0296    0.0000 C   0  0  0  0  0  0  0  0  0
   -0.0456   -0.7954    0.0000 C   0  0  0  0  0  0  0  0  0
   -0.7601   -1.2079    0.0000 C   0  0  0  0  0  0  0  0  0
   -1.4745   -0.7954    0.0000 C   0  0  0  0  0  0  0  0  0
  1  2  4  0  0  0  0
  1  5  4  0  0  0  0
  2  3  4  0  0  0  0
  3  4  4  0  0  0  0
  3  6  1  0  0  0  0
  4  5  4  0  0  0  0
  6  7  1  0  0  0  0
  7  8  1  0  0  0  0
  8  9  1  0  0  0  0
  9 10  1  0  0  0  0
 10 11  4  0  0  0  0
 10 15  4  0  0  0  0
 11 12  4  0  0  0  0
 12 13  4  0  0  0  0
 13 14  4  0  0  0  0
 14 15  4  0  0  0  0
M  STY  1   1 DAT
M  SAL   1  1   1
M  SDT   1 MRV_IMPLICIT_H                                        
M  SDD   1     0.0000    0.0000    DR    ALL  0       0  
M  SED   1 IMPL_H1
M  END
>  <Name_Molregno>
67179

>  <HISTAMINE H3>
8.68

$$$$
75923
  Marvin  02231216192D 0   1.00000     0.00000     0

 26 29  0  0  0  0  0  0  0  0999 V2000
   -2.3537   -0.5547    0.0000 O   0  0  0  0  0  0  0  0  0
   -2.7662   -1.2691    0.0000 C   0  0  0  0  0  0  0  0  0
   -3.5912   -1.2691    0.0000 C   0  0  0  0  0  0  0  0  0
   -4.0037   -1.9836    0.0000 C   0  0  0  0  0  0  0  0  0
   -4.8287   -1.9836    0.0000 N   0  0  0  0  0  0  0  0  0
   -5.2412   -2.6981    0.0000 C   0  0  0  0  0  0  0  0  0
   -6.0662   -2.6981    0.0000 C   0  0  0  0  0  0  0  0  0
   -6.4787   -1.9836    0.0000 C   0  0  0  0  0  0  0  0  0
   -6.0662   -1.2691    0.0000 C   0  0  0  0  0  0  0  0  0
   -5.2412   -1.2691    0.0000 C   0  0  0  0  0  0  0  0  0
   -1.5287   -0.5547    0.0000 C   0  0  0  0  0  0  0  0  0
   -1.1162    0.1598    0.0000 C   0  0  0  0  0  0  0  0  0
   -0.2912    0.1598    0.0000 C   0  0  0  0  0  0  0  0  0
    0.1213   -0.5547    0.0000 C   0  0  0  0  0  0  0  0  0
   -0.2912   -1.2691    0.0000 C   0  0  0  0  0  0  0  0  0
   -1.1162   -1.2691    0.0000 C   0  0  0  0  0  0  0  0  0
    0.9463   -0.5547    0.0000 C   0  0  0  0  0  0  0  0  0
    1.4313   -1.2221    0.0000 N   0  0  0  0  0  0  0  0  0
    2.2159   -0.9672    0.0000 C   0  0  0  0  0  0  0  0  0
    2.2159   -0.1422    0.0000 N   0  0  0  0  0  0  0  0  0
    1.4313    0.1128    0.0000 C   0  0  0  0  0  0  0  0  0
    2.9304    0.2703    0.0000 C   0  0  0  0  0  0  0  0  0
    3.6448   -0.1422    0.0000 C   0  0  0  0  0  0  0  0  0
    3.6448   -0.9672    0.0000 C   0  0  0  0  0  0  0  0  0
    2.9304   -1.3797    0.0000 C   0  0  0  0  0  0  0  0  0
    4.3593   -1.3797    0.0000 C   0  0  0  0  0  0  0  0  0
  1  2  1  0  0  0  0
  1 11  1  0  0  0  0
  2  3  1  0  0  0  0
  3  4  1  0  0  0  0
  4  5  1  0  0  0  0
  5  6  1  0  0  0  0
  5 10  1  0  0  0  0
  6  7  1  0  0  0  0
  7  8  1  0  0  0  0
  8  9  1  0  0  0  0
  9 10  1  0  0  0  0
 11 12  4  0  0  0  0
 11 16  4  0  0  0  0
 12 13  4  0  0  0  0
 13 14  4  0  0  0  0
 14 15  4  0  0  0  0
 14 17  1  0  0  0  0
 15 16  4  0  0  0  0
 17 18  4  0  0  0  0
 17 21  4  0  0  0  0
 18 19  4  0  0  0  0
 19 20  4  0  0  0  0
 19 25  4  0  0  0  0
 20 21  4  0  0  0  0
 20 22  4  0  0  0  0
 22 23  4  0  0  0  0
 23 24  4  0  0  0  0
 24 25  4  0  0  0  0
 24 26  1  0  0  0  0
M  END
>  <Name_Molregno>
75923

>  <HISTAMINE H3>
8.7

$$$$
84966
  Marvin  02231216192D 0   1.00000     0.00000     0

 20 22  0  0  0  0  0  0  0  0999 V2000
    0.2325   -1.2969    0.0000 N   0  0  0  0  0  0  0  0  0
    0.9469   -1.7094    0.0000 C   0  0  0  0  0  0  0  0  0
    0.9469   -2.5344    0.0000 C   0  0  0  0  0  0  0  0  0
    0.2325   -2.9469    0.0000 C   0  0  0  0  0  0  0  0  0
   -0.4820   -2.5344    0.0000 C   0  0  0  0  0  0  0  0  0
   -0.4820   -1.7094    0.0000 C   0  0  0  0  0  0  0  0  0
    0.2325   -0.4719    0.0000 C   0  0  0  0  0  0  0  0  0
    0.9469   -0.0594    0.0000 C   0  0  0  0  0  0  0  0  0
    0.9469    0.7656    0.0000 C   0  0  0  0  0  0  0  0  0
    1.6614    1.1781    0.0000 C   0  0  0  0  0  0  0  0  0
    2.3759    0.7656    0.0000 C   0  0  0  0  0  0  0  0  0
    2.3759   -0.0594    0.0000 C   0  0  0  0  0  0  0  0  0
    1.6614   -0.4719    0.0000 C   0  0  0  0  0  0  0  0  0
    3.0903    1.1781    0.0000 C   0  0  0  0  0  0  0  0  0
    3.8048    0.7656    0.0000 N   0  0  0  0  0  0  0  0  0
    4.5193    1.1781    0.0000 C   0  0  0  0  0  0  0  0  0
    5.2338    0.7656    0.0000 C   0  0  0  0  0  0  0  0  0
    5.2338   -0.0594    0.0000 C   0  0  0  0  0  0  0  0  0
    4.5193   -0.4719    0.0000 C   0  0  0  0  0  0  0  0  0
    3.8048   -0.0594    0.0000 C   0  0  0  0  0  0  0  0  0
  1  2  1  0  0  0  0
  1  6  1  0  0  0  0
  1  7  1  0  0  0  0
  2  3  1  0  0  0  0
  3  4  1  0  0  0  0
  4  5  1  0  0  0  0
  5  6  1  0  0  0  0
  7  8  1  0  0  0  0
  8  9  4  0  0  0  0
  8 13  4  0  0  0  0
  9 10  4  0  0  0  0
 10 11  4  0  0  0  0
 11 12  4  0  0  0  0
 11 14  1  0  0  0  0
 12 13  4  0  0  0  0
 14 15  1  0  0  0  0
 15 16  1  0  0  0  0
 15 20  1  0  0  0  0
 16 17  1  0  0  0  0
 17 18  1  0  0  0  0
 18 19  1  0  0  0  0
 19 20  1  0  0  0  0
M  END
>  <Name_Molregno>
84966

>  <HISTAMINE H3>
5.91

$$$$
91699
  Marvin  02231216192D 0   1.00000     0.00000     0

 27 29  0  0  1  0  0  0  0  0999 V2000
    0.1329    2.5316    0.0000 Cl  0  0  0  0  0  0  0  0  0
    0.8474    2.1191    0.0000 C   0  0  0  0  0  0  0  0  0
    1.5618    2.5316    0.0000 C   0  0  0  0  0  0  0  0  0
    2.2763    2.1191    0.0000 C   0  0  0  0  0  0  0  0  0
    2.2763    1.2941    0.0000 C   0  0  0  0  0  0  0  0  0
    1.5618    0.8816    0.0000 C   0  0  0  0  0  0  0  0  0
    0.8474    1.2941    0.0000 C   0  0  0  0  0  0  0  0  0
    2.9908    0.8816    0.0000 C   0  0  0  0  0  0  0  0  0
    3.7052    1.2941    0.0000 C   0  0  0  0  0  0  0  0  0
    4.4197    0.8816    0.0000 C   0  0  0  0  0  0  0  0  0
    5.1342    1.2941    0.0000 N   0  0  0  0  0  0  0  0  0
    5.8487    0.8816    0.0000 C   0  0  0  0  0  0  0  0  0
    6.5631    1.2941    0.0000 C   0  0  0  0  0  0  0  0  0
    7.2776    0.8816    0.0000 C   0  0  0  0  0  0  0  0  0
    7.9921    1.2941    0.0000 C   0  0  0  0  0  0  0  0  0
    8.7065    0.8816    0.0000 C   0  0  0  0  0  0  0  0  0
    9.4602    1.2171    0.0000 N   0  0  0  0  0  0  0  0  0
   10.0123    0.6040    0.0000 C   0  0  0  0  0  0  0  0  0
    9.5998   -0.1104    0.0000 N   0  0  0  0  0  0  0  0  0
    8.7928    0.0611    0.0000 C   0  0  0  0  0  0  0  0  0
    5.1342    2.1191    0.0000 C   0  0  0  0  0  0  0  0  0
    2.9908    0.0566    0.0000 C   0  0  0  0  0  0  0  0  0
    3.7052   -0.3559    0.0000 N   0  0  0  0  0  0  0  0  0
    3.7052   -1.1809    0.0000 C   0  0  0  0  0  0  0  0  0
    2.9908   -1.5934    0.0000 C   0  0  0  0  0  0  0  0  0
    2.2763   -1.1809    0.0000 C   0  0  0  0  0  0  0  0  0
    2.2763   -0.3559    0.0000 C   0  0  0  0  0  0  0  0  0
  1  2  1  0  0  0  0
  2  3  4  0  0  0  0
  2  7  4  0  0  0  0
  3  4  4  0  0  0  0
  4  5  4  0  0  0  0
  5  6  4  0  0  0  0
  5  8  1  0  0  0  0
  6  7  4  0  0  0  0
  8  9  1  0  0  0  0
  8 22  1  0  0  0  0
  9 10  1  0  0  0  0
 10 11  1  0  0  0  0
 11 12  1  0  0  0  0
 11 21  1  0  0  0  0
 12 13  1  0  0  0  0
 13 14  1  0  0  0  0
 14 15  1  0  0  0  0
 15 16  1  0  0  0  0
 16 17  4  0  0  0  0
 16 20  4  0  0  0  0
 17 18  4  0  0  0  0
 18 19  4  0  0  0  0
 19 20  4  0  0  0  0
 22 23  4  0  0  0  0
 22 27  4  0  0  0  0
 23 24  4  0  0  0  0
 24 25  4  0  0  0  0
 25 26  4  0  0  0  0
 26 27  4  0  0  0  0
M  STY  1   1 DAT
M  SAL   1  1  19
M  SDT   1 MRV_IMPLICIT_H                                        
M  SDD   1     0.0000    0.0000    DR    ALL  0       0  
M  SED   1 IMPL_H1
M  END
>  <Name_Molregno>
91699

>  <HISTAMINE H1>
8.15

>  <HISTAMINE H3>
7.82

$$$$
98554
  Marvin  02231216192D 0   1.00000     0.00000     0

 26 28  0  0  1  0  0  0  0  0999 V2000
   -0.0490   -0.0312    0.0000 O   0  0  0  0  0  0  0  0  0
    0.6655    0.3813    0.0000 C   0  0  0  0  0  0  0  0  0
    1.3800   -0.0312    0.0000 C   0  0  0  0  0  0  0  0  0
    2.0944    0.3813    0.0000 C   0  0  0  0  0  0  0  0  0
    2.8089   -0.0312    0.0000 N   0  0  0  0  0  0  0  0  0
    3.5234    0.3813    0.0000 C   0  0  0  0  0  0  0  0  0
    4.2378   -0.0312    0.0000 C   0  0  0  0  0  0  0  0  0
    4.2378   -0.8562    0.0000 N   0  0  0  0  0  0  0  0  0
    3.5234   -1.2687    0.0000 C   0  0  0  0  0  0  0  0  0
    2.8089   -0.8562    0.0000 C   0  0  0  0  0  0  0  0  0
    4.9523   -1.2687    0.0000 C   0  0  0  0  0  0  0  0  0
    5.6668   -0.8562    0.0000 O   0  0  0  0  0  0  0  0  0
    4.9523   -2.0937    0.0000 C   0  0  0  0  0  0  0  0  0
    5.6668   -2.5062    0.0000 N   0  0  0  0  0  0  0  0  0
    4.2378   -2.5062    0.0000 C   0  0  0  0  0  0  0  0  0
   -0.7635    0.3813    0.0000 C   0  0  0  0  0  0  0  0  0
   -1.4779   -0.0312    0.0000 C   0  0  0  0  0  0  0  0  0
   -2.1924    0.3813    0.0000 C   0  0  0  0  0  0  0  0  0
   -2.1924    1.2063    0.0000 C   0  0  0  0  0  0  0  0  0
   -1.4779    1.6188    0.0000 C   0  0  0  0  0  0  0  0  0
   -0.7635    1.2063    0.0000 C   0  0  0  0  0  0  0  0  0
   -2.9069    1.6188    0.0000 C   0  0  0  0  0  0  0  0  0
   -3.6213    1.2063    0.0000 O   0  0  0  0  0  0  0  0  0
   -2.9069    2.4438    0.0000 C   0  0  0  0  0  0  0  0  0
   -3.3194    3.1582    0.0000 C   0  0  0  0  0  0  0  0  0
   -2.4944    3.1582    0.0000 C   0  0  0  0  0  0  0  0  0
  1  2  1  0  0  0  0
  1 16  1  0  0  0  0
  2  3  1  0  0  0  0
  3  4  1  0  0  0  0
  4  5  1  0  0  0  0
  5  6  1  0  0  0  0
  5 10  1  0  0  0  0
  6  7  1  0  0  0  0
  7  8  1  0  0  0  0
  8  9  1  0  0  0  0
  8 11  1  0  0  0  0
  9 10  1  0  0  0  0
 11 12  2  0  0  0  0
 11 13  1  0  0  0  0
 13 14  1  0  0  0  0
 13 15  1  0  0  0  0
 16 17  4  0  0  0  0
 16 21  4  0  0  0  0
 17 18  4  0  0  0  0
 18 19  4  0  0  0  0
 19 20  4  0  0  0  0
 19 22  1  0  0  0  0
 20 21  4  0  0  0  0
 22 23  2  0  0  0  0
 22 24  1  0  0  0  0
 24 25  1  0  0  0  0
 24 26  1  0  0  0  0
 25 26  1  0  0  0  0
M  END
>  <Name_Molregno>
98554

>  <HISTAMINE H3>
6.12

$$$$
112797
  Marvin  02231216192D 0   1.00000     0.00000     0

 29 31  0  0  0  0  0  0  0  0999 V2000
    0.1539   -0.5592    0.0000 O   0  0  0  0  0  0  0  0  0
    0.1539    0.2658    0.0000 C   0  0  0  0  0  0  0  0  0
    0.8683    0.6783    0.0000 C   0  0  0  0  0  0  0  0  0
    0.8683    1.5033    0.0000 C   0  0  0  0  0  0  0  0  0
    1.5828    1.9158    0.0000 N   0  0  0  0  0  0  0  0  0
    1.5828    2.7408    0.0000 C   0  0  0  0  0  0  0  0  0
    2.2973    3.1533    0.0000 C   0  0  0  0  0  0  0  0  0
    2.2973    3.9783    0.0000 C   0  0  0  0  0  0  0  0  0
    3.0117    4.3908    0.0000 C   0  0  0  0  0  0  0  0  0
    2.2973    1.5033    0.0000 C   0  0  0  0  0  0  0  0  0
    2.2973    0.6783    0.0000 C   0  0  0  0  0  0  0  0  0
    3.0117    0.2658    0.0000 C   0  0  0  0  0  0  0  0  0
    3.0117   -0.5592    0.0000 C   0  0  0  0  0  0  0  0  0
   -0.5606   -0.9717    0.0000 C   0  0  0  0  0  0  0  0  0
   -0.5606   -1.7967    0.0000 C   0  0  0  0  0  0  0  0  0
   -1.2751   -2.2092    0.0000 C   0  0  0  0  0  0  0  0  0
   -1.9896   -1.7967    0.0000 C   0  0  0  0  0  0  0  0  0
   -1.9896   -0.9717    0.0000 C   0  0  0  0  0  0  0  0  0
   -1.2751   -0.5592    0.0000 C   0  0  0  0  0  0  0  0  0
   -2.7040   -2.2092    0.0000 C   0  0  0  0  0  0  0  0  0
   -3.4577   -1.8736    0.0000 N   0  0  0  0  0  0  0  0  0
   -4.0097   -2.4867    0.0000 C   0  0  0  0  0  0  0  0  0
   -3.5972   -3.2012    0.0000 N   0  0  0  0  0  0  0  0  0
   -2.7903   -3.0296    0.0000 C   0  0  0  0  0  0  0  0  0
   -4.0097   -3.9156    0.0000 C   0  0  0  0  0  0  0  0  0
   -4.8347   -3.9156    0.0000 C   0  0  0  0  0  0  0  0  0
   -5.2472   -3.2012    0.0000 C   0  0  0  0  0  0  0  0  0
   -4.8347   -2.4867    0.0000 C   0  0  0  0  0  0  0  0  0
   -5.2472   -1.7722    0.0000 C   0  0  0  0  0  0  0  0  0
  1  2  1  0  0  0  0
  1 14  1  0  0  0  0
  2  3  1  0  0  0  0
  3  4  1  0  0  0  0
  4  5  1  0  0  0  0
  5  6  1  0  0  0  0
  5 10  1  0  0  0  0
  6  7  1  0  0  0  0
  7  8  1  0  0  0  0
  8  9  1  0  0  0  0
 10 11  1  0  0  0  0
 11 12  1  0  0  0  0
 12 13  1  0  0  0  0
 14 15  4  0  0  0  0
 14 19  4  0  0  0  0
 15 16  4  0  0  0  0
 16 17  4  0  0  0  0
 17 18  4  0  0  0  0
 17 20  1  0  0  0  0
 18 19  4  0  0  0  0
 20 21  4  0  0  0  0
 20 24  4  0  0  0  0
 21 22  4  0  0  0  0
 22 23  4  0  0  0  0
 22 28  4  0  0  0  0
 23 24  4  0  0  0  0
 23 25  4  0  0  0  0
 25 26  4  0  0  0  0
 26 27  4  0  0  0  0
 27 28  4  0  0  0  0
 28 29  1  0  0  0  0
M  END
>  <Name_Molregno>
112797

>  <HISTAMINE H3>
8.4

$$$$
113594
  Marvin  02231216192D 0   1.00000     0.00000     0

 29 31  0  0  0  0  0  0  0  0999 V2000
    1.8176   -0.4606    0.0000 O   0  0  0  0  0  0  0  0  0
    1.8176    0.3644    0.0000 C   0  0  0  0  0  0  0  0  0
    2.5320    0.7769    0.0000 C   0  0  0  0  0  0  0  0  0
    2.5320    1.6019    0.0000 C   0  0  0  0  0  0  0  0  0
    3.2465    2.0144    0.0000 N   0  0  0  0  0  0  0  0  0
    3.2465    2.8394    0.0000 C   0  0  0  0  0  0  0  0  0
    3.9610    3.2519    0.0000 C   0  0  0  0  0  0  0  0  0
    3.9610    4.0769    0.0000 C   0  0  0  0  0  0  0  0  0
    4.6755    4.4894    0.0000 C   0  0  0  0  0  0  0  0  0
    3.9610    1.6019    0.0000 C   0  0  0  0  0  0  0  0  0
    3.9610    0.7769    0.0000 C   0  0  0  0  0  0  0  0  0
    4.6755    0.3644    0.0000 C   0  0  0  0  0  0  0  0  0
    4.6755   -0.4606    0.0000 C   0  0  0  0  0  0  0  0  0
    1.1031   -0.8731    0.0000 C   0  0  0  0  0  0  0  0  0
    1.1031   -1.6981    0.0000 C   0  0  0  0  0  0  0  0  0
    0.3886   -2.1106    0.0000 C   0  0  0  0  0  0  0  0  0
   -0.3258   -1.6981    0.0000 C   0  0  0  0  0  0  0  0  0
   -0.3258   -0.8731    0.0000 C   0  0  0  0  0  0  0  0  0
    0.3886   -0.4606    0.0000 C   0  0  0  0  0  0  0  0  0
   -1.0403   -2.1106    0.0000 C   0  0  0  0  0  0  0  0  0
   -1.7940   -1.7750    0.0000 N   0  0  0  0  0  0  0  0  0
   -2.3460   -2.3881    0.0000 C   0  0  0  0  0  0  0  0  0
   -1.9335   -3.1026    0.0000 N   0  0  0  0  0  0  0  0  0
   -1.1266   -2.9311    0.0000 C   0  0  0  0  0  0  0  0  0
   -2.3460   -3.8171    0.0000 C   0  0  0  0  0  0  0  0  0
   -3.1710   -3.8171    0.0000 C   0  0  0  0  0  0  0  0  0
   -3.5835   -3.1026    0.0000 C   0  0  0  0  0  0  0  0  0
   -3.1710   -2.3881    0.0000 C   0  0  0  0  0  0  0  0  0
   -1.9335   -4.5316    0.0000 C   0  0  0  0  0  0  0  0  0
  1  2  1  0  0  0  0
  1 14  1  0  0  0  0
  2  3  1  0  0  0  0
  3  4  1  0  0  0  0
  4  5  1  0  0  0  0
  5  6  1  0  0  0  0
  5 10  1  0  0  0  0
  6  7  1  0  0  0  0
  7  8  1  0  0  0  0
  8  9  1  0  0  0  0
 10 11  1  0  0  0  0
 11 12  1  0  0  0  0
 12 13  1  0  0  0  0
 14 15  4  0  0  0  0
 14 19  4  0  0  0  0
 15 16  4  0  0  0  0
 16 17  4  0  0  0  0
 17 18  4  0  0  0  0
 17 20  1  0  0  0  0
 18 19  4  0  0  0  0
 20 21  4  0  0  0  0
 20 24  4  0  0  0  0
 21 22  4  0  0  0  0
 22 23  4  0  0  0  0
 22 28  4  0  0  0  0
 23 24  4  0  0  0  0
 23 25  4  0  0  0  0
 25 26  4  0  0  0  0
 25 29  1  0  0  0  0
 26 27  4  0  0  0  0
 27 28  4  0  0  0  0
M  END
>  <Name_Molregno>
113594

>  <HISTAMINE H3>
5.4

$$$$
126932
  Marvin  02231216192D 0   1.00000     0.00000     0

 14 15  0  0  0  0  0  0  0  0999 V2000
    1.3642   -3.0962    0.0000 N   0  0  0  0  0  0  0  0  0
    1.1093   -2.3116    0.0000 C   0  0  0  0  0  0  0  0  0
    1.7767   -1.8266    0.0000 C   0  0  0  0  0  0  0  0  0
    2.4442   -2.3116    0.0000 N   0  0  0  0  0  0  0  0  0
    2.1892   -3.0962    0.0000 C   0  0  0  0  0  0  0  0  0
    1.7767   -1.0016    0.0000 C   0  0  0  0  0  0  0  0  0
    2.4912   -0.5891    0.0000 C   0  0  0  0  0  0  0  0  0
    2.4912    0.2359    0.0000 C   0  0  0  0  0  0  0  0  0
    3.2057    0.6484    0.0000 C   0  0  0  0  0  0  0  0  0
    3.2057    1.4734    0.0000 C   0  0  0  0  0  0  0  0  0
    3.9201    1.8859    0.0000 C   0  0  0  0  0  0  0  0  0
    4.6346    1.4734    0.0000 N   0  0  0  0  0  0  0  0  0
    4.6346    0.6484    0.0000 C   0  0  0  0  0  0  0  0  0
    3.9201    0.2359    0.0000 C   0  0  0  0  0  0  0  0  0
  1  2  4  0  0  0  0
  1  5  4  0  0  0  0
  2  3  4  0  0  0  0
  3  4  4  0  0  0  0
  3  6  1  0  0  0  0
  4  5  4  0  0  0  0
  6  7  1  0  0  0  0
  7  8  1  0  0  0  0
  8  9  1  0  0  0  0
  9 10  4  0  0  0  0
  9 14  4  0  0  0  0
 10 11  4  0  0  0  0
 11 12  4  0  0  0  0
 12 13  4  0  0  0  0
 13 14  4  0  0  0  0
M  STY  1   1 DAT
M  SAL   1  1   1
M  SDT   1 MRV_IMPLICIT_H                                        
M  SDD   1     0.0000    0.0000    DR    ALL  0       0  
M  SED   1 IMPL_H1
M  END
>  <Name_Molregno>
126932

>  <HISTAMINE H3>
8.08

>  <HISTAMINE H4>
6

$$$$
126933
  Marvin  02231216192D 0   1.00000     0.00000     0

 14 15  0  0  0  0  0  0  0  0999 V2000
    1.3642   -3.0962    0.0000 N   0  0  0  0  0  0  0  0  0
    1.1093   -2.3116    0.0000 C   0  0  0  0  0  0  0  0  0
    1.7767   -1.8266    0.0000 C   0  0  0  0  0  0  0  0  0
    2.4442   -2.3116    0.0000 N   0  0  0  0  0  0  0  0  0
    2.1892   -3.0962    0.0000 C   0  0  0  0  0  0  0  0  0
    1.7767   -1.0016    0.0000 C   0  0  0  0  0  0  0  0  0
    2.4912   -0.5891    0.0000 C   0  0  0  0  0  0  0  0  0
    2.4912    0.2359    0.0000 C   0  0  0  0  0  0  0  0  0
    3.2057    0.6484    0.0000 C   0  0  0  0  0  0  0  0  0
    3.2057    1.4734    0.0000 N   0  0  0  0  0  0  0  0  0
    3.9201    1.8859    0.0000 C   0  0  0  0  0  0  0  0  0
    4.6346    1.4734    0.0000 C   0  0  0  0  0  0  0  0  0
    4.6346    0.6484    0.0000 C   0  0  0  0  0  0  0  0  0
    3.9201    0.2359    0.0000 C   0  0  0  0  0  0  0  0  0
  1  2  4  0  0  0  0
  1  5  4  0  0  0  0
  2  3  4  0  0  0  0
  3  4  4  0  0  0  0
  3  6  1  0  0  0  0
  4  5  4  0  0  0  0
  6  7  1  0  0  0  0
  7  8  1  0  0  0  0
  8  9  1  0  0  0  0
  9 10  4  0  0  0  0
  9 14  4  0  0  0  0
 10 11  4  0  0  0  0
 11 12  4  0  0  0  0
 12 13  4  0  0  0  0
 13 14  4  0  0  0  0
M  STY  1   1 DAT
M  SAL   1  1   1
M  SDT   1 MRV_IMPLICIT_H                                        
M  SDD   1     0.0000    0.0000    DR    ALL  0       0  
M  SED   1 IMPL_H1
M  END
>  <Name_Molregno>
126933

>  <HISTAMINE H3>
5.98

>  <HISTAMINE H4>
5.9

$$$$
127381
  Marvin  02231216192D 0   1.00000     0.00000     0

 13 14  0  0  0  0  0  0  0  0999 V2000
    2.5047   -2.7675    0.0000 N   0  0  0  0  0  0  0  0  0
    2.2497   -1.9829    0.0000 C   0  0  0  0  0  0  0  0  0
    2.9172   -1.4980    0.0000 C   0  0  0  0  0  0  0  0  0
    3.5846   -1.9829    0.0000 N   0  0  0  0  0  0  0  0  0
    3.3297   -2.7675    0.0000 C   0  0  0  0  0  0  0  0  0
    2.9172   -0.6730    0.0000 C   0  0  0  0  0  0  0  0  0
    2.2027   -0.2605    0.0000 C   0  0  0  0  0  0  0  0  0
    2.2027    0.5645    0.0000 C   0  0  0  0  0  0  0  0  0
    1.4882    0.9770    0.0000 N   0  0  0  0  0  0  0  0  0
    1.4882    1.8020    0.0000 C   0  0  0  0  0  0  0  0  0
    2.2027    2.2145    0.0000 C   0  0  0  0  0  0  0  0  0
    2.9172    1.8020    0.0000 C   0  0  0  0  0  0  0  0  0
    2.9172    0.9770    0.0000 C   0  0  0  0  0  0  0  0  0
  1  2  4  0  0  0  0
  1  5  4  0  0  0  0
  2  3  4  0  0  0  0
  3  4  4  0  0  0  0
  3  6  1  0  0  0  0
  4  5  4  0  0  0  0
  6  7  1  0  0  0  0
  7  8  1  0  0  0  0
  8  9  4  0  0  0  0
  8 13  4  0  0  0  0
  9 10  4  0  0  0  0
 10 11  4  0  0  0  0
 11 12  4  0  0  0  0
 12 13  4  0  0  0  0
M  STY  1   1 DAT
M  SAL   1  1   1
M  SDT   1 MRV_IMPLICIT_H                                        
M  SDD   1     0.0000    0.0000    DR    ALL  0       0  
M  SED   1 IMPL_H1
M  END
>  <Name_Molregno>
127381

>  <HISTAMINE H3>
5.93

>  <HISTAMINE H4>
4.91

$$$$
127415
  Marvin  02231216192D 0   1.00000     0.00000     0

 13 14  0  0  0  0  0  0  0  0999 V2000
    2.5047   -2.7675    0.0000 N   0  0  0  0  0  0  0  0  0
    2.2497   -1.9829    0.0000 C   0  0  0  0  0  0  0  0  0
    2.9172   -1.4980    0.0000 C   0  0  0  0  0  0  0  0  0
    3.5846   -1.9829    0.0000 N   0  0  0  0  0  0  0  0  0
    3.3297   -2.7675    0.0000 C   0  0  0  0  0  0  0  0  0
    2.9172   -0.6730    0.0000 C   0  0  0  0  0  0  0  0  0
    2.2027   -0.2605    0.0000 C   0  0  0  0  0  0  0  0  0
    2.2027    0.5645    0.0000 C   0  0  0  0  0  0  0  0  0
    1.4882    0.9770    0.0000 C   0  0  0  0  0  0  0  0  0
    1.4882    1.8020    0.0000 C   0  0  0  0  0  0  0  0  0
    2.2027    2.2145    0.0000 C   0  0  0  0  0  0  0  0  0
    2.9172    1.8020    0.0000 N   0  0  0  0  0  0  0  0  0
    2.9172    0.9770    0.0000 C   0  0  0  0  0  0  0  0  0
  1  2  4  0  0  0  0
  1  5  4  0  0  0  0
  2  3  4  0  0  0  0
  3  4  4  0  0  0  0
  3  6  1  0  0  0  0
  4  5  4  0  0  0  0
  6  7  1  0  0  0  0
  7  8  1  0  0  0  0
  8  9  4  0  0  0  0
  8 13  4  0  0  0  0
  9 10  4  0  0  0  0
 10 11  4  0  0  0  0
 11 12  4  0  0  0  0
 12 13  4  0  0  0  0
M  STY  1   1 DAT
M  SAL   1  1   1
M  SDT   1 MRV_IMPLICIT_H                                        
M  SDD   1     0.0000    0.0000    DR    ALL  0       0  
M  SED   1 IMPL_H1
M  END
>  <Name_Molregno>
127415

>  <HISTAMINE H3>
6.85

>  <HISTAMINE H4>
5.29

$$$$
127416
  Marvin  02231216192D 0   1.00000     0.00000     0

 12 13  0  0  0  0  0  0  0  0999 V2000
   -2.8320   -1.1639    0.0000 N   0  0  0  0  0  0  0  0  0
   -3.0870   -0.3793    0.0000 C   0  0  0  0  0  0  0  0  0
   -2.4195    0.1057    0.0000 C   0  0  0  0  0  0  0  0  0
   -1.7521   -0.3793    0.0000 N   0  0  0  0  0  0  0  0  0
   -2.0070   -1.1639    0.0000 C   0  0  0  0  0  0  0  0  0
   -2.4195    0.9307    0.0000 C   0  0  0  0  0  0  0  0  0
   -1.7050    1.3432    0.0000 C   0  0  0  0  0  0  0  0  0
   -1.7050    2.1682    0.0000 C   0  0  0  0  0  0  0  0  0
   -0.9906    2.5807    0.0000 C   0  0  0  0  0  0  0  0  0
   -0.2761    2.1682    0.0000 N   0  0  0  0  0  0  0  0  0
   -0.2761    1.3432    0.0000 C   0  0  0  0  0  0  0  0  0
   -0.9906    0.9307    0.0000 C   0  0  0  0  0  0  0  0  0
  1  2  4  0  0  0  0
  1  5  4  0  0  0  0
  2  3  4  0  0  0  0
  3  4  4  0  0  0  0
  3  6  1  0  0  0  0
  4  5  4  0  0  0  0
  6  7  1  0  0  0  0
  7  8  1  0  0  0  0
  7 12  1  0  0  0  0
  8  9  1  0  0  0  0
  9 10  1  0  0  0  0
 10 11  1  0  0  0  0
 11 12  1  0  0  0  0
M  STY  1   1 DAT
M  SAL   1  1   1
M  SDT   1 MRV_IMPLICIT_H                                        
M  SDD   1     0.0000    0.0000    DR    ALL  0       0  
M  SED   1 IMPL_H1
M  END
>  <Name_Molregno>
127416

>  <HISTAMINE H2>
5.5

>  <HISTAMINE H3>
9.28

>  <HISTAMINE H4>
7.41

$$$$
127485
  Marvin  02231216192D 0   1.00000     0.00000     0

 12 13  0  0  0  0  0  0  0  0999 V2000
   -2.8320   -1.1639    0.0000 N   0  0  0  0  0  0  0  0  0
   -3.0870   -0.3793    0.0000 C   0  0  0  0  0  0  0  0  0
   -2.4195    0.1057    0.0000 C   0  0  0  0  0  0  0  0  0
   -1.7521   -0.3793    0.0000 N   0  0  0  0  0  0  0  0  0
   -2.0070   -1.1639    0.0000 C   0  0  0  0  0  0  0  0  0
   -2.4195    0.9307    0.0000 C   0  0  0  0  0  0  0  0  0
   -1.7050    1.3432    0.0000 C   0  0  0  0  0  0  0  0  0
   -1.7050    2.1682    0.0000 C   0  0  0  0  0  0  0  0  0
   -0.9906    2.5807    0.0000 C   0  0  0  0  0  0  0  0  0
   -0.2761    2.1682    0.0000 C   0  0  0  0  0  0  0  0  0
   -0.2761    1.3432    0.0000 N   0  0  0  0  0  0  0  0  0
   -0.9906    0.9307    0.0000 C   0  0  0  0  0  0  0  0  0
  1  2  4  0  0  0  0
  1  5  4  0  0  0  0
  2  3  4  0  0  0  0
  3  4  4  0  0  0  0
  3  6  1  0  0  0  0
  4  5  4  0  0  0  0
  6  7  1  0  0  0  0
  7  8  4  0  0  0  0
  7 12  4  0  0  0  0
  8  9  4  0  0  0  0
  9 10  4  0  0  0  0
 10 11  4  0  0  0  0
 11 12  4  0  0  0  0
M  STY  1   1 DAT
M  SAL   1  1   1
M  SDT   1 MRV_IMPLICIT_H                                        
M  SDD   1     0.0000    0.0000    DR    ALL  0       0  
M  SED   1 IMPL_H1
M  END
>  <Name_Molregno>
127485

>  <HISTAMINE H3>
7.28

>  <HISTAMINE H4>
6.16

$$$$
127543
  Marvin  02231216192D 0   1.00000     0.00000     0

 12 13  0  0  0  0  0  0  0  0999 V2000
   -2.8320   -1.1639    0.0000 N   0  0  0  0  0  0  0  0  0
   -3.0870   -0.3793    0.0000 C   0  0  0  0  0  0  0  0  0
   -2.4195    0.1057    0.0000 C   0  0  0  0  0  0  0  0  0
   -1.7521   -0.3793    0.0000 N   0  0  0  0  0  0  0  0  0
   -2.0070   -1.1639    0.0000 C   0  0  0  0  0  0  0  0  0
   -2.4195    0.9307    0.0000 C   0  0  0  0  0  0  0  0  0
   -1.7050    1.3432    0.0000 C   0  0  0  0  0  0  0  0  0
   -1.7050    2.1682    0.0000 N   0  0  0  0  0  0  0  0  0
   -0.9906    2.5807    0.0000 C   0  0  0  0  0  0  0  0  0
   -0.2761    2.1682    0.0000 C   0  0  0  0  0  0  0  0  0
   -0.2761    1.3432    0.0000 C   0  0  0  0  0  0  0  0  0
   -0.9906    0.9307    0.0000 C   0  0  0  0  0  0  0  0  0
  1  2  4  0  0  0  0
  1  5  4  0  0  0  0
  2  3  4  0  0  0  0
  3  4  4  0  0  0  0
  3  6  1  0  0  0  0
  4  5  4  0  0  0  0
  6  7  1  0  0  0  0
  7  8  4  0  0  0  0
  7 12  4  0  0  0  0
  8  9  4  0  0  0  0
  9 10  4  0  0  0  0
 10 11  4  0  0  0  0
 11 12  4  0  0  0  0
M  STY  1   1 DAT
M  SAL   1  1   1
M  SDT   1 MRV_IMPLICIT_H                                        
M  SDD   1     0.0000    0.0000    DR    ALL  0       0  
M  SED   1 IMPL_H1
M  END
>  <Name_Molregno>
127543

>  <HISTAMINE H3>
6.23

>  <HISTAMINE H4>
5.34

$$$$
127575
  Marvin  02231216192D 0   1.00000     0.00000     0

 13 14  0  0  0  0  0  0  0  0999 V2000
    2.5047   -2.7675    0.0000 N   0  0  0  0  0  0  0  0  0
    2.2497   -1.9829    0.0000 C   0  0  0  0  0  0  0  0  0
    2.9172   -1.4980    0.0000 C   0  0  0  0  0  0  0  0  0
    3.5846   -1.9829    0.0000 N   0  0  0  0  0  0  0  0  0
    3.3297   -2.7675    0.0000 C   0  0  0  0  0  0  0  0  0
    2.9172   -0.6730    0.0000 C   0  0  0  0  0  0  0  0  0
    2.2027   -0.2605    0.0000 C   0  0  0  0  0  0  0  0  0
    2.2027    0.5645    0.0000 C   0  0  0  0  0  0  0  0  0
    1.4882    0.9770    0.0000 C   0  0  0  0  0  0  0  0  0
    1.4882    1.8020    0.0000 C   0  0  0  0  0  0  0  0  0
    2.2027    2.2145    0.0000 N   0  0  0  0  0  0  0  0  0
    2.9172    1.8020    0.0000 C   0  0  0  0  0  0  0  0  0
    2.9172    0.9770    0.0000 C   0  0  0  0  0  0  0  0  0
  1  2  4  0  0  0  0
  1  5  4  0  0  0  0
  2  3  4  0  0  0  0
  3  4  4  0  0  0  0
  3  6  1  0  0  0  0
  4  5  4  0  0  0  0
  6  7  1  0  0  0  0
  7  8  1  0  0  0  0
  8  9  4  0  0  0  0
  8 13  4  0  0  0  0
  9 10  4  0  0  0  0
 10 11  4  0  0  0  0
 11 12  4  0  0  0  0
 12 13  4  0  0  0  0
M  STY  1   1 DAT
M  SAL   1  1   1
M  SDT   1 MRV_IMPLICIT_H                                        
M  SDD   1     0.0000    0.0000    DR    ALL  0       0  
M  SED   1 IMPL_H1
M  END
>  <Name_Molregno>
127575

>  <HISTAMINE H3>
8.16

>  <HISTAMINE H4>
5.88

$$$$
127576
  Marvin  02231216192D 0   1.00000     0.00000     0

 14 15  0  0  0  0  0  0  0  0999 V2000
    1.3642   -3.0962    0.0000 N   0  0  0  0  0  0  0  0  0
    1.1093   -2.3116    0.0000 C   0  0  0  0  0  0  0  0  0
    1.7767   -1.8266    0.0000 C   0  0  0  0  0  0  0  0  0
    2.4442   -2.3116    0.0000 N   0  0  0  0  0  0  0  0  0
    2.1892   -3.0962    0.0000 C   0  0  0  0  0  0  0  0  0
    1.7767   -1.0016    0.0000 C   0  0  0  0  0  0  0  0  0
    2.4912   -0.5891    0.0000 C   0  0  0  0  0  0  0  0  0
    2.4912    0.2359    0.0000 C   0  0  0  0  0  0  0  0  0
    3.2057    0.6484    0.0000 C   0  0  0  0  0  0  0  0  0
    3.2057    1.4734    0.0000 C   0  0  0  0  0  0  0  0  0
    3.9201    1.8859    0.0000 C   0  0  0  0  0  0  0  0  0
    4.6346    1.4734    0.0000 C   0  0  0  0  0  0  0  0  0
    4.6346    0.6484    0.0000 N   0  0  0  0  0  0  0  0  0
    3.9201    0.2359    0.0000 C   0  0  0  0  0  0  0  0  0
  1  2  4  0  0  0  0
  1  5  4  0  0  0  0
  2  3  4  0  0  0  0
  3  4  4  0  0  0  0
  3  6  1  0  0  0  0
  4  5  4  0  0  0  0
  6  7  1  0  0  0  0
  7  8  1  0  0  0  0
  8  9  1  0  0  0  0
  9 10  4  0  0  0  0
  9 14  4  0  0  0  0
 10 11  4  0  0  0  0
 11 12  4  0  0  0  0
 12 13  4  0  0  0  0
 13 14  4  0  0  0  0
M  STY  1   1 DAT
M  SAL   1  1   1
M  SDT   1 MRV_IMPLICIT_H                                        
M  SDD   1     0.0000    0.0000    DR    ALL  0       0  
M  SED   1 IMPL_H1
M  END
>  <Name_Molregno>
127576

>  <HISTAMINE H3>
7.48

>  <HISTAMINE H4>
6.32

$$$$
148765
  Marvin  02231216192D 0   1.00000     0.00000     0

 10 10  0  0  0  0  0  0  0  0999 V2000
   -0.0461   -0.3555    0.0000 N   0  0  0  0  0  0  0  0  0
    0.5060    0.2576    0.0000 C   0  0  0  0  0  0  0  0  0
    1.2596   -0.0779    0.0000 C   0  0  0  0  0  0  0  0  0
    1.1734   -0.8984    0.0000 N   0  0  0  0  0  0  0  0  0
    0.3664   -1.0700    0.0000 C   0  0  0  0  0  0  0  0  0
    1.9741    0.3346    0.0000 C   0  0  0  0  0  0  0  0  0
    2.6886   -0.0779    0.0000 C   0  0  0  0  0  0  0  0  0
    3.4031    0.3346    0.0000 C   0  0  0  0  0  0  0  0  0
    4.1175   -0.0779    0.0000 C   0  0  0  0  0  0  0  0  0
    4.8320    0.3346    0.0000 N   0  0  0  0  0  0  0  0  0
  1  2  4  0  0  0  0
  1  5  4  0  0  0  0
  2  3  4  0  0  0  0
  3  4  4  0  0  0  0
  3  6  1  0  0  0  0
  4  5  4  0  0  0  0
  6  7  1  0  0  0  0
  7  8  1  0  0  0  0
  8  9  1  0  0  0  0
  9 10  1  0  0  0  0
M  STY  1   1 DAT
M  SAL   1  1   1
M  SDT   1 MRV_IMPLICIT_H                                        
M  SDD   1     0.0000    0.0000    DR    ALL  0       0  
M  SED   1 IMPL_H1
M  END
>  <Name_Molregno>
148765

>  <HISTAMINE H3>
8.39

>  <HISTAMINE H4>
7.92

$$$$
156767
  Marvin  02231216192D 0   1.00000     0.00000     0

 27 28  0  0  0  0  0  0  0  0999 V2000
    1.2671    2.2603    0.0000 O   0  0  0  0  0  0  0  0  0
    0.5526    2.6728    0.0000 C   0  0  0  0  0  0  0  0  0
    1.2671    1.4353    0.0000 C   0  0  0  0  0  0  0  0  0
    1.9815    1.0228    0.0000 C   0  0  0  0  0  0  0  0  0
    1.9815    0.1978    0.0000 C   0  0  0  0  0  0  0  0  0
    1.2671   -0.2147    0.0000 C   0  0  0  0  0  0  0  0  0
    0.5526    0.1978    0.0000 C   0  0  0  0  0  0  0  0  0
    0.5526    1.0228    0.0000 C   0  0  0  0  0  0  0  0  0
   -0.1619    1.4353    0.0000 O   0  0  0  0  0  0  0  0  0
   -0.8763    1.0228    0.0000 C   0  0  0  0  0  0  0  0  0
    2.6960   -0.2147    0.0000 C   0  0  0  0  0  0  0  0  0
    2.6960   -1.0397    0.0000 O   0  0  0  0  0  0  0  0  0
    3.4105    0.1978    0.0000 C   0  0  0  0  0  0  0  0  0
    4.1249   -0.2147    0.0000 C   0  0  0  0  0  0  0  0  0
    4.8394    0.1978    0.0000 C   0  0  0  0  0  0  0  0  0
    4.8394    1.0228    0.0000 O   0  0  0  0  0  0  0  0  0
    5.5539   -0.2147    0.0000 N   0  0  0  0  0  0  0  0  0
    6.2684    0.1978    0.0000 C   0  0  0  0  0  0  0  0  0
    6.9828   -0.2147    0.0000 C   0  0  0  0  0  0  0  0  0
    6.9828   -1.0397    0.0000 N   0  0  0  0  0  0  0  0  0
    6.2684   -1.4522    0.0000 C   0  0  0  0  0  0  0  0  0
    5.5539   -1.0397    0.0000 C   0  0  0  0  0  0  0  0  0
    7.6973   -1.4522    0.0000 C   0  0  0  0  0  0  0  0  0
    7.6973   -2.2772    0.0000 C   0  0  0  0  0  0  0  0  0
    8.4118   -2.6897    0.0000 C   0  0  0  0  0  0  0  0  0
    8.4118   -1.0397    0.0000 C   0  0  0  0  0  0  0  0  0
    9.1262   -1.4522    0.0000 C   0  0  0  0  0  0  0  0  0
  1  2  1  0  0  0  0
  1  3  1  0  0  0  0
  3  4  4  0  0  0  0
  3  8  4  0  0  0  0
  4  5  4  0  0  0  0
  5  6  4  0  0  0  0
  5 11  1  0  0  0  0
  6  7  4  0  0  0  0
  7  8  4  0  0  0  0
  8  9  1  0  0  0  0
  9 10  1  0  0  0  0
 11 12  2  0  0  0  0
 11 13  1  0  0  0  0
 13 14  1  0  0  0  0
 14 15  1  0  0  0  0
 15 16  2  0  0  0  0
 15 17  1  0  0  0  0
 17 18  1  0  0  0  0
 17 22  1  0  0  0  0
 18 19  1  0  0  0  0
 19 20  1  0  0  0  0
 20 21  1  0  0  0  0
 20 23  1  0  0  0  0
 21 22  1  0  0  0  0
 23 24  1  0  0  0  0
 23 26  1  0  0  0  0
 24 25  1  0  0  0  0
 26 27  1  0  0  0  0
M  END
>  <Name_Molregno>
156767

>  <HISTAMINE H3>
9.42

$$$$
157085
  Marvin  02231216192D 0   1.00000     0.00000     0

 24 25  0  0  0  0  0  0  0  0999 V2000
    0.1116    2.6017    0.0000 Cl  0  0  0  0  0  0  0  0  0
    0.8260    2.1892    0.0000 C   0  0  0  0  0  0  0  0  0
    1.5405    2.6017    0.0000 C   0  0  0  0  0  0  0  0  0
    2.2550    2.1892    0.0000 C   0  0  0  0  0  0  0  0  0
    2.2550    1.3642    0.0000 C   0  0  0  0  0  0  0  0  0
    1.5405    0.9517    0.0000 C   0  0  0  0  0  0  0  0  0
    0.8260    1.3642    0.0000 C   0  0  0  0  0  0  0  0  0
    2.9695    0.9517    0.0000 C   0  0  0  0  0  0  0  0  0
    2.9695    0.1267    0.0000 O   0  0  0  0  0  0  0  0  0
    3.6839    1.3642    0.0000 C   0  0  0  0  0  0  0  0  0
    4.3984    0.9517    0.0000 C   0  0  0  0  0  0  0  0  0
    5.1129    1.3642    0.0000 C   0  0  0  0  0  0  0  0  0
    5.1129    2.1892    0.0000 O   0  0  0  0  0  0  0  0  0
    5.8273    0.9517    0.0000 N   0  0  0  0  0  0  0  0  0
    6.5418    1.3642    0.0000 C   0  0  0  0  0  0  0  0  0
    7.2563    0.9517    0.0000 C   0  0  0  0  0  0  0  0  0
    7.2563    0.1267    0.0000 N   0  0  0  0  0  0  0  0  0
    6.5418   -0.2858    0.0000 C   0  0  0  0  0  0  0  0  0
    5.8273    0.1267    0.0000 C   0  0  0  0  0  0  0  0  0
    7.9708   -0.2858    0.0000 C   0  0  0  0  0  0  0  0  0
    7.9708   -1.1108    0.0000 C   0  0  0  0  0  0  0  0  0
    8.6852   -1.5233    0.0000 C   0  0  0  0  0  0  0  0  0
    8.6852    0.1267    0.0000 C   0  0  0  0  0  0  0  0  0
    9.3997   -0.2858    0.0000 C   0  0  0  0  0  0  0  0  0
  1  2  1  0  0  0  0
  2  3  4  0  0  0  0
  2  7  4  0  0  0  0
  3  4  4  0  0  0  0
  4  5  4  0  0  0  0
  5  6  4  0  0  0  0
  5  8  1  0  0  0  0
  6  7  4  0  0  0  0
  8  9  2  0  0  0  0
  8 10  1  0  0  0  0
 10 11  1  0  0  0  0
 11 12  1  0  0  0  0
 12 13  2  0  0  0  0
 12 14  1  0  0  0  0
 14 15  1  0  0  0  0
 14 19  1  0  0  0  0
 15 16  1  0  0  0  0
 16 17  1  0  0  0  0
 17 18  1  0  0  0  0
 17 20  1  0  0  0  0
 18 19  1  0  0  0  0
 20 21  1  0  0  0  0
 20 23  1  0  0  0  0
 21 22  1  0  0  0  0
 23 24  1  0  0  0  0
M  END
>  <Name_Molregno>
157085

>  <HISTAMINE H3>
9.06

$$$$
171513
  Marvin  02231216192D 0   1.00000     0.00000     0

 24 26  0  0  1  0  0  0  0  0999 V2000
   -0.3601   -1.4374    0.0000 O   0  0  0  0  0  0  0  0  0
    0.3544   -1.0249    0.0000 C   0  0  0  0  0  0  0  0  0
    1.0689   -1.4374    0.0000 C   0  0  0  0  0  0  0  0  0
    1.7833   -1.0249    0.0000 C   0  0  0  0  0  0  0  0  0
    2.4978   -1.4374    0.0000 N   0  0  0  0  0  0  0  0  0
    3.2515   -1.1019    0.0000 C   0  0  0  0  0  0  0  0  0
    3.8035   -1.7149    0.0000 C   0  0  0  0  0  0  0  0  0
    4.6240   -1.6287    0.0000 O   0  0  0  0  0  0  0  0  0
    3.3910   -2.4294    0.0000 C   0  0  0  0  0  0  0  0  0
    2.5840   -2.2579    0.0000 C   0  0  0  0  0  0  0  0  0
   -1.0746   -1.0249    0.0000 C   0  0  0  0  0  0  0  0  0
   -1.7890   -1.4374    0.0000 C   0  0  0  0  0  0  0  0  0
   -2.5035   -1.0249    0.0000 C   0  0  0  0  0  0  0  0  0
   -2.5035   -0.1999    0.0000 C   0  0  0  0  0  0  0  0  0
   -1.7890    0.2126    0.0000 C   0  0  0  0  0  0  0  0  0
   -1.0746   -0.1999    0.0000 C   0  0  0  0  0  0  0  0  0
   -3.2180    0.2126    0.0000 C   0  0  0  0  0  0  0  0  0
   -3.9324   -0.1999    0.0000 C   0  0  0  0  0  0  0  0  0
   -4.6469    0.2126    0.0000 C   0  0  0  0  0  0  0  0  0
   -4.6469    1.0376    0.0000 C   0  0  0  0  0  0  0  0  0
   -3.9324    1.4501    0.0000 C   0  0  0  0  0  0  0  0  0
   -3.2180    1.0376    0.0000 C   0  0  0  0  0  0  0  0  0
   -5.3614    1.4501    0.0000 C   0  0  0  0  0  0  0  0  0
   -6.0759    1.8626    0.0000 N   0  0  0  0  0  0  0  0  0
  1  2  1  0  0  0  0
  1 11  1  0  0  0  0
  2  3  1  0  0  0  0
  3  4  1  0  0  0  0
  4  5  1  0  0  0  0
  5  6  1  0  0  0  0
  5 10  1  0  0  0  0
  6  7  1  0  0  0  0
  7  8  1  0  0  0  0
  7  9  1  0  0  0  0
  9 10  1  0  0  0  0
 11 12  4  0  0  0  0
 11 16  4  0  0  0  0
 12 13  4  0  0  0  0
 13 14  4  0  0  0  0
 14 15  4  0  0  0  0
 14 17  1  0  0  0  0
 15 16  4  0  0  0  0
 17 18  4  0  0  0  0
 17 22  4  0  0  0  0
 18 19  4  0  0  0  0
 19 20  4  0  0  0  0
 20 21  4  0  0  0  0
 20 23  1  0  0  0  0
 21 22  4  0  0  0  0
 23 24  3  0  0  0  0
M  END
>  <Name_Molregno>
171513

>  <HISTAMINE H1>
5.3

>  <HISTAMINE H2>
4.74

>  <HISTAMINE H3>
7.89

$$$$
171542
  Marvin  02231216192D 0   1.00000     0.00000     0

 25 27  0  0  0  0  0  0  0  0999 V2000
   -0.3383   -1.3274    0.0000 O   0  0  0  0  0  0  0  0  0
    0.3762   -0.9149    0.0000 C   0  0  0  0  0  0  0  0  0
    1.0907   -1.3274    0.0000 C   0  0  0  0  0  0  0  0  0
    1.8051   -0.9149    0.0000 C   0  0  0  0  0  0  0  0  0
    2.5196   -1.3274    0.0000 N   0  0  0  0  0  0  0  0  0
    3.2341   -0.9149    0.0000 C   0  0  0  0  0  0  0  0  0
    3.9485   -1.3274    0.0000 C   0  0  0  0  0  0  0  0  0
    3.9485   -2.1524    0.0000 C   0  0  0  0  0  0  0  0  0
    4.6630   -2.5649    0.0000 N   0  0  0  0  0  0  0  0  0
    3.2341   -2.5649    0.0000 C   0  0  0  0  0  0  0  0  0
    2.5196   -2.1524    0.0000 C   0  0  0  0  0  0  0  0  0
   -1.0528   -0.9149    0.0000 C   0  0  0  0  0  0  0  0  0
   -1.7672   -1.3274    0.0000 C   0  0  0  0  0  0  0  0  0
   -2.4817   -0.9149    0.0000 C   0  0  0  0  0  0  0  0  0
   -2.4817   -0.0899    0.0000 C   0  0  0  0  0  0  0  0  0
   -1.7672    0.3226    0.0000 C   0  0  0  0  0  0  0  0  0
   -1.0528   -0.0899    0.0000 C   0  0  0  0  0  0  0  0  0
   -3.1962    0.3226    0.0000 C   0  0  0  0  0  0  0  0  0
   -3.9106   -0.0899    0.0000 C   0  0  0  0  0  0  0  0  0
   -4.6251    0.3226    0.0000 C   0  0  0  0  0  0  0  0  0
   -4.6251    1.1476    0.0000 C   0  0  0  0  0  0  0  0  0
   -3.9106    1.5601    0.0000 C   0  0  0  0  0  0  0  0  0
   -3.1962    1.1476    0.0000 C   0  0  0  0  0  0  0  0  0
   -5.3396    1.5601    0.0000 C   0  0  0  0  0  0  0  0  0
   -6.0540    1.9726    0.0000 N   0  0  0  0  0  0  0  0  0
  1  2  1  0  0  0  0
  1 12  1  0  0  0  0
  2  3  1  0  0  0  0
  3  4  1  0  0  0  0
  4  5  1  0  0  0  0
  5  6  1  0  0  0  0
  5 11  1  0  0  0  0
  6  7  1  0  0  0  0
  7  8  1  0  0  0  0
  8  9  1  0  0  0  0
  8 10  1  0  0  0  0
 10 11  1  0  0  0  0
 12 13  4  0  0  0  0
 12 17  4  0  0  0  0
 13 14  4  0  0  0  0
 14 15  4  0  0  0  0
 15 16  4  0  0  0  0
 15 18  1  0  0  0  0
 16 17  4  0  0  0  0
 18 19  4  0  0  0  0
 18 23  4  0  0  0  0
 19 20  4  0  0  0  0
 20 21  4  0  0  0  0
 21 22  4  0  0  0  0
 21 24  1  0  0  0  0
 22 23  4  0  0  0  0
 24 25  3  0  0  0  0
M  END
>  <Name_Molregno>
171542

>  <HISTAMINE H1>
5.45

>  <HISTAMINE H2>
4.47

>  <HISTAMINE H3>
6.7

$$$$
171604
  Marvin  02231216192D 0   1.00000     0.00000     0

 24 26  0  0  1  0  0  0  0  0999 V2000
   -0.3601   -1.4374    0.0000 O   0  0  0  0  0  0  0  0  0
    0.3544   -1.0249    0.0000 C   0  0  0  0  0  0  0  0  0
    1.0689   -1.4374    0.0000 C   0  0  0  0  0  0  0  0  0
    1.7833   -1.0249    0.0000 C   0  0  0  0  0  0  0  0  0
    2.4978   -1.4374    0.0000 N   0  0  0  0  0  0  0  0  0
    3.2515   -1.1019    0.0000 C   0  0  0  0  0  0  0  0  0
    3.8035   -1.7149    0.0000 C   0  0  0  0  0  0  0  0  0
    4.6240   -1.6287    0.0000 N   0  0  0  0  0  0  0  0  0
    3.3910   -2.4294    0.0000 C   0  0  0  0  0  0  0  0  0
    2.5840   -2.2579    0.0000 C   0  0  0  0  0  0  0  0  0
   -1.0746   -1.0249    0.0000 C   0  0  0  0  0  0  0  0  0
   -1.7890   -1.4374    0.0000 C   0  0  0  0  0  0  0  0  0
   -2.5035   -1.0249    0.0000 C   0  0  0  0  0  0  0  0  0
   -2.5035   -0.1999    0.0000 C   0  0  0  0  0  0  0  0  0
   -1.7890    0.2126    0.0000 C   0  0  0  0  0  0  0  0  0
   -1.0746   -0.1999    0.0000 C   0  0  0  0  0  0  0  0  0
   -3.2180    0.2126    0.0000 C   0  0  0  0  0  0  0  0  0
   -3.9324   -0.1999    0.0000 C   0  0  0  0  0  0  0  0  0
   -4.6469    0.2126    0.0000 C   0  0  0  0  0  0  0  0  0
   -4.6469    1.0376    0.0000 C   0  0  0  0  0  0  0  0  0
   -3.9324    1.4501    0.0000 C   0  0  0  0  0  0  0  0  0
   -3.2180    1.0376    0.0000 C   0  0  0  0  0  0  0  0  0
   -5.3614    1.4501    0.0000 C   0  0  0  0  0  0  0  0  0
   -6.0759    1.8626    0.0000 N   0  0  0  0  0  0  0  0  0
  1  2  1  0  0  0  0
  1 11  1  0  0  0  0
  2  3  1  0  0  0  0
  3  4  1  0  0  0  0
  4  5  1  0  0  0  0
  5  6  1  0  0  0  0
  5 10  1  0  0  0  0
  6  7  1  0  0  0  0
  7  8  1  0  0  0  0
  7  9  1  0  0  0  0
  9 10  1  0  0  0  0
 11 12  4  0  0  0  0
 11 16  4  0  0  0  0
 12 13  4  0  0  0  0
 13 14  4  0  0  0  0
 14 15  4  0  0  0  0
 14 17  1  0  0  0  0
 15 16  4  0  0  0  0
 17 18  4  0  0  0  0
 17 22  4  0  0  0  0
 18 19  4  0  0  0  0
 19 20  4  0  0  0  0
 20 21  4  0  0  0  0
 20 23  1  0  0  0  0
 21 22  4  0  0  0  0
 23 24  3  0  0  0  0
M  END
>  <Name_Molregno>
171604

>  <HISTAMINE H1>
4.86

>  <HISTAMINE H2>
5.13

>  <HISTAMINE H3>
8.21

$$$$
182602
  Marvin  02231216192D 0   1.00000     0.00000     0

 15 16  0  0  0  0  0  0  0  0999 V2000
   -0.0219   -0.5273    0.0000 O   0  0  0  0  0  0  0  0  0
    0.6925   -0.1148    0.0000 C   0  0  0  0  0  0  0  0  0
    1.4070   -0.5273    0.0000 C   0  0  0  0  0  0  0  0  0
    2.1215   -0.1148    0.0000 C   0  0  0  0  0  0  0  0  0
    2.8360   -0.5273    0.0000 C   0  0  0  0  0  0  0  0  0
    3.5896   -0.1917    0.0000 N   0  0  0  0  0  0  0  0  0
    4.1417   -0.8048    0.0000 C   0  0  0  0  0  0  0  0  0
    3.7292   -1.5193    0.0000 N   0  0  0  0  0  0  0  0  0
    2.9222   -1.3478    0.0000 C   0  0  0  0  0  0  0  0  0
   -0.7364   -0.1148    0.0000 C   0  0  0  0  0  0  0  0  0
   -1.4509   -0.5273    0.0000 C   0  0  0  0  0  0  0  0  0
   -2.1653   -0.1148    0.0000 C   0  0  0  0  0  0  0  0  0
   -2.1653    0.7102    0.0000 C   0  0  0  0  0  0  0  0  0
   -1.4509    1.1227    0.0000 C   0  0  0  0  0  0  0  0  0
   -0.7364    0.7102    0.0000 C   0  0  0  0  0  0  0  0  0
  1  2  1  0  0  0  0
  1 10  1  0  0  0  0
  2  3  1  0  0  0  0
  3  4  1  0  0  0  0
  4  5  1  0  0  0  0
  5  6  4  0  0  0  0
  5  9  4  0  0  0  0
  6  7  4  0  0  0  0
  7  8  4  0  0  0  0
  8  9  4  0  0  0  0
 10 11  4  0  0  0  0
 10 15  4  0  0  0  0
 11 12  4  0  0  0  0
 12 13  4  0  0  0  0
 13 14  4  0  0  0  0
 14 15  4  0  0  0  0
M  STY  1   1 DAT
M  SAL   1  1   8
M  SDT   1 MRV_IMPLICIT_H                                        
M  SDD   1     0.0000    0.0000    DR    ALL  0       0  
M  SED   1 IMPL_H1
M  END
>  <Name_Molregno>
182602

>  <HISTAMINE H3>
7.57

$$$$
185728
  Marvin  02231216192D 0   1.00000     0.00000     0

 18 19  0  0  0  0  0  0  0  0999 V2000
   -0.1315   -1.0627    0.0000 O   0  0  0  0  0  0  0  0  0
    0.5830   -0.6502    0.0000 C   0  0  0  0  0  0  0  0  0
    1.2974   -1.0627    0.0000 C   0  0  0  0  0  0  0  0  0
    2.0119   -0.6502    0.0000 C   0  0  0  0  0  0  0  0  0
    2.7264   -1.0627    0.0000 C   0  0  0  0  0  0  0  0  0
    3.4801   -0.7272    0.0000 N   0  0  0  0  0  0  0  0  0
    4.0321   -1.3403    0.0000 C   0  0  0  0  0  0  0  0  0
    3.6196   -2.0547    0.0000 N   0  0  0  0  0  0  0  0  0
    2.8126   -1.8832    0.0000 C   0  0  0  0  0  0  0  0  0
   -0.8460   -0.6502    0.0000 C   0  0  0  0  0  0  0  0  0
   -1.5604   -1.0627    0.0000 C   0  0  0  0  0  0  0  0  0
   -2.2749   -0.6502    0.0000 C   0  0  0  0  0  0  0  0  0
   -2.2749    0.1748    0.0000 C   0  0  0  0  0  0  0  0  0
   -1.5604    0.5873    0.0000 C   0  0  0  0  0  0  0  0  0
   -0.8460    0.1748    0.0000 C   0  0  0  0  0  0  0  0  0
   -2.9894    0.5873    0.0000 C   0  0  0  0  0  0  0  0  0
   -3.7038    0.1748    0.0000 O   0  0  0  0  0  0  0  0  0
   -2.9894    1.4123    0.0000 C   0  0  0  0  0  0  0  0  0
  1  2  1  0  0  0  0
  1 10  1  0  0  0  0
  2  3  1  0  0  0  0
  3  4  1  0  0  0  0
  4  5  1  0  0  0  0
  5  6  4  0  0  0  0
  5  9  4  0  0  0  0
  6  7  4  0  0  0  0
  7  8  4  0  0  0  0
  8  9  4  0  0  0  0
 10 11  4  0  0  0  0
 10 15  4  0  0  0  0
 11 12  4  0  0  0  0
 12 13  4  0  0  0  0
 13 14  4  0  0  0  0
 13 16  1  0  0  0  0
 14 15  4  0  0  0  0
 16 17  2  0  0  0  0
 16 18  1  0  0  0  0
M  STY  1   1 DAT
M  SAL   1  1   8
M  SDT   1 MRV_IMPLICIT_H                                        
M  SDD   1     0.0000    0.0000    DR    ALL  0       0  
M  SED   1 IMPL_H1
M  END
>  <Name_Molregno>
185728

>  <HISTAMINE H3>
7.06

$$$$
198109
  Marvin  02231216192D 0   1.00000     0.00000     0

 16 17  0  0  0  0  0  0  0  0999 V2000
   -3.9262    2.5926    0.0000 N   0  0  0  0  0  0  0  0  0
   -3.2118    2.1801    0.0000 C   0  0  0  0  0  0  0  0  0
   -3.2118    1.3551    0.0000 C   0  0  0  0  0  0  0  0  0
   -2.4973    0.9426    0.0000 C   0  0  0  0  0  0  0  0  0
   -2.4973    0.1176    0.0000 C   0  0  0  0  0  0  0  0  0
   -3.2118   -0.2949    0.0000 C   0  0  0  0  0  0  0  0  0
   -3.9262    0.1176    0.0000 C   0  0  0  0  0  0  0  0  0
   -3.9262    0.9426    0.0000 C   0  0  0  0  0  0  0  0  0
   -3.2118   -1.1199    0.0000 C   0  0  0  0  0  0  0  0  0
   -2.4973   -1.5324    0.0000 C   0  0  0  0  0  0  0  0  0
   -2.4973   -2.3574    0.0000 C   0  0  0  0  0  0  0  0  0
   -3.2118   -2.7699    0.0000 C   0  0  0  0  0  0  0  0  0
   -3.9262   -2.3574    0.0000 C   0  0  0  0  0  0  0  0  0
   -3.9262   -1.5324    0.0000 C   0  0  0  0  0  0  0  0  0
   -3.2118   -3.5949    0.0000 C   0  0  0  0  0  0  0  0  0
   -2.4973   -4.0074    0.0000 N   0  0  0  0  0  0  0  0  0
  1  2  1  0  0  0  0
  2  3  1  0  0  0  0
  3  4  4  0  0  0  0
  3  8  4  0  0  0  0
  4  5  4  0  0  0  0
  5  6  4  0  0  0  0
  6  7  4  0  0  0  0
  6  9  1  0  0  0  0
  7  8  4  0  0  0  0
  9 10  4  0  0  0  0
  9 14  4  0  0  0  0
 10 11  4  0  0  0  0
 11 12  4  0  0  0  0
 12 13  4  0  0  0  0
 12 15  1  0  0  0  0
 13 14  4  0  0  0  0
 15 16  1  0  0  0  0
M  END
>  <Name_Molregno>
198109

>  <HISTAMINE H3>
5.35

$$$$
206670
  Marvin  02231216192D 0   1.00000     0.00000     0

 17 18  0  0  0  0  0  0  0  0999 V2000
   -1.3113   -0.3386    0.0000 O   0  0  0  0  0  0  0  0  0
   -1.3113   -1.1636    0.0000 C   0  0  0  0  0  0  0  0  0
   -2.0258   -1.5761    0.0000 C   0  0  0  0  0  0  0  0  0
   -2.0258   -2.4011    0.0000 C   0  0  0  0  0  0  0  0  0
   -1.3584   -2.8860    0.0000 N   0  0  0  0  0  0  0  0  0
   -1.6133   -3.6706    0.0000 C   0  0  0  0  0  0  0  0  0
   -2.4383   -3.6706    0.0000 N   0  0  0  0  0  0  0  0  0
   -2.6932   -2.8860    0.0000 C   0  0  0  0  0  0  0  0  0
   -0.5969    0.0739    0.0000 C   0  0  0  0  0  0  0  0  0
   -0.5969    0.8989    0.0000 C   0  0  0  0  0  0  0  0  0
    0.1176    1.3114    0.0000 C   0  0  0  0  0  0  0  0  0
    0.8321    0.8989    0.0000 C   0  0  0  0  0  0  0  0  0
    0.8321    0.0739    0.0000 C   0  0  0  0  0  0  0  0  0
    0.1176   -0.3386    0.0000 C   0  0  0  0  0  0  0  0  0
    1.5466    1.3114    0.0000 C   0  0  0  0  0  0  0  0  0
    1.5466    2.1364    0.0000 O   0  0  0  0  0  0  0  0  0
    2.2610    0.8989    0.0000 C   0  0  0  0  0  0  0  0  0
  1  2  1  0  0  0  0
  1  9  1  0  0  0  0
  2  3  1  0  0  0  0
  3  4  1  0  0  0  0
  4  5  4  0  0  0  0
  4  8  4  0  0  0  0
  5  6  4  0  0  0  0
  6  7  4  0  0  0  0
  7  8  4  0  0  0  0
  9 10  4  0  0  0  0
  9 14  4  0  0  0  0
 10 11  4  0  0  0  0
 11 12  4  0  0  0  0
 12 13  4  0  0  0  0
 12 15  1  0  0  0  0
 13 14  4  0  0  0  0
 15 16  2  0  0  0  0
 15 17  1  0  0  0  0
M  STY  1   1 DAT
M  SAL   1  1   7
M  SDT   1 MRV_IMPLICIT_H                                        
M  SDD   1     0.0000    0.0000    DR    ALL  0       0  
M  SED   1 IMPL_H1
M  END
>  <Name_Molregno>
206670

>  <HISTAMINE H3>
7.38

$$$$
212343
  Marvin  02231216192D 0   1.00000     0.00000     0

 19 21  0  0  0  0  0  0  0  0999 V2000
    6.7813   -1.7154    0.0000 Cl  0  0  0  0  0  0  0  0  0
    6.0668   -1.3029    0.0000 C   0  0  0  0  0  0  0  0  0
    5.3523   -1.7154    0.0000 C   0  0  0  0  0  0  0  0  0
    4.6379   -1.3029    0.0000 C   0  0  0  0  0  0  0  0  0
    3.8532   -1.5579    0.0000 C   0  0  0  0  0  0  0  0  0
    3.3683   -0.8904    0.0000 C   0  0  0  0  0  0  0  0  0
    3.8532   -0.2230    0.0000 N   0  0  0  0  0  0  0  0  0
    4.6379   -0.4779    0.0000 C   0  0  0  0  0  0  0  0  0
    5.3523   -0.0654    0.0000 C   0  0  0  0  0  0  0  0  0
    6.0668   -0.4779    0.0000 C   0  0  0  0  0  0  0  0  0
    2.5433   -0.8904    0.0000 C   0  0  0  0  0  0  0  0  0
    2.1308   -1.6049    0.0000 O   0  0  0  0  0  0  0  0  0
    2.1308   -0.1760    0.0000 N   0  0  0  0  0  0  0  0  0
    1.3058   -0.1760    0.0000 C   0  0  0  0  0  0  0  0  0
    0.8933    0.5385    0.0000 C   0  0  0  0  0  0  0  0  0
    1.3058    1.2530    0.0000 N   0  0  0  0  0  0  0  0  0
    2.1308    1.2530    0.0000 C   0  0  0  0  0  0  0  0  0
    2.5433    0.5385    0.0000 C   0  0  0  0  0  0  0  0  0
    0.8933    1.9674    0.0000 C   0  0  0  0  0  0  0  0  0
  1  2  1  0  0  0  0
  2  3  4  0  0  0  0
  2 10  4  0  0  0  0
  3  4  4  0  0  0  0
  4  5  4  0  0  0  0
  4  8  4  0  0  0  0
  5  6  4  0  0  0  0
  6  7  4  0  0  0  0
  6 11  1  0  0  0  0
  7  8  4  0  0  0  0
  8  9  4  0  0  0  0
  9 10  4  0  0  0  0
 11 12  2  0  0  0  0
 11 13  1  0  0  0  0
 13 14  1  0  0  0  0
 13 18  1  0  0  0  0
 14 15  1  0  0  0  0
 15 16  1  0  0  0  0
 16 17  1  0  0  0  0
 16 19  1  0  0  0  0
 17 18  1  0  0  0  0
M  STY  1   1 DAT
M  SAL   1  1   7
M  SDT   1 MRV_IMPLICIT_H                                        
M  SDD   1     0.0000    0.0000    DR    ALL  0       0  
M  SED   1 IMPL_H1
M  END
>  <Name_Molregno>
212343

>  <HISTAMINE H1>
6.01

>  <HISTAMINE H2>
5.07

>  <HISTAMINE H3>
5.57

>  <HISTAMINE H4>
7.94

$$$$
212352
  Marvin  02231216192D 0   1.00000     0.00000     0

 18 19  0  0  0  0  0  0  0  0999 V2000
   -0.2807   -1.0070    0.0000 O   0  0  0  0  0  0  0  0  0
    0.4338   -0.5945    0.0000 C   0  0  0  0  0  0  0  0  0
    1.1483   -1.0070    0.0000 C   0  0  0  0  0  0  0  0  0
    1.8628   -0.5945    0.0000 C   0  0  0  0  0  0  0  0  0
    2.5772   -1.0070    0.0000 N   0  0  0  0  0  0  0  0  0
    3.2917   -0.5945    0.0000 C   0  0  0  0  0  0  0  0  0
    4.0062   -1.0070    0.0000 C   0  0  0  0  0  0  0  0  0
    4.0062   -1.8320    0.0000 C   0  0  0  0  0  0  0  0  0
    3.2917   -2.2445    0.0000 C   0  0  0  0  0  0  0  0  0
    2.5772   -1.8320    0.0000 C   0  0  0  0  0  0  0  0  0
   -0.9951   -0.5945    0.0000 C   0  0  0  0  0  0  0  0  0
   -1.7096   -1.0070    0.0000 C   0  0  0  0  0  0  0  0  0
   -2.4241   -0.5945    0.0000 C   0  0  0  0  0  0  0  0  0
   -2.4241    0.2305    0.0000 C   0  0  0  0  0  0  0  0  0
   -1.7096    0.6430    0.0000 C   0  0  0  0  0  0  0  0  0
   -0.9951    0.2305    0.0000 C   0  0  0  0  0  0  0  0  0
   -3.1385    0.6430    0.0000 C   0  0  0  0  0  0  0  0  0
   -3.8530    1.0555    0.0000 N   0  0  0  0  0  0  0  0  0
  1  2  1  0  0  0  0
  1 11  1  0  0  0  0
  2  3  1  0  0  0  0
  3  4  1  0  0  0  0
  4  5  1  0  0  0  0
  5  6  1  0  0  0  0
  5 10  1  0  0  0  0
  6  7  1  0  0  0  0
  7  8  1  0  0  0  0
  8  9  1  0  0  0  0
  9 10  1  0  0  0  0
 11 12  4  0  0  0  0
 11 16  4  0  0  0  0
 12 13  4  0  0  0  0
 13 14  4  0  0  0  0
 14 15  4  0  0  0  0
 14 17  1  0  0  0  0
 15 16  4  0  0  0  0
 17 18  3  0  0  0  0
M  END
>  <Name_Molregno>
212352

>  <HISTAMINE H3>
7.78

$$$$
212463
  Marvin  02231216192D 0   1.00000     0.00000     0

 17 19  0  0  0  0  0  0  0  0999 V2000
   -1.8065   -0.4449    0.0000 O   0  0  0  0  0  0  0  0  0
   -1.3940   -1.1594    0.0000 C   0  0  0  0  0  0  0  0  0
   -1.8065   -1.8738    0.0000 N   0  0  0  0  0  0  0  0  0
   -1.3940   -2.5883    0.0000 C   0  0  0  0  0  0  0  0  0
   -1.8065   -3.3028    0.0000 C   0  0  0  0  0  0  0  0  0
   -2.6315   -3.3028    0.0000 N   0  0  0  0  0  0  0  0  0
   -3.0440   -2.5883    0.0000 C   0  0  0  0  0  0  0  0  0
   -2.6315   -1.8738    0.0000 C   0  0  0  0  0  0  0  0  0
   -0.5690   -1.1594    0.0000 C   0  0  0  0  0  0  0  0  0
   -0.0841   -1.8268    0.0000 N   0  0  0  0  0  0  0  0  0
    0.7005   -1.5719    0.0000 C   0  0  0  0  0  0  0  0  0
    0.7005   -0.7469    0.0000 C   0  0  0  0  0  0  0  0  0
   -0.0841   -0.4919    0.0000 C   0  0  0  0  0  0  0  0  0
    1.4150   -0.3344    0.0000 C   0  0  0  0  0  0  0  0  0
    2.1295   -0.7469    0.0000 C   0  0  0  0  0  0  0  0  0
    2.1295   -1.5719    0.0000 C   0  0  0  0  0  0  0  0  0
    1.4150   -1.9844    0.0000 C   0  0  0  0  0  0  0  0  0
  1  2  2  0  0  0  0
  2  3  1  0  0  0  0
  2  9  1  0  0  0  0
  3  4  1  0  0  0  0
  3  8  1  0  0  0  0
  4  5  1  0  0  0  0
  5  6  1  0  0  0  0
  6  7  1  0  0  0  0
  7  8  1  0  0  0  0
  9 10  4  0  0  0  0
  9 13  4  0  0  0  0
 10 11  4  0  0  0  0
 11 12  4  0  0  0  0
 11 17  4  0  0  0  0
 12 13  4  0  0  0  0
 12 14  4  0  0  0  0
 14 15  4  0  0  0  0
 15 16  4  0  0  0  0
 16 17  4  0  0  0  0
M  STY  1   1 DAT
M  SAL   1  1  10
M  SDT   1 MRV_IMPLICIT_H                                        
M  SDD   1     0.0000    0.0000    DR    ALL  0       0  
M  SED   1 IMPL_H1
M  END
>  <Name_Molregno>
212463

>  <HISTAMINE H3>
5.05

>  <HISTAMINE H4>
7.42

$$$$
212531
  Marvin  02231216192D 0   1.00000     0.00000     0

 23 25  0  0  0  0  0  0  0  0999 V2000
    0.0144   -0.0095    0.0000 O   0  0  0  0  0  0  0  0  0
    0.7288    0.4030    0.0000 C   0  0  0  0  0  0  0  0  0
    1.4433   -0.0095    0.0000 C   0  0  0  0  0  0  0  0  0
    2.1578    0.4030    0.0000 C   0  0  0  0  0  0  0  0  0
    2.8723   -0.0095    0.0000 N   0  0  0  0  0  0  0  0  0
    3.5867    0.4030    0.0000 C   0  0  0  0  0  0  0  0  0
    4.3012   -0.0095    0.0000 C   0  0  0  0  0  0  0  0  0
    4.3012   -0.8345    0.0000 C   0  0  0  0  0  0  0  0  0
    3.5867   -1.2470    0.0000 C   0  0  0  0  0  0  0  0  0
    2.8723   -0.8345    0.0000 C   0  0  0  0  0  0  0  0  0
   -0.7001    0.4030    0.0000 C   0  0  0  0  0  0  0  0  0
   -1.4146   -0.0095    0.0000 C   0  0  0  0  0  0  0  0  0
   -2.1290    0.4030    0.0000 C   0  0  0  0  0  0  0  0  0
   -2.1290    1.2280    0.0000 C   0  0  0  0  0  0  0  0  0
   -1.4146    1.6405    0.0000 C   0  0  0  0  0  0  0  0  0
   -0.7001    1.2280    0.0000 C   0  0  0  0  0  0  0  0  0
   -2.8435    1.6405    0.0000 C   0  0  0  0  0  0  0  0  0
   -3.5580    1.2280    0.0000 N   0  0  0  0  0  0  0  0  0
   -3.5580    0.4030    0.0000 C   0  0  0  0  0  0  0  0  0
   -4.2725   -0.0095    0.0000 C   0  0  0  0  0  0  0  0  0
   -4.9869    0.4030    0.0000 C   0  0  0  0  0  0  0  0  0
   -4.9869    1.2280    0.0000 C   0  0  0  0  0  0  0  0  0
   -4.2725    1.6405    0.0000 C   0  0  0  0  0  0  0  0  0
  1  2  1  0  0  0  0
  1 11  1  0  0  0  0
  2  3  1  0  0  0  0
  3  4  1  0  0  0  0
  4  5  1  0  0  0  0
  5  6  1  0  0  0  0
  5 10  1  0  0  0  0
  6  7  1  0  0  0  0
  7  8  1  0  0  0  0
  8  9  1  0  0  0  0
  9 10  1  0  0  0  0
 11 12  4  0  0  0  0
 11 16  4  0  0  0  0
 12 13  4  0  0  0  0
 13 14  4  0  0  0  0
 14 15  4  0  0  0  0
 14 17  1  0  0  0  0
 15 16  4  0  0  0  0
 17 18  1  0  0  0  0
 18 19  1  0  0  0  0
 18 23  1  0  0  0  0
 19 20  1  0  0  0  0
 20 21  1  0  0  0  0
 21 22  1  0  0  0  0
 22 23  1  0  0  0  0
M  END
>  <Name_Molregno>
212531

>  <HISTAMINE H3>
9.21

$$$$
212903
  Marvin  02231216192D 0   1.00000     0.00000     0

 19 21  0  0  0  0  0  0  0  0999 V2000
    6.7813   -1.7154    0.0000 Br  0  0  0  0  0  0  0  0  0
    6.0668   -1.3029    0.0000 C   0  0  0  0  0  0  0  0  0
    5.3523   -1.7154    0.0000 C   0  0  0  0  0  0  0  0  0
    4.6379   -1.3029    0.0000 C   0  0  0  0  0  0  0  0  0
    3.8532   -1.5579    0.0000 C   0  0  0  0  0  0  0  0  0
    3.3683   -0.8904    0.0000 C   0  0  0  0  0  0  0  0  0
    3.8532   -0.2230    0.0000 N   0  0  0  0  0  0  0  0  0
    4.6379   -0.4779    0.0000 C   0  0  0  0  0  0  0  0  0
    5.3523   -0.0654    0.0000 C   0  0  0  0  0  0  0  0  0
    6.0668   -0.4779    0.0000 C   0  0  0  0  0  0  0  0  0
    2.5433   -0.8904    0.0000 C   0  0  0  0  0  0  0  0  0
    2.1308   -1.6049    0.0000 O   0  0  0  0  0  0  0  0  0
    2.1308   -0.1760    0.0000 N   0  0  0  0  0  0  0  0  0
    1.3058   -0.1760    0.0000 C   0  0  0  0  0  0  0  0  0
    0.8933    0.5385    0.0000 C   0  0  0  0  0  0  0  0  0
    1.3058    1.2530    0.0000 N   0  0  0  0  0  0  0  0  0
    2.1308    1.2530    0.0000 C   0  0  0  0  0  0  0  0  0
    2.5433    0.5385    0.0000 C   0  0  0  0  0  0  0  0  0
    0.8933    1.9674    0.0000 C   0  0  0  0  0  0  0  0  0
  1  2  1  0  0  0  0
  2  3  4  0  0  0  0
  2 10  4  0  0  0  0
  3  4  4  0  0  0  0
  4  5  4  0  0  0  0
  4  8  4  0  0  0  0
  5  6  4  0  0  0  0
  6  7  4  0  0  0  0
  6 11  1  0  0  0  0
  7  8  4  0  0  0  0
  8  9  4  0  0  0  0
  9 10  4  0  0  0  0
 11 12  2  0  0  0  0
 11 13  1  0  0  0  0
 13 14  1  0  0  0  0
 13 18  1  0  0  0  0
 14 15  1  0  0  0  0
 15 16  1  0  0  0  0
 16 17  1  0  0  0  0
 16 19  1  0  0  0  0
 17 18  1  0  0  0  0
M  STY  1   1 DAT
M  SAL   1  1   7
M  SDT   1 MRV_IMPLICIT_H                                        
M  SDD   1     0.0000    0.0000    DR    ALL  0       0  
M  SED   1 IMPL_H1
M  END
>  <Name_Molregno>
212903

>  <HISTAMINE H3>
5.5

>  <HISTAMINE H4>
7.8

$$$$
252672
  Marvin  02231216192D 0   1.00000     0.00000     0

 12 13  0  0  0  0  0  0  0  0999 V2000
   -1.4031   -1.1639    0.0000 N   0  0  0  0  0  0  0  0  0
   -1.6580   -0.3793    0.0000 C   0  0  0  0  0  0  0  0  0
   -0.9906    0.1057    0.0000 C   0  0  0  0  0  0  0  0  0
   -0.3231   -0.3793    0.0000 N   0  0  0  0  0  0  0  0  0
   -0.5781   -1.1639    0.0000 C   0  0  0  0  0  0  0  0  0
   -0.9906    0.9307    0.0000 C   0  0  0  0  0  0  0  0  0
   -1.7050    1.3432    0.0000 C   0  0  0  0  0  0  0  0  0
   -2.4195    0.9307    0.0000 C   0  0  0  0  0  0  0  0  0
   -3.1340    1.3432    0.0000 C   0  0  0  0  0  0  0  0  0
   -3.1340    2.1682    0.0000 N   0  0  0  0  0  0  0  0  0
   -2.4195    2.5807    0.0000 C   0  0  0  0  0  0  0  0  0
   -1.7050    2.1682    0.0000 C   0  0  0  0  0  0  0  0  0
  1  2  4  0  0  0  0
  1  5  4  0  0  0  0
  2  3  4  0  0  0  0
  3  4  4  0  0  0  0
  3  6  1  0  0  0  0
  4  5  4  0  0  0  0
  6  7  2  0  0  0  0
  7  8  1  0  0  0  0
  7 12  1  0  0  0  0
  8  9  1  0  0  0  0
  9 10  1  0  0  0  0
 10 11  1  0  0  0  0
 11 12  1  0  0  0  0
M  STY  1   1 DAT
M  SAL   1  1   1
M  SDT   1 MRV_IMPLICIT_H                                        
M  SDD   1     0.0000    0.0000    DR    ALL  0       0  
M  SED   1 IMPL_H1
M  END
>  <Name_Molregno>
252672

>  <HISTAMINE H3>
8.2

$$$$
267366
  Marvin  02231216192D 0   1.00000     0.00000     0

 25 28  0  0  1  0  0  0  0  0999 V2000
    0.3024   -0.6009    0.0000 O   0  0  0  0  0  0  0  0  0
    1.0871   -0.3460    0.0000 C   0  0  0  0  0  0  0  0  0
    1.0871    0.4790    0.0000 C   0  0  0  0  0  0  0  0  0
    1.8015    0.8915    0.0000 C   0  0  0  0  0  0  0  0  0
    2.5160    0.4790    0.0000 C   0  0  0  0  0  0  0  0  0
    2.5160   -0.3460    0.0000 C   0  0  0  0  0  0  0  0  0
    1.8015   -0.7585    0.0000 C   0  0  0  0  0  0  0  0  0
    3.2305    0.8915    0.0000 C   0  0  0  0  0  0  0  0  0
    3.2305    1.7165    0.0000 C   0  0  0  0  0  0  0  0  0
    3.9449    2.1290    0.0000 C   0  0  0  0  0  0  0  0  0
    4.6594    1.7165    0.0000 C   0  0  0  0  0  0  0  0  0
    4.6594    0.8915    0.0000 C   0  0  0  0  0  0  0  0  0
    3.9449    0.4790    0.0000 C   0  0  0  0  0  0  0  0  0
    5.3739    2.1290    0.0000 C   0  0  0  0  0  0  0  0  0
    6.0884    2.5415    0.0000 N   0  0  0  0  0  0  0  0  0
    0.3024    0.7340    0.0000 C   0  0  0  0  0  0  0  0  0
   -0.1825    0.0665    0.0000 C   0  0  0  0  0  0  0  0  0
   -1.0075    0.0665    0.0000 C   0  0  0  0  0  0  0  0  0
   -1.4200   -0.6479    0.0000 C   0  0  0  0  0  0  0  0  0
   -2.2450   -0.6479    0.0000 N   0  0  0  0  0  0  0  0  0
   -2.7299   -1.3154    0.0000 C   0  0  0  0  0  0  0  0  0
   -3.5145   -1.0604    0.0000 C   0  0  0  0  0  0  0  0  0
   -3.5145   -0.2354    0.0000 C   0  0  0  0  0  0  0  0  0
   -2.7299    0.0195    0.0000 C   0  0  0  0  0  0  0  0  0
   -2.4750    0.8041    0.0000 C   0  0  0  0  0  0  0  0  0
  1  2  4  0  0  0  0
  1 17  4  0  0  0  0
  2  3  4  0  0  0  0
  2  7  4  0  0  0  0
  3  4  4  0  0  0  0
  3 16  4  0  0  0  0
  4  5  4  0  0  0  0
  5  6  4  0  0  0  0
  5  8  1  0  0  0  0
  6  7  4  0  0  0  0
  8  9  4  0  0  0  0
  8 13  4  0  0  0  0
  9 10  4  0  0  0  0
 10 11  4  0  0  0  0
 11 12  4  0  0  0  0
 11 14  1  0  0  0  0
 12 13  4  0  0  0  0
 14 15  3  0  0  0  0
 16 17  4  0  0  0  0
 17 18  1  0  0  0  0
 18 19  1  0  0  0  0
 19 20  1  0  0  0  0
 20 21  1  0  0  0  0
 20 24  1  0  0  0  0
 21 22  1  0  0  0  0
 22 23  1  0  0  0  0
 23 24  1  0  0  0  0
 24 25  1  0  0  0  0
M  END
>  <Name_Molregno>
267366

>  <HISTAMINE H3>
9.19

$$$$
286180
  Marvin  02231216192D 0   1.00000     0.00000     0

 16 17  0  0  1  0  0  0  0  0999 V2000
   -1.0042    2.0438    0.0000 N   0  0  0  0  0  0  0  0  0
   -0.7492    1.2592    0.0000 C   0  0  0  0  0  0  0  0  0
   -1.4167    0.7742    0.0000 C   0  0  0  0  0  0  0  0  0
   -2.0841    1.2592    0.0000 N   0  0  0  0  0  0  0  0  0
   -1.8292    2.0438    0.0000 C   0  0  0  0  0  0  0  0  0
   -1.4167   -0.0508    0.0000 C   0  0  0  0  0  0  0  0  0
   -1.0042   -0.7652    0.0000 C   0  0  0  0  0  0  0  0  0
   -1.8292   -0.7652    0.0000 C   0  0  0  0  0  0  0  0  0
   -2.5436   -1.1777    0.0000 C   0  0  0  0  0  0  0  0  0
   -3.2581   -1.5902    0.0000 C   0  0  0  0  0  0  0  0  0
   -3.9726   -2.0027    0.0000 C   0  0  0  0  0  0  0  0  0
   -4.6870   -1.5902    0.0000 C   0  0  0  0  0  0  0  0  0
   -5.4015   -2.0027    0.0000 C   0  0  0  0  0  0  0  0  0
   -6.1160   -2.4152    0.0000 C   0  0  0  0  0  0  0  0  0
   -5.8140   -1.2883    0.0000 C   0  0  0  0  0  0  0  0  0
   -4.9890   -2.7172    0.0000 C   0  0  0  0  0  0  0  0  0
  1  2  4  0  0  0  0
  1  5  4  0  0  0  0
  2  3  4  0  0  0  0
  3  4  4  0  0  0  0
  3  6  1  0  0  0  0
  4  5  4  0  0  0  0
  6  7  1  0  0  0  0
  6  8  1  0  0  0  0
  7  8  1  0  0  0  0
  8  9  1  0  0  0  0
  9 10  3  0  0  0  0
 10 11  1  0  0  0  0
 11 12  1  0  0  0  0
 12 13  1  0  0  0  0
 13 14  1  0  0  0  0
 13 15  1  0  0  0  0
 13 16  1  0  0  0  0
M  STY  1   1 DAT
M  SAL   1  1   1
M  SDT   1 MRV_IMPLICIT_H                                        
M  SDD   1     0.0000    0.0000    DR    ALL  0       0  
M  SED   1 IMPL_H1
M  END
>  <Name_Molregno>
286180

>  <HISTAMINE H3>
8.58

$$$$
290769
  Marvin  02231216192D 0   1.00000     0.00000     0

 17 18  0  0  0  0  0  0  0  0999 V2000
   -1.3113   -0.3386    0.0000 S   0  0  0  0  0  0  0  0  0
   -1.3113   -1.1636    0.0000 C   0  0  0  0  0  0  0  0  0
   -2.0258   -1.5761    0.0000 C   0  0  0  0  0  0  0  0  0
   -2.0258   -2.4011    0.0000 C   0  0  0  0  0  0  0  0  0
   -1.3584   -2.8860    0.0000 N   0  0  0  0  0  0  0  0  0
   -1.6133   -3.6706    0.0000 C   0  0  0  0  0  0  0  0  0
   -2.4383   -3.6706    0.0000 N   0  0  0  0  0  0  0  0  0
   -2.6932   -2.8860    0.0000 C   0  0  0  0  0  0  0  0  0
   -0.5969    0.0739    0.0000 C   0  0  0  0  0  0  0  0  0
   -0.5969    0.8989    0.0000 C   0  0  0  0  0  0  0  0  0
    0.1176    1.3114    0.0000 C   0  0  0  0  0  0  0  0  0
    0.8321    0.8989    0.0000 C   0  0  0  0  0  0  0  0  0
    0.8321    0.0739    0.0000 C   0  0  0  0  0  0  0  0  0
    0.1176   -0.3386    0.0000 C   0  0  0  0  0  0  0  0  0
    1.5466    1.3114    0.0000 C   0  0  0  0  0  0  0  0  0
    1.5466    2.1364    0.0000 O   0  0  0  0  0  0  0  0  0
    2.2610    0.8989    0.0000 C   0  0  0  0  0  0  0  0  0
  1  2  1  0  0  0  0
  1  9  1  0  0  0  0
  2  3  1  0  0  0  0
  3  4  1  0  0  0  0
  4  5  4  0  0  0  0
  4  8  4  0  0  0  0
  5  6  4  0  0  0  0
  6  7  4  0  0  0  0
  7  8  4  0  0  0  0
  9 10  4  0  0  0  0
  9 14  4  0  0  0  0
 10 11  4  0  0  0  0
 11 12  4  0  0  0  0
 12 13  4  0  0  0  0
 12 15  1  0  0  0  0
 13 14  4  0  0  0  0
 15 16  2  0  0  0  0
 15 17  1  0  0  0  0
M  STY  1   1 DAT
M  SAL   1  1   7
M  SDT   1 MRV_IMPLICIT_H                                        
M  SDD   1     0.0000    0.0000    DR    ALL  0       0  
M  SED   1 IMPL_H1
M  END
>  <Name_Molregno>
290769

>  <HISTAMINE H3>
8.96

$$$$
290923
  Marvin  02231216192D 0   1.00000     0.00000     0

 18 19  0  0  0  0  0  0  0  0999 V2000
   -0.1315   -1.0627    0.0000 S   0  0  0  0  0  0  0  0  0
    0.5830   -0.6502    0.0000 C   0  0  0  0  0  0  0  0  0
    1.2974   -1.0627    0.0000 C   0  0  0  0  0  0  0  0  0
    2.0119   -0.6502    0.0000 C   0  0  0  0  0  0  0  0  0
    2.7264   -1.0627    0.0000 C   0  0  0  0  0  0  0  0  0
    3.4801   -0.7272    0.0000 N   0  0  0  0  0  0  0  0  0
    4.0321   -1.3403    0.0000 C   0  0  0  0  0  0  0  0  0
    3.6196   -2.0547    0.0000 N   0  0  0  0  0  0  0  0  0
    2.8126   -1.8832    0.0000 C   0  0  0  0  0  0  0  0  0
   -0.8460   -0.6502    0.0000 C   0  0  0  0  0  0  0  0  0
   -1.5604   -1.0627    0.0000 C   0  0  0  0  0  0  0  0  0
   -2.2749   -0.6502    0.0000 C   0  0  0  0  0  0  0  0  0
   -2.2749    0.1748    0.0000 C   0  0  0  0  0  0  0  0  0
   -1.5604    0.5873    0.0000 C   0  0  0  0  0  0  0  0  0
   -0.8460    0.1748    0.0000 C   0  0  0  0  0  0  0  0  0
   -2.9894    0.5873    0.0000 C   0  0  0  0  0  0  0  0  0
   -3.7038    0.1748    0.0000 O   0  0  0  0  0  0  0  0  0
   -2.9894    1.4123    0.0000 C   0  0  0  0  0  0  0  0  0
  1  2  1  0  0  0  0
  1 10  1  0  0  0  0
  2  3  1  0  0  0  0
  3  4  1  0  0  0  0
  4  5  1  0  0  0  0
  5  6  4  0  0  0  0
  5  9  4  0  0  0  0
  6  7  4  0  0  0  0
  7  8  4  0  0  0  0
  8  9  4  0  0  0  0
 10 11  4  0  0  0  0
 10 15  4  0  0  0  0
 11 12  4  0  0  0  0
 12 13  4  0  0  0  0
 13 14  4  0  0  0  0
 13 16  1  0  0  0  0
 14 15  4  0  0  0  0
 16 17  2  0  0  0  0
 16 18  1  0  0  0  0
M  STY  1   1 DAT
M  SAL   1  1   8
M  SDT   1 MRV_IMPLICIT_H                                        
M  SDD   1     0.0000    0.0000    DR    ALL  0       0  
M  SED   1 IMPL_H1
M  END
>  <Name_Molregno>
290923

>  <HISTAMINE H3>
7.74

$$$$
291154
  Marvin  02231216192D 0   1.00000     0.00000     0

 17 18  0  0  0  0  0  0  0  0999 V2000
   -0.0085   -0.8006    0.0000 O   0  0  0  0  0  0  0  0  0
    0.7060   -0.3881    0.0000 C   0  0  0  0  0  0  0  0  0
    1.4204   -0.8006    0.0000 C   0  0  0  0  0  0  0  0  0
    2.1349   -0.3881    0.0000 C   0  0  0  0  0  0  0  0  0
    2.8494   -0.8006    0.0000 C   0  0  0  0  0  0  0  0  0
    3.6031   -0.4650    0.0000 N   0  0  0  0  0  0  0  0  0
    4.1551   -1.0781    0.0000 C   0  0  0  0  0  0  0  0  0
    3.7426   -1.7926    0.0000 N   0  0  0  0  0  0  0  0  0
    2.9356   -1.6211    0.0000 C   0  0  0  0  0  0  0  0  0
   -0.7230   -0.3881    0.0000 C   0  0  0  0  0  0  0  0  0
   -1.4374   -0.8006    0.0000 C   0  0  0  0  0  0  0  0  0
   -2.1519   -0.3881    0.0000 C   0  0  0  0  0  0  0  0  0
   -2.1519    0.4369    0.0000 C   0  0  0  0  0  0  0  0  0
   -2.8664    0.8494    0.0000 O   0  0  0  0  0  0  0  0  0
   -3.5809    0.4369    0.0000 C   0  0  0  0  0  0  0  0  0
   -1.4374    0.8494    0.0000 C   0  0  0  0  0  0  0  0  0
   -0.7230    0.4369    0.0000 C   0  0  0  0  0  0  0  0  0
  1  2  1  0  0  0  0
  1 10  1  0  0  0  0
  2  3  1  0  0  0  0
  3  4  1  0  0  0  0
  4  5  1  0  0  0  0
  5  6  4  0  0  0  0
  5  9  4  0  0  0  0
  6  7  4  0  0  0  0
  7  8  4  0  0  0  0
  8  9  4  0  0  0  0
 10 11  4  0  0  0  0
 10 17  4  0  0  0  0
 11 12  4  0  0  0  0
 12 13  4  0  0  0  0
 13 14  1  0  0  0  0
 13 16  4  0  0  0  0
 14 15  1  0  0  0  0
 16 17  4  0  0  0  0
M  STY  1   1 DAT
M  SAL   1  1   8
M  SDT   1 MRV_IMPLICIT_H                                        
M  SDD   1     0.0000    0.0000    DR    ALL  0       0  
M  SED   1 IMPL_H1
M  END
>  <Name_Molregno>
291154

>  <HISTAMINE H3>
7.33

$$$$
293462
  Marvin  02231216192D 0   1.00000     0.00000     0

 19 20  0  0  0  0  0  0  0  0999 V2000
   -0.0142   -0.0202    0.0000 O   0  0  0  0  0  0  0  0  0
    0.7002    0.3923    0.0000 C   0  0  0  0  0  0  0  0  0
    1.4147   -0.0202    0.0000 C   0  0  0  0  0  0  0  0  0
    2.1292    0.3923    0.0000 C   0  0  0  0  0  0  0  0  0
    2.8436   -0.0202    0.0000 C   0  0  0  0  0  0  0  0  0
    3.5581    0.3923    0.0000 C   0  0  0  0  0  0  0  0  0
    3.6443    1.2128    0.0000 N   0  0  0  0  0  0  0  0  0
    4.4513    1.3843    0.0000 C   0  0  0  0  0  0  0  0  0
    4.8638    0.6698    0.0000 N   0  0  0  0  0  0  0  0  0
    4.3118    0.0568    0.0000 C   0  0  0  0  0  0  0  0  0
   -0.7287    0.3923    0.0000 C   0  0  0  0  0  0  0  0  0
   -1.4432   -0.0202    0.0000 C   0  0  0  0  0  0  0  0  0
   -2.1577    0.3923    0.0000 C   0  0  0  0  0  0  0  0  0
   -2.1577    1.2173    0.0000 C   0  0  0  0  0  0  0  0  0
   -1.4432    1.6298    0.0000 C   0  0  0  0  0  0  0  0  0
   -0.7287    1.2173    0.0000 C   0  0  0  0  0  0  0  0  0
   -2.8721    1.6298    0.0000 C   0  0  0  0  0  0  0  0  0
   -3.5866    1.2173    0.0000 O   0  0  0  0  0  0  0  0  0
   -2.8721    2.4548    0.0000 C   0  0  0  0  0  0  0  0  0
  1  2  1  0  0  0  0
  1 11  1  0  0  0  0
  2  3  1  0  0  0  0
  3  4  1  0  0  0  0
  4  5  1  0  0  0  0
  5  6  1  0  0  0  0
  6  7  4  0  0  0  0
  6 10  4  0  0  0  0
  7  8  4  0  0  0  0
  8  9  4  0  0  0  0
  9 10  4  0  0  0  0
 11 12  4  0  0  0  0
 11 16  4  0  0  0  0
 12 13  4  0  0  0  0
 13 14  4  0  0  0  0
 14 15  4  0  0  0  0
 14 17  1  0  0  0  0
 15 16  4  0  0  0  0
 17 18  2  0  0  0  0
 17 19  1  0  0  0  0
M  STY  1   1 DAT
M  SAL   1  1   9
M  SDT   1 MRV_IMPLICIT_H                                        
M  SDD   1     0.0000    0.0000    DR    ALL  0       0  
M  SED   1 IMPL_H1
M  END
>  <Name_Molregno>
293462

>  <HISTAMINE H3>
7.72

$$$$
296877
  Marvin  02231216192D 0   1.00000     0.00000     0

 21 23  0  0  0  0  0  0  0  0999 V2000
   -3.8874   -4.9388    0.0000 N   0  0  0  0  0  0  0  0  0
   -4.1424   -4.1542    0.0000 C   0  0  0  0  0  0  0  0  0
   -3.4749   -3.6693    0.0000 C   0  0  0  0  0  0  0  0  0
   -2.8075   -4.1542    0.0000 N   0  0  0  0  0  0  0  0  0
   -3.0624   -4.9388    0.0000 C   0  0  0  0  0  0  0  0  0
   -3.4749   -2.8443    0.0000 C   0  0  0  0  0  0  0  0  0
   -4.1894   -2.4318    0.0000 C   0  0  0  0  0  0  0  0  0
   -4.1894   -1.6068    0.0000 C   0  0  0  0  0  0  0  0  0
   -4.9039   -1.1943    0.0000 C   0  0  0  0  0  0  0  0  0
   -4.9039   -0.3693    0.0000 C   0  0  0  0  0  0  0  0  0
   -4.1894    0.0432    0.0000 N   0  0  0  0  0  0  0  0  0
   -3.4749   -0.3693    0.0000 C   0  0  0  0  0  0  0  0  0
   -3.4749   -1.1943    0.0000 C   0  0  0  0  0  0  0  0  0
   -4.1894    0.8682    0.0000 C   0  0  0  0  0  0  0  0  0
   -4.9039    1.2807    0.0000 C   0  0  0  0  0  0  0  0  0
   -4.9039    2.1057    0.0000 C   0  0  0  0  0  0  0  0  0
   -5.6183    2.5182    0.0000 C   0  0  0  0  0  0  0  0  0
   -5.6183    3.3432    0.0000 C   0  0  0  0  0  0  0  0  0
   -4.9039    3.7557    0.0000 C   0  0  0  0  0  0  0  0  0
   -4.1894    3.3432    0.0000 C   0  0  0  0  0  0  0  0  0
   -4.1894    2.5182    0.0000 C   0  0  0  0  0  0  0  0  0
  1  2  4  0  0  0  0
  1  5  4  0  0  0  0
  2  3  4  0  0  0  0
  3  4  4  0  0  0  0
  3  6  1  0  0  0  0
  4  5  4  0  0  0  0
  6  7  1  0  0  0  0
  7  8  1  0  0  0  0
  8  9  1  0  0  0  0
  8 13  1  0  0  0  0
  9 10  1  0  0  0  0
 10 11  1  0  0  0  0
 11 12  1  0  0  0  0
 11 14  1  0  0  0  0
 12 13  1  0  0  0  0
 14 15  1  0  0  0  0
 15 16  1  0  0  0  0
 16 17  4  0  0  0  0
 16 21  4  0  0  0  0
 17 18  4  0  0  0  0
 18 19  4  0  0  0  0
 19 20  4  0  0  0  0
 20 21  4  0  0  0  0
M  STY  1   1 DAT
M  SAL   1  1   1
M  SDT   1 MRV_IMPLICIT_H                                        
M  SDD   1     0.0000    0.0000    DR    ALL  0       0  
M  SED   1 IMPL_H1
M  END
>  <Name_Molregno>
296877

>  <HISTAMINE H3>
7.4

$$$$
296885
  Marvin  02231216192D 0   1.00000     0.00000     0

 20 22  0  0  0  0  0  0  0  0999 V2000
   -5.7165   -4.1223    0.0000 N   0  0  0  0  0  0  0  0  0
   -5.9715   -3.3377    0.0000 C   0  0  0  0  0  0  0  0  0
   -5.3040   -2.8528    0.0000 C   0  0  0  0  0  0  0  0  0
   -4.6366   -3.3377    0.0000 N   0  0  0  0  0  0  0  0  0
   -4.8915   -4.1223    0.0000 C   0  0  0  0  0  0  0  0  0
   -5.3040   -2.0278    0.0000 C   0  0  0  0  0  0  0  0  0
   -4.5896   -1.6153    0.0000 C   0  0  0  0  0  0  0  0  0
   -4.5896   -0.7903    0.0000 C   0  0  0  0  0  0  0  0  0
   -3.8751   -0.3778    0.0000 C   0  0  0  0  0  0  0  0  0
   -3.1606   -0.7903    0.0000 N   0  0  0  0  0  0  0  0  0
   -3.1606   -1.6153    0.0000 C   0  0  0  0  0  0  0  0  0
   -3.8751   -2.0278    0.0000 C   0  0  0  0  0  0  0  0  0
   -2.4461   -0.3778    0.0000 C   0  0  0  0  0  0  0  0  0
   -2.4461    0.4472    0.0000 C   0  0  0  0  0  0  0  0  0
   -1.7317    0.8597    0.0000 C   0  0  0  0  0  0  0  0  0
   -1.7317    1.6847    0.0000 C   0  0  0  0  0  0  0  0  0
   -1.0172    2.0972    0.0000 C   0  0  0  0  0  0  0  0  0
   -0.3027    1.6847    0.0000 C   0  0  0  0  0  0  0  0  0
   -0.3027    0.8597    0.0000 C   0  0  0  0  0  0  0  0  0
   -1.0172    0.4472    0.0000 C   0  0  0  0  0  0  0  0  0
  1  2  4  0  0  0  0
  1  5  4  0  0  0  0
  2  3  4  0  0  0  0
  3  4  4  0  0  0  0
  3  6  1  0  0  0  0
  4  5  4  0  0  0  0
  6  7  2  0  0  0  0
  7  8  1  0  0  0  0
  7 12  1  0  0  0  0
  8  9  1  0  0  0  0
  9 10  1  0  0  0  0
 10 11  1  0  0  0  0
 10 13  1  0  0  0  0
 11 12  1  0  0  0  0
 13 14  1  0  0  0  0
 14 15  1  0  0  0  0
 15 16  4  0  0  0  0
 15 20  4  0  0  0  0
 16 17  4  0  0  0  0
 17 18  4  0  0  0  0
 18 19  4  0  0  0  0
 19 20  4  0  0  0  0
M  STY  1   1 DAT
M  SAL   1  1   1
M  SDT   1 MRV_IMPLICIT_H                                        
M  SDD   1     0.0000    0.0000    DR    ALL  0       0  
M  SED   1 IMPL_H1
M  END
>  <Name_Molregno>
296885

>  <HISTAMINE H3>
7.2

$$$$
296902
  Marvin  02231216192D 0   1.00000     0.00000     0

 21 23  0  0  0  0  0  0  0  0999 V2000
   -6.6862   -3.0823    0.0000 N   0  0  0  0  0  0  0  0  0
   -6.9412   -2.2977    0.0000 C   0  0  0  0  0  0  0  0  0
   -6.2737   -1.8128    0.0000 C   0  0  0  0  0  0  0  0  0
   -5.6063   -2.2977    0.0000 N   0  0  0  0  0  0  0  0  0
   -5.8612   -3.0823    0.0000 C   0  0  0  0  0  0  0  0  0
   -6.2737   -0.9878    0.0000 C   0  0  0  0  0  0  0  0  0
   -5.5593   -0.5753    0.0000 C   0  0  0  0  0  0  0  0  0
   -5.5593    0.2497    0.0000 C   0  0  0  0  0  0  0  0  0
   -4.8448    0.6622    0.0000 C   0  0  0  0  0  0  0  0  0
   -4.1303    0.2497    0.0000 N   0  0  0  0  0  0  0  0  0
   -4.1303   -0.5753    0.0000 C   0  0  0  0  0  0  0  0  0
   -4.8448   -0.9878    0.0000 C   0  0  0  0  0  0  0  0  0
   -3.4159    0.6622    0.0000 C   0  0  0  0  0  0  0  0  0
   -2.7014    0.2497    0.0000 C   0  0  0  0  0  0  0  0  0
   -1.9869    0.6622    0.0000 C   0  0  0  0  0  0  0  0  0
   -1.2725    0.2497    0.0000 C   0  0  0  0  0  0  0  0  0
   -0.5580    0.6622    0.0000 C   0  0  0  0  0  0  0  0  0
    0.1565    0.2497    0.0000 C   0  0  0  0  0  0  0  0  0
    0.1565   -0.5753    0.0000 C   0  0  0  0  0  0  0  0  0
   -0.5580   -0.9878    0.0000 C   0  0  0  0  0  0  0  0  0
   -1.2725   -0.5753    0.0000 C   0  0  0  0  0  0  0  0  0
  1  2  4  0  0  0  0
  1  5  4  0  0  0  0
  2  3  4  0  0  0  0
  3  4  4  0  0  0  0
  3  6  1  0  0  0  0
  4  5  4  0  0  0  0
  6  7  1  0  0  0  0
  7  8  1  0  0  0  0
  7 12  1  0  0  0  0
  8  9  1  0  0  0  0
  9 10  1  0  0  0  0
 10 11  1  0  0  0  0
 10 13  1  0  0  0  0
 11 12  1  0  0  0  0
 13 14  1  0  0  0  0
 14 15  1  0  0  0  0
 15 16  1  0  0  0  0
 16 17  4  0  0  0  0
 16 21  4  0  0  0  0
 17 18  4  0  0  0  0
 18 19  4  0  0  0  0
 19 20  4  0  0  0  0
 20 21  4  0  0  0  0
M  STY  1   1 DAT
M  SAL   1  1   1
M  SDT   1 MRV_IMPLICIT_H                                        
M  SDD   1     0.0000    0.0000    DR    ALL  0       0  
M  SED   1 IMPL_H1
M  END
>  <Name_Molregno>
296902

>  <HISTAMINE H3>
7.4

$$$$
296957
  Marvin  02231216192D 0   1.00000     0.00000     0

 19 21  0  0  0  0  0  0  0  0999 V2000
   -5.4762   -1.6062    0.0000 N   0  0  0  0  0  0  0  0  0
   -5.7311   -0.8216    0.0000 C   0  0  0  0  0  0  0  0  0
   -5.0637   -0.3367    0.0000 C   0  0  0  0  0  0  0  0  0
   -4.3962   -0.8216    0.0000 N   0  0  0  0  0  0  0  0  0
   -4.6512   -1.6062    0.0000 C   0  0  0  0  0  0  0  0  0
   -5.0637    0.4883    0.0000 C   0  0  0  0  0  0  0  0  0
   -4.3492    0.9008    0.0000 C   0  0  0  0  0  0  0  0  0
   -4.3492    1.7258    0.0000 C   0  0  0  0  0  0  0  0  0
   -3.6347    2.1383    0.0000 C   0  0  0  0  0  0  0  0  0
   -2.9203    1.7258    0.0000 N   0  0  0  0  0  0  0  0  0
   -2.9203    0.9008    0.0000 C   0  0  0  0  0  0  0  0  0
   -3.6347    0.4883    0.0000 C   0  0  0  0  0  0  0  0  0
   -2.2058    2.1383    0.0000 C   0  0  0  0  0  0  0  0  0
   -1.4913    1.7258    0.0000 C   0  0  0  0  0  0  0  0  0
   -0.7768    2.1383    0.0000 C   0  0  0  0  0  0  0  0  0
   -0.0624    1.7258    0.0000 C   0  0  0  0  0  0  0  0  0
   -0.0624    0.9008    0.0000 C   0  0  0  0  0  0  0  0  0
   -0.7768    0.4883    0.0000 C   0  0  0  0  0  0  0  0  0
   -1.4913    0.9008    0.0000 C   0  0  0  0  0  0  0  0  0
  1  2  4  0  0  0  0
  1  5  4  0  0  0  0
  2  3  4  0  0  0  0
  3  4  4  0  0  0  0
  3  6  1  0  0  0  0
  4  5  4  0  0  0  0
  6  7  1  0  0  0  0
  7  8  1  0  0  0  0
  7 12  1  0  0  0  0
  8  9  1  0  0  0  0
  9 10  1  0  0  0  0
 10 11  1  0  0  0  0
 10 13  1  0  0  0  0
 11 12  1  0  0  0  0
 13 14  1  0  0  0  0
 14 15  4  0  0  0  0
 14 19  4  0  0  0  0
 15 16  4  0  0  0  0
 16 17  4  0  0  0  0
 17 18  4  0  0  0  0
 18 19  4  0  0  0  0
M  STY  1   1 DAT
M  SAL   1  1   1
M  SDT   1 MRV_IMPLICIT_H                                        
M  SDD   1     0.0000    0.0000    DR    ALL  0       0  
M  SED   1 IMPL_H1
M  END
>  <Name_Molregno>
296957

>  <HISTAMINE H3>
7.3

$$$$
296962
  Marvin  02231216192D 0   1.00000     0.00000     0

 20 22  0  0  0  0  0  0  0  0999 V2000
   -4.0985   -4.6466    0.0000 N   0  0  0  0  0  0  0  0  0
   -4.3534   -3.8620    0.0000 C   0  0  0  0  0  0  0  0  0
   -3.6860   -3.3771    0.0000 C   0  0  0  0  0  0  0  0  0
   -3.0185   -3.8620    0.0000 N   0  0  0  0  0  0  0  0  0
   -3.2735   -4.6466    0.0000 C   0  0  0  0  0  0  0  0  0
   -3.6860   -2.5521    0.0000 C   0  0  0  0  0  0  0  0  0
   -4.4004   -2.1396    0.0000 C   0  0  0  0  0  0  0  0  0
   -4.4004   -1.3146    0.0000 C   0  0  0  0  0  0  0  0  0
   -5.1149   -0.9021    0.0000 C   0  0  0  0  0  0  0  0  0
   -5.1149   -0.0771    0.0000 C   0  0  0  0  0  0  0  0  0
   -4.4004    0.3354    0.0000 N   0  0  0  0  0  0  0  0  0
   -3.6860   -0.0771    0.0000 C   0  0  0  0  0  0  0  0  0
   -3.6860   -0.9021    0.0000 C   0  0  0  0  0  0  0  0  0
   -4.4004    1.1604    0.0000 C   0  0  0  0  0  0  0  0  0
   -3.6860    1.5729    0.0000 C   0  0  0  0  0  0  0  0  0
   -3.6860    2.3979    0.0000 C   0  0  0  0  0  0  0  0  0
   -2.9715    2.8104    0.0000 C   0  0  0  0  0  0  0  0  0
   -2.2570    2.3979    0.0000 C   0  0  0  0  0  0  0  0  0
   -2.2570    1.5729    0.0000 C   0  0  0  0  0  0  0  0  0
   -2.9715    1.1604    0.0000 C   0  0  0  0  0  0  0  0  0
  1  2  4  0  0  0  0
  1  5  4  0  0  0  0
  2  3  4  0  0  0  0
  3  4  4  0  0  0  0
  3  6  1  0  0  0  0
  4  5  4  0  0  0  0
  6  7  1  0  0  0  0
  7  8  1  0  0  0  0
  8  9  1  0  0  0  0
  8 13  1  0  0  0  0
  9 10  1  0  0  0  0
 10 11  1  0  0  0  0
 11 12  1  0  0  0  0
 11 14  1  0  0  0  0
 12 13  1  0  0  0  0
 14 15  1  0  0  0  0
 15 16  4  0  0  0  0
 15 20  4  0  0  0  0
 16 17  4  0  0  0  0
 17 18  4  0  0  0  0
 18 19  4  0  0  0  0
 19 20  4  0  0  0  0
M  STY  1   1 DAT
M  SAL   1  1   1
M  SDT   1 MRV_IMPLICIT_H                                        
M  SDD   1     0.0000    0.0000    DR    ALL  0       0  
M  SED   1 IMPL_H1
M  END
>  <Name_Molregno>
296962

>  <HISTAMINE H3>
7.1

$$$$
296976
  Marvin  02231216192D 0   1.00000     0.00000     0

 19 21  0  0  0  0  0  0  0  0999 V2000
   -2.0166   -2.3878    0.0000 N   0  0  0  0  0  0  0  0  0
   -2.2716   -1.6032    0.0000 C   0  0  0  0  0  0  0  0  0
   -1.6041   -1.1183    0.0000 C   0  0  0  0  0  0  0  0  0
   -0.9367   -1.6032    0.0000 N   0  0  0  0  0  0  0  0  0
   -1.1916   -2.3878    0.0000 C   0  0  0  0  0  0  0  0  0
   -1.6041   -0.2933    0.0000 C   0  0  0  0  0  0  0  0  0
   -2.3186    0.1192    0.0000 C   0  0  0  0  0  0  0  0  0
   -3.0331   -0.2933    0.0000 C   0  0  0  0  0  0  0  0  0
   -3.7475    0.1192    0.0000 C   0  0  0  0  0  0  0  0  0
   -3.7475    0.9442    0.0000 N   0  0  0  0  0  0  0  0  0
   -3.0331    1.3567    0.0000 C   0  0  0  0  0  0  0  0  0
   -2.3186    0.9442    0.0000 C   0  0  0  0  0  0  0  0  0
   -4.4620    1.3567    0.0000 C   0  0  0  0  0  0  0  0  0
   -4.4620    2.1817    0.0000 C   0  0  0  0  0  0  0  0  0
   -5.1765    2.5942    0.0000 C   0  0  0  0  0  0  0  0  0
   -5.1765    3.4192    0.0000 C   0  0  0  0  0  0  0  0  0
   -4.4620    3.8317    0.0000 C   0  0  0  0  0  0  0  0  0
   -3.7475    3.4192    0.0000 C   0  0  0  0  0  0  0  0  0
   -3.7475    2.5942    0.0000 C   0  0  0  0  0  0  0  0  0
  1  2  4  0  0  0  0
  1  5  4  0  0  0  0
  2  3  4  0  0  0  0
  3  4  4  0  0  0  0
  3  6  1  0  0  0  0
  4  5  4  0  0  0  0
  6  7  2  0  0  0  0
  7  8  1  0  0  0  0
  7 12  1  0  0  0  0
  8  9  1  0  0  0  0
  9 10  1  0  0  0  0
 10 11  1  0  0  0  0
 10 13  1  0  0  0  0
 11 12  1  0  0  0  0
 13 14  1  0  0  0  0
 14 15  4  0  0  0  0
 14 19  4  0  0  0  0
 15 16  4  0  0  0  0
 16 17  4  0  0  0  0
 17 18  4  0  0  0  0
 18 19  4  0  0  0  0
M  STY  1   1 DAT
M  SAL   1  1   1
M  SDT   1 MRV_IMPLICIT_H                                        
M  SDD   1     0.0000    0.0000    DR    ALL  0       0  
M  SED   1 IMPL_H1
M  END
>  <Name_Molregno>
296976

>  <HISTAMINE H3>
6.4

$$$$
296977
  Marvin  02231216192D 0   1.00000     0.00000     0

 20 22  0  0  0  0  0  0  0  0999 V2000
   -5.7165   -4.1223    0.0000 N   0  0  0  0  0  0  0  0  0
   -5.9715   -3.3377    0.0000 C   0  0  0  0  0  0  0  0  0
   -5.3040   -2.8528    0.0000 C   0  0  0  0  0  0  0  0  0
   -4.6366   -3.3377    0.0000 N   0  0  0  0  0  0  0  0  0
   -4.8915   -4.1223    0.0000 C   0  0  0  0  0  0  0  0  0
   -5.3040   -2.0278    0.0000 C   0  0  0  0  0  0  0  0  0
   -4.5896   -1.6153    0.0000 C   0  0  0  0  0  0  0  0  0
   -4.5896   -0.7903    0.0000 C   0  0  0  0  0  0  0  0  0
   -3.8751   -0.3778    0.0000 C   0  0  0  0  0  0  0  0  0
   -3.1606   -0.7903    0.0000 N   0  0  0  0  0  0  0  0  0
   -3.1606   -1.6153    0.0000 C   0  0  0  0  0  0  0  0  0
   -3.8751   -2.0278    0.0000 C   0  0  0  0  0  0  0  0  0
   -2.4461   -0.3778    0.0000 C   0  0  0  0  0  0  0  0  0
   -2.4461    0.4472    0.0000 C   0  0  0  0  0  0  0  0  0
   -1.7317    0.8597    0.0000 C   0  0  0  0  0  0  0  0  0
   -1.7317    1.6847    0.0000 C   0  0  0  0  0  0  0  0  0
   -1.0172    2.0972    0.0000 C   0  0  0  0  0  0  0  0  0
   -0.3027    1.6847    0.0000 C   0  0  0  0  0  0  0  0  0
   -0.3027    0.8597    0.0000 C   0  0  0  0  0  0  0  0  0
   -1.0172    0.4472    0.0000 C   0  0  0  0  0  0  0  0  0
  1  2  4  0  0  0  0
  1  5  4  0  0  0  0
  2  3  4  0  0  0  0
  3  4  4  0  0  0  0
  3  6  1  0  0  0  0
  4  5  4  0  0  0  0
  6  7  1  0  0  0  0
  7  8  1  0  0  0  0
  7 12  1  0  0  0  0
  8  9  1  0  0  0  0
  9 10  1  0  0  0  0
 10 11  1  0  0  0  0
 10 13  1  0  0  0  0
 11 12  1  0  0  0  0
 13 14  1  0  0  0  0
 14 15  1  0  0  0  0
 15 16  4  0  0  0  0
 15 20  4  0  0  0  0
 16 17  4  0  0  0  0
 17 18  4  0  0  0  0
 18 19  4  0  0  0  0
 19 20  4  0  0  0  0
M  STY  1   1 DAT
M  SAL   1  1   1
M  SDT   1 MRV_IMPLICIT_H                                        
M  SDD   1     0.0000    0.0000    DR    ALL  0       0  
M  SED   1 IMPL_H1
M  END
>  <Name_Molregno>
296977

>  <HISTAMINE H3>
8

$$$$
296996
  Marvin  02231216192D 0   1.00000     0.00000     0

 19 21  0  0  0  0  0  0  0  0999 V2000
   -3.6057   -4.1705    0.0000 N   0  0  0  0  0  0  0  0  0
   -3.8606   -3.3859    0.0000 C   0  0  0  0  0  0  0  0  0
   -3.1932   -2.9010    0.0000 C   0  0  0  0  0  0  0  0  0
   -2.5257   -3.3859    0.0000 N   0  0  0  0  0  0  0  0  0
   -2.7807   -4.1705    0.0000 C   0  0  0  0  0  0  0  0  0
   -3.1932   -2.0760    0.0000 C   0  0  0  0  0  0  0  0  0
   -3.9076   -1.6635    0.0000 C   0  0  0  0  0  0  0  0  0
   -3.9076   -0.8385    0.0000 C   0  0  0  0  0  0  0  0  0
   -4.6221   -0.4260    0.0000 C   0  0  0  0  0  0  0  0  0
   -4.6221    0.3990    0.0000 C   0  0  0  0  0  0  0  0  0
   -3.9076    0.8115    0.0000 N   0  0  0  0  0  0  0  0  0
   -3.1932    0.3990    0.0000 C   0  0  0  0  0  0  0  0  0
   -3.1932   -0.4260    0.0000 C   0  0  0  0  0  0  0  0  0
   -3.9076    1.6365    0.0000 C   0  0  0  0  0  0  0  0  0
   -4.6221    2.0490    0.0000 C   0  0  0  0  0  0  0  0  0
   -4.6221    2.8740    0.0000 C   0  0  0  0  0  0  0  0  0
   -3.9076    3.2865    0.0000 C   0  0  0  0  0  0  0  0  0
   -3.1932    2.8740    0.0000 C   0  0  0  0  0  0  0  0  0
   -3.1932    2.0490    0.0000 C   0  0  0  0  0  0  0  0  0
  1  2  4  0  0  0  0
  1  5  4  0  0  0  0
  2  3  4  0  0  0  0
  3  4  4  0  0  0  0
  3  6  1  0  0  0  0
  4  5  4  0  0  0  0
  6  7  1  0  0  0  0
  7  8  1  0  0  0  0
  8  9  1  0  0  0  0
  8 13  1  0  0  0  0
  9 10  1  0  0  0  0
 10 11  1  0  0  0  0
 11 12  1  0  0  0  0
 11 14  1  0  0  0  0
 12 13  1  0  0  0  0
 14 15  1  0  0  0  0
 14 19  1  0  0  0  0
 15 16  1  0  0  0  0
 16 17  1  0  0  0  0
 17 18  1  0  0  0  0
 18 19  1  0  0  0  0
M  STY  1   1 DAT
M  SAL   1  1   1
M  SDT   1 MRV_IMPLICIT_H                                        
M  SDD   1     0.0000    0.0000    DR    ALL  0       0  
M  SED   1 IMPL_H1
M  END
>  <Name_Molregno>
296996

>  <HISTAMINE H3>
6.8

$$$$
297003
  Marvin  02231216192D 0   1.00000     0.00000     0

 18 20  0  0  0  0  0  0  0  0999 V2000
   -4.7380   -3.6345    0.0000 N   0  0  0  0  0  0  0  0  0
   -4.9930   -2.8498    0.0000 C   0  0  0  0  0  0  0  0  0
   -4.3255   -2.3649    0.0000 C   0  0  0  0  0  0  0  0  0
   -3.6581   -2.8498    0.0000 N   0  0  0  0  0  0  0  0  0
   -3.9130   -3.6345    0.0000 C   0  0  0  0  0  0  0  0  0
   -4.3255   -1.5399    0.0000 C   0  0  0  0  0  0  0  0  0
   -3.6111   -1.1274    0.0000 C   0  0  0  0  0  0  0  0  0
   -3.6111   -0.3024    0.0000 C   0  0  0  0  0  0  0  0  0
   -2.8966    0.1101    0.0000 C   0  0  0  0  0  0  0  0  0
   -2.1821   -0.3024    0.0000 N   0  0  0  0  0  0  0  0  0
   -2.1821   -1.1274    0.0000 C   0  0  0  0  0  0  0  0  0
   -2.8966   -1.5399    0.0000 C   0  0  0  0  0  0  0  0  0
   -1.4676    0.1101    0.0000 C   0  0  0  0  0  0  0  0  0
   -1.4676    0.9351    0.0000 C   0  0  0  0  0  0  0  0  0
   -0.7532    1.3476    0.0000 C   0  0  0  0  0  0  0  0  0
   -0.0387    0.9351    0.0000 C   0  0  0  0  0  0  0  0  0
   -0.0387    0.1101    0.0000 C   0  0  0  0  0  0  0  0  0
   -0.7532   -0.3024    0.0000 C   0  0  0  0  0  0  0  0  0
  1  2  4  0  0  0  0
  1  5  4  0  0  0  0
  2  3  4  0  0  0  0
  3  4  4  0  0  0  0
  3  6  1  0  0  0  0
  4  5  4  0  0  0  0
  6  7  2  0  0  0  0
  7  8  1  0  0  0  0
  7 12  1  0  0  0  0
  8  9  1  0  0  0  0
  9 10  1  0  0  0  0
 10 11  1  0  0  0  0
 10 13  1  0  0  0  0
 11 12  1  0  0  0  0
 13 14  1  0  0  0  0
 13 18  1  0  0  0  0
 14 15  1  0  0  0  0
 15 16  1  0  0  0  0
 16 17  1  0  0  0  0
 17 18  1  0  0  0  0
M  STY  1   1 DAT
M  SAL   1  1   1
M  SDT   1 MRV_IMPLICIT_H                                        
M  SDD   1     0.0000    0.0000    DR    ALL  0       0  
M  SED   1 IMPL_H1
M  END
>  <Name_Molregno>
297003

>  <HISTAMINE H3>
7.5

$$$$
297070
  Marvin  02231216192D 0   1.00000     0.00000     0

 14 15  0  0  0  0  0  0  0  0999 V2000
    1.0939   -1.8182    0.0000 N   0  0  0  0  0  0  0  0  0
    0.8390   -1.0335    0.0000 C   0  0  0  0  0  0  0  0  0
    1.5064   -0.5486    0.0000 C   0  0  0  0  0  0  0  0  0
    2.1738   -1.0335    0.0000 N   0  0  0  0  0  0  0  0  0
    1.9189   -1.8182    0.0000 C   0  0  0  0  0  0  0  0  0
    1.5064    0.2764    0.0000 C   0  0  0  0  0  0  0  0  0
    2.2209    0.6889    0.0000 C   0  0  0  0  0  0  0  0  0
    2.2209    1.5139    0.0000 C   0  0  0  0  0  0  0  0  0
    2.9353    1.9264    0.0000 C   0  0  0  0  0  0  0  0  0
    3.6498    1.5139    0.0000 N   0  0  0  0  0  0  0  0  0
    3.6498    0.6889    0.0000 C   0  0  0  0  0  0  0  0  0
    2.9353    0.2764    0.0000 C   0  0  0  0  0  0  0  0  0
    4.3643    1.9264    0.0000 C   0  0  0  0  0  0  0  0  0
    4.3643    2.7514    0.0000 C   0  0  0  0  0  0  0  0  0
  1  2  4  0  0  0  0
  1  5  4  0  0  0  0
  2  3  4  0  0  0  0
  3  4  4  0  0  0  0
  3  6  1  0  0  0  0
  4  5  4  0  0  0  0
  6  7  2  0  0  0  0
  7  8  1  0  0  0  0
  7 12  1  0  0  0  0
  8  9  1  0  0  0  0
  9 10  1  0  0  0  0
 10 11  1  0  0  0  0
 10 13  1  0  0  0  0
 11 12  1  0  0  0  0
 13 14  1  0  0  0  0
M  STY  1   1 DAT
M  SAL   1  1   1
M  SDT   1 MRV_IMPLICIT_H                                        
M  SDD   1     0.0000    0.0000    DR    ALL  0       0  
M  SED   1 IMPL_H1
M  END
>  <Name_Molregno>
297070

>  <HISTAMINE H3>
7.3

$$$$
297089
  Marvin  02231216192D 0   1.00000     0.00000     0

 15 16  0  0  0  0  0  0  0  0999 V2000
   -3.7707   -3.1559    0.0000 N   0  0  0  0  0  0  0  0  0
   -4.0256   -2.3712    0.0000 C   0  0  0  0  0  0  0  0  0
   -3.3582   -1.8863    0.0000 C   0  0  0  0  0  0  0  0  0
   -2.6907   -2.3712    0.0000 N   0  0  0  0  0  0  0  0  0
   -2.9457   -3.1559    0.0000 C   0  0  0  0  0  0  0  0  0
   -3.3582   -1.0613    0.0000 C   0  0  0  0  0  0  0  0  0
   -2.6437   -0.6488    0.0000 C   0  0  0  0  0  0  0  0  0
   -2.6437    0.1762    0.0000 C   0  0  0  0  0  0  0  0  0
   -1.9292    0.5887    0.0000 C   0  0  0  0  0  0  0  0  0
   -1.2148    0.1762    0.0000 N   0  0  0  0  0  0  0  0  0
   -1.2148   -0.6488    0.0000 C   0  0  0  0  0  0  0  0  0
   -1.9292   -1.0613    0.0000 C   0  0  0  0  0  0  0  0  0
   -0.5003    0.5887    0.0000 C   0  0  0  0  0  0  0  0  0
   -0.5003    1.4137    0.0000 C   0  0  0  0  0  0  0  0  0
    0.2142    0.1762    0.0000 C   0  0  0  0  0  0  0  0  0
  1  2  4  0  0  0  0
  1  5  4  0  0  0  0
  2  3  4  0  0  0  0
  3  4  4  0  0  0  0
  3  6  1  0  0  0  0
  4  5  4  0  0  0  0
  6  7  1  0  0  0  0
  7  8  1  0  0  0  0
  7 12  1  0  0  0  0
  8  9  1  0  0  0  0
  9 10  1  0  0  0  0
 10 11  1  0  0  0  0
 10 13  1  0  0  0  0
 11 12  1  0  0  0  0
 13 14  1  0  0  0  0
 13 15  1  0  0  0  0
M  STY  1   1 DAT
M  SAL   1  1   1
M  SDT   1 MRV_IMPLICIT_H                                        
M  SDD   1     0.0000    0.0000    DR    ALL  0       0  
M  SED   1 IMPL_H1
M  END
>  <Name_Molregno>
297089

>  <HISTAMINE H3>
7.2

$$$$
297090
  Marvin  02231216192D 0   1.00000     0.00000     0

 16 17  0  0  0  0  0  0  0  0999 V2000
   -3.0175   -3.5988    0.0000 N   0  0  0  0  0  0  0  0  0
   -3.2724   -2.8142    0.0000 C   0  0  0  0  0  0  0  0  0
   -2.6050   -2.3293    0.0000 C   0  0  0  0  0  0  0  0  0
   -1.9375   -2.8142    0.0000 N   0  0  0  0  0  0  0  0  0
   -2.1925   -3.5988    0.0000 C   0  0  0  0  0  0  0  0  0
   -2.6050   -1.5043    0.0000 C   0  0  0  0  0  0  0  0  0
   -3.3195   -1.0918    0.0000 C   0  0  0  0  0  0  0  0  0
   -3.3195   -0.2668    0.0000 C   0  0  0  0  0  0  0  0  0
   -4.0339    0.1457    0.0000 C   0  0  0  0  0  0  0  0  0
   -4.0339    0.9707    0.0000 C   0  0  0  0  0  0  0  0  0
   -3.3195    1.3832    0.0000 N   0  0  0  0  0  0  0  0  0
   -2.6050    0.9707    0.0000 C   0  0  0  0  0  0  0  0  0
   -2.6050    0.1457    0.0000 C   0  0  0  0  0  0  0  0  0
   -3.3195    2.2082    0.0000 C   0  0  0  0  0  0  0  0  0
   -4.0339    2.6207    0.0000 C   0  0  0  0  0  0  0  0  0
   -2.6050    2.6207    0.0000 C   0  0  0  0  0  0  0  0  0
  1  2  4  0  0  0  0
  1  5  4  0  0  0  0
  2  3  4  0  0  0  0
  3  4  4  0  0  0  0
  3  6  1  0  0  0  0
  4  5  4  0  0  0  0
  6  7  1  0  0  0  0
  7  8  1  0  0  0  0
  8  9  1  0  0  0  0
  8 13  1  0  0  0  0
  9 10  1  0  0  0  0
 10 11  1  0  0  0  0
 11 12  1  0  0  0  0
 11 14  1  0  0  0  0
 12 13  1  0  0  0  0
 14 15  1  0  0  0  0
 14 16  1  0  0  0  0
M  STY  1   1 DAT
M  SAL   1  1   1
M  SDT   1 MRV_IMPLICIT_H                                        
M  SDD   1     0.0000    0.0000    DR    ALL  0       0  
M  SED   1 IMPL_H1
M  END
>  <Name_Molregno>
297090

>  <HISTAMINE H3>
7

$$$$
297106
  Marvin  02231216192D 0   1.00000     0.00000     0

 15 16  0  0  0  0  0  0  0  0999 V2000
   -3.7707   -3.1559    0.0000 N   0  0  0  0  0  0  0  0  0
   -4.0256   -2.3712    0.0000 C   0  0  0  0  0  0  0  0  0
   -3.3582   -1.8863    0.0000 C   0  0  0  0  0  0  0  0  0
   -2.6907   -2.3712    0.0000 N   0  0  0  0  0  0  0  0  0
   -2.9457   -3.1559    0.0000 C   0  0  0  0  0  0  0  0  0
   -3.3582   -1.0613    0.0000 C   0  0  0  0  0  0  0  0  0
   -2.6437   -0.6488    0.0000 C   0  0  0  0  0  0  0  0  0
   -2.6437    0.1762    0.0000 C   0  0  0  0  0  0  0  0  0
   -1.9292    0.5887    0.0000 C   0  0  0  0  0  0  0  0  0
   -1.2148    0.1762    0.0000 N   0  0  0  0  0  0  0  0  0
   -1.2148   -0.6488    0.0000 C   0  0  0  0  0  0  0  0  0
   -1.9292   -1.0613    0.0000 C   0  0  0  0  0  0  0  0  0
   -0.5003    0.5887    0.0000 C   0  0  0  0  0  0  0  0  0
   -0.5003    1.4137    0.0000 C   0  0  0  0  0  0  0  0  0
    0.2142    0.1762    0.0000 C   0  0  0  0  0  0  0  0  0
  1  2  4  0  0  0  0
  1  5  4  0  0  0  0
  2  3  4  0  0  0  0
  3  4  4  0  0  0  0
  3  6  1  0  0  0  0
  4  5  4  0  0  0  0
  6  7  2  0  0  0  0
  7  8  1  0  0  0  0
  7 12  1  0  0  0  0
  8  9  1  0  0  0  0
  9 10  1  0  0  0  0
 10 11  1  0  0  0  0
 10 13  1  0  0  0  0
 11 12  1  0  0  0  0
 13 14  1  0  0  0  0
 13 15  1  0  0  0  0
M  STY  1   1 DAT
M  SAL   1  1   1
M  SDT   1 MRV_IMPLICIT_H                                        
M  SDD   1     0.0000    0.0000    DR    ALL  0       0  
M  SED   1 IMPL_H1
M  END
>  <Name_Molregno>
297106

>  <HISTAMINE H3>
7.2

$$$$
297107
  Marvin  02231216192D 0   1.00000     0.00000     0

 18 20  0  0  0  0  0  0  0  0999 V2000
   -4.7380   -3.6345    0.0000 N   0  0  0  0  0  0  0  0  0
   -4.9930   -2.8498    0.0000 C   0  0  0  0  0  0  0  0  0
   -4.3255   -2.3649    0.0000 C   0  0  0  0  0  0  0  0  0
   -3.6581   -2.8498    0.0000 N   0  0  0  0  0  0  0  0  0
   -3.9130   -3.6345    0.0000 C   0  0  0  0  0  0  0  0  0
   -4.3255   -1.5399    0.0000 C   0  0  0  0  0  0  0  0  0
   -3.6111   -1.1274    0.0000 C   0  0  0  0  0  0  0  0  0
   -3.6111   -0.3024    0.0000 C   0  0  0  0  0  0  0  0  0
   -2.8966    0.1101    0.0000 C   0  0  0  0  0  0  0  0  0
   -2.1821   -0.3024    0.0000 N   0  0  0  0  0  0  0  0  0
   -2.1821   -1.1274    0.0000 C   0  0  0  0  0  0  0  0  0
   -2.8966   -1.5399    0.0000 C   0  0  0  0  0  0  0  0  0
   -1.4676    0.1101    0.0000 C   0  0  0  0  0  0  0  0  0
   -1.4676    0.9351    0.0000 C   0  0  0  0  0  0  0  0  0
   -0.7532    1.3476    0.0000 C   0  0  0  0  0  0  0  0  0
   -0.0387    0.9351    0.0000 C   0  0  0  0  0  0  0  0  0
   -0.0387    0.1101    0.0000 C   0  0  0  0  0  0  0  0  0
   -0.7532   -0.3024    0.0000 C   0  0  0  0  0  0  0  0  0
  1  2  4  0  0  0  0
  1  5  4  0  0  0  0
  2  3  4  0  0  0  0
  3  4  4  0  0  0  0
  3  6  1  0  0  0  0
  4  5  4  0  0  0  0
  6  7  1  0  0  0  0
  7  8  1  0  0  0  0
  7 12  1  0  0  0  0
  8  9  1  0  0  0  0
  9 10  1  0  0  0  0
 10 11  1  0  0  0  0
 10 13  1  0  0  0  0
 11 12  1  0  0  0  0
 13 14  4  0  0  0  0
 13 18  4  0  0  0  0
 14 15  4  0  0  0  0
 15 16  4  0  0  0  0
 16 17  4  0  0  0  0
 17 18  4  0  0  0  0
M  STY  1   1 DAT
M  SAL   1  1   1
M  SDT   1 MRV_IMPLICIT_H                                        
M  SDD   1     0.0000    0.0000    DR    ALL  0       0  
M  SED   1 IMPL_H1
M  END
>  <Name_Molregno>
297107

>  <HISTAMINE H3>
7.66

$$$$
297224
  Marvin  02231216192D 0   1.00000     0.00000     0

 13 14  0  0  0  0  0  0  0  0999 V2000
   -1.3850   -1.2213    0.0000 N   0  0  0  0  0  0  0  0  0
   -1.6399   -0.4367    0.0000 C   0  0  0  0  0  0  0  0  0
   -0.9725    0.0482    0.0000 C   0  0  0  0  0  0  0  0  0
   -0.3051   -0.4367    0.0000 N   0  0  0  0  0  0  0  0  0
   -0.5600   -1.2213    0.0000 C   0  0  0  0  0  0  0  0  0
   -0.9725    0.8732    0.0000 C   0  0  0  0  0  0  0  0  0
   -1.6870    1.2857    0.0000 C   0  0  0  0  0  0  0  0  0
   -2.4014    0.8732    0.0000 C   0  0  0  0  0  0  0  0  0
   -3.1159    1.2857    0.0000 C   0  0  0  0  0  0  0  0  0
   -3.1159    2.1107    0.0000 N   0  0  0  0  0  0  0  0  0
   -2.4014    2.5232    0.0000 C   0  0  0  0  0  0  0  0  0
   -1.6870    2.1107    0.0000 C   0  0  0  0  0  0  0  0  0
   -3.8304    2.5232    0.0000 C   0  0  0  0  0  0  0  0  0
  1  2  4  0  0  0  0
  1  5  4  0  0  0  0
  2  3  4  0  0  0  0
  3  4  4  0  0  0  0
  3  6  1  0  0  0  0
  4  5  4  0  0  0  0
  6  7  2  0  0  0  0
  7  8  1  0  0  0  0
  7 12  1  0  0  0  0
  8  9  1  0  0  0  0
  9 10  1  0  0  0  0
 10 11  1  0  0  0  0
 10 13  1  0  0  0  0
 11 12  1  0  0  0  0
M  STY  1   1 DAT
M  SAL   1  1   1
M  SDT   1 MRV_IMPLICIT_H                                        
M  SDD   1     0.0000    0.0000    DR    ALL  0       0  
M  SED   1 IMPL_H1
M  END
>  <Name_Molregno>
297224

>  <HISTAMINE H3>
8.2

$$$$
297240
  Marvin  02231216192D 0   1.00000     0.00000     0

 14 15  0  0  0  0  0  0  0  0999 V2000
    1.0939   -1.8182    0.0000 N   0  0  0  0  0  0  0  0  0
    0.8390   -1.0335    0.0000 C   0  0  0  0  0  0  0  0  0
    1.5064   -0.5486    0.0000 C   0  0  0  0  0  0  0  0  0
    2.1738   -1.0335    0.0000 N   0  0  0  0  0  0  0  0  0
    1.9189   -1.8182    0.0000 C   0  0  0  0  0  0  0  0  0
    1.5064    0.2764    0.0000 C   0  0  0  0  0  0  0  0  0
    2.2209    0.6889    0.0000 C   0  0  0  0  0  0  0  0  0
    2.2209    1.5139    0.0000 C   0  0  0  0  0  0  0  0  0
    2.9353    1.9264    0.0000 C   0  0  0  0  0  0  0  0  0
    3.6498    1.5139    0.0000 N   0  0  0  0  0  0  0  0  0
    3.6498    0.6889    0.0000 C   0  0  0  0  0  0  0  0  0
    2.9353    0.2764    0.0000 C   0  0  0  0  0  0  0  0  0
    4.3643    1.9264    0.0000 C   0  0  0  0  0  0  0  0  0
    4.3643    2.7514    0.0000 C   0  0  0  0  0  0  0  0  0
  1  2  4  0  0  0  0
  1  5  4  0  0  0  0
  2  3  4  0  0  0  0
  3  4  4  0  0  0  0
  3  6  1  0  0  0  0
  4  5  4  0  0  0  0
  6  7  1  0  0  0  0
  7  8  1  0  0  0  0
  7 12  1  0  0  0  0
  8  9  1  0  0  0  0
  9 10  1  0  0  0  0
 10 11  1  0  0  0  0
 10 13  1  0  0  0  0
 11 12  1  0  0  0  0
 13 14  1  0  0  0  0
M  STY  1   1 DAT
M  SAL   1  1   1
M  SDT   1 MRV_IMPLICIT_H                                        
M  SDD   1     0.0000    0.0000    DR    ALL  0       0  
M  SED   1 IMPL_H1
M  END
>  <Name_Molregno>
297240

>  <HISTAMINE H3>
7.8

$$$$
297253
  Marvin  02231216192D 0   1.00000     0.00000     0

 15 16  0  0  0  0  0  0  0  0999 V2000
   -2.8084   -3.2252    0.0000 N   0  0  0  0  0  0  0  0  0
   -3.0634   -2.4405    0.0000 C   0  0  0  0  0  0  0  0  0
   -2.3959   -1.9556    0.0000 C   0  0  0  0  0  0  0  0  0
   -1.7285   -2.4405    0.0000 N   0  0  0  0  0  0  0  0  0
   -1.9834   -3.2252    0.0000 C   0  0  0  0  0  0  0  0  0
   -2.3959   -1.1306    0.0000 C   0  0  0  0  0  0  0  0  0
   -3.1104   -0.7181    0.0000 C   0  0  0  0  0  0  0  0  0
   -3.1104    0.1069    0.0000 C   0  0  0  0  0  0  0  0  0
   -3.8249    0.5194    0.0000 C   0  0  0  0  0  0  0  0  0
   -3.8249    1.3444    0.0000 C   0  0  0  0  0  0  0  0  0
   -3.1104    1.7569    0.0000 N   0  0  0  0  0  0  0  0  0
   -2.3959    1.3444    0.0000 C   0  0  0  0  0  0  0  0  0
   -2.3959    0.5194    0.0000 C   0  0  0  0  0  0  0  0  0
   -3.1104    2.5819    0.0000 C   0  0  0  0  0  0  0  0  0
   -3.8249    2.9944    0.0000 C   0  0  0  0  0  0  0  0  0
  1  2  4  0  0  0  0
  1  5  4  0  0  0  0
  2  3  4  0  0  0  0
  3  4  4  0  0  0  0
  3  6  1  0  0  0  0
  4  5  4  0  0  0  0
  6  7  1  0  0  0  0
  7  8  1  0  0  0  0
  8  9  1  0  0  0  0
  8 13  1  0  0  0  0
  9 10  1  0  0  0  0
 10 11  1  0  0  0  0
 11 12  1  0  0  0  0
 11 14  1  0  0  0  0
 12 13  1  0  0  0  0
 14 15  1  0  0  0  0
M  STY  1   1 DAT
M  SAL   1  1   1
M  SDT   1 MRV_IMPLICIT_H                                        
M  SDD   1     0.0000    0.0000    DR    ALL  0       0  
M  SED   1 IMPL_H1
M  END
>  <Name_Molregno>
297253

>  <HISTAMINE H3>
7.2

$$$$
297320
  Marvin  02231216192D 0   1.00000     0.00000     0

 14 15  0  0  0  0  0  0  0  0999 V2000
    2.7575   -2.9943    0.0000 N   0  0  0  0  0  0  0  0  0
    2.5026   -2.2097    0.0000 C   0  0  0  0  0  0  0  0  0
    3.1700   -1.7247    0.0000 C   0  0  0  0  0  0  0  0  0
    3.8375   -2.2097    0.0000 N   0  0  0  0  0  0  0  0  0
    3.5825   -2.9943    0.0000 C   0  0  0  0  0  0  0  0  0
    3.1700   -0.8997    0.0000 C   0  0  0  0  0  0  0  0  0
    2.4556   -0.4872    0.0000 C   0  0  0  0  0  0  0  0  0
    2.4556    0.3378    0.0000 C   0  0  0  0  0  0  0  0  0
    1.7411    0.7503    0.0000 C   0  0  0  0  0  0  0  0  0
    1.7411    1.5753    0.0000 C   0  0  0  0  0  0  0  0  0
    2.4556    1.9878    0.0000 N   0  0  0  0  0  0  0  0  0
    3.1700    1.5753    0.0000 C   0  0  0  0  0  0  0  0  0
    3.1700    0.7503    0.0000 C   0  0  0  0  0  0  0  0  0
    2.4556    2.8128    0.0000 C   0  0  0  0  0  0  0  0  0
  1  2  4  0  0  0  0
  1  5  4  0  0  0  0
  2  3  4  0  0  0  0
  3  4  4  0  0  0  0
  3  6  1  0  0  0  0
  4  5  4  0  0  0  0
  6  7  1  0  0  0  0
  7  8  1  0  0  0  0
  8  9  1  0  0  0  0
  8 13  1  0  0  0  0
  9 10  1  0  0  0  0
 10 11  1  0  0  0  0
 11 12  1  0  0  0  0
 11 14  1  0  0  0  0
 12 13  1  0  0  0  0
M  STY  1   1 DAT
M  SAL   1  1   1
M  SDT   1 MRV_IMPLICIT_H                                        
M  SDD   1     0.0000    0.0000    DR    ALL  0       0  
M  SED   1 IMPL_H1
M  END
>  <Name_Molregno>
297320

>  <HISTAMINE H3>
7.5

$$$$
299284
  Marvin  02231216192D 0   1.00000     0.00000     0

 31 34  0  0  1  0  0  0  0  0999 V2000
   -7.6668    5.5169    0.0000 O   0  0  0  0  0  0  0  0  0
   -6.9523    5.9294    0.0000 C   0  0  0  0  0  0  0  0  0
   -6.2379    5.5169    0.0000 C   0  0  0  0  0  0  0  0  0
   -6.2379    4.6919    0.0000 N   0  0  0  0  0  0  0  0  0
   -6.9523    4.2794    0.0000 C   0  0  0  0  0  0  0  0  0
   -7.6668    4.6919    0.0000 C   0  0  0  0  0  0  0  0  0
   -5.5234    4.2794    0.0000 C   0  0  0  0  0  0  0  0  0
   -4.8089    4.6919    0.0000 O   0  0  0  0  0  0  0  0  0
   -5.5234    3.4544    0.0000 C   0  0  0  0  0  0  0  0  0
   -4.8089    3.0419    0.0000 C   0  0  0  0  0  0  0  0  0
   -4.8089    2.2169    0.0000 C   0  0  0  0  0  0  0  0  0
   -5.5234    1.8044    0.0000 C   0  0  0  0  0  0  0  0  0
   -6.2379    2.2169    0.0000 C   0  0  0  0  0  0  0  0  0
   -6.2379    3.0419    0.0000 C   0  0  0  0  0  0  0  0  0
   -5.5234    0.9794    0.0000 C   0  0  0  0  0  0  0  0  0
   -4.8089    0.5669    0.0000 C   0  0  0  0  0  0  0  0  0
   -4.8089   -0.2581    0.0000 C   0  0  0  0  0  0  0  0  0
   -5.5234   -0.6706    0.0000 C   0  0  0  0  0  0  0  0  0
   -5.5234   -1.4956    0.0000 O   0  0  0  0  0  0  0  0  0
   -4.8089   -1.9081    0.0000 C   0  0  0  0  0  0  0  0  0
   -4.8089   -2.7331    0.0000 C   0  0  0  0  0  0  0  0  0
   -4.0944   -3.1456    0.0000 C   0  0  0  0  0  0  0  0  0
   -4.0944   -3.9706    0.0000 N   0  0  0  0  0  0  0  0  0
   -3.4270   -4.4555    0.0000 C   0  0  0  0  0  0  0  0  0
   -3.6819   -5.2401    0.0000 C   0  0  0  0  0  0  0  0  0
   -4.5069   -5.2401    0.0000 C   0  0  0  0  0  0  0  0  0
   -4.7619   -4.4555    0.0000 C   0  0  0  0  0  0  0  0  0
   -5.5465   -4.2006    0.0000 C   0  0  0  0  0  0  0  0  0
   -2.6424   -4.2006    0.0000 C   0  0  0  0  0  0  0  0  0
   -6.2379   -0.2581    0.0000 C   0  0  0  0  0  0  0  0  0
   -6.2379    0.5669    0.0000 C   0  0  0  0  0  0  0  0  0
  1  2  1  0  0  0  0
  1  6  1  0  0  0  0
  2  3  1  0  0  0  0
  3  4  1  0  0  0  0
  4  5  1  0  0  0  0
  4  7  1  0  0  0  0
  5  6  1  0  0  0  0
  7  8  2  0  0  0  0
  7  9  1  0  0  0  0
  9 10  4  0  0  0  0
  9 14  4  0  0  0  0
 10 11  4  0  0  0  0
 11 12  4  0  0  0  0
 12 13  4  0  0  0  0
 12 15  1  0  0  0  0
 13 14  4  0  0  0  0
 15 16  4  0  0  0  0
 15 31  4  0  0  0  0
 16 17  4  0  0  0  0
 17 18  4  0  0  0  0
 18 19  1  0  0  0  0
 18 30  4  0  0  0  0
 19 20  1  0  0  0  0
 20 21  1  0  0  0  0
 21 22  1  0  0  0  0
 22 23  1  0  0  0  0
 23 24  1  0  0  0  0
 23 27  1  0  0  0  0
 24 25  1  0  0  0  0
 24 29  1  0  0  0  0
 25 26  1  0  0  0  0
 26 27  1  0  0  0  0
 27 28  1  0  0  0  0
 30 31  4  0  0  0  0
M  END
>  <Name_Molregno>
299284

>  <HISTAMINE H3>
9

$$$$
299416
  Marvin  02231216192D 0   1.00000     0.00000     0

 26 29  0  0  1  0  0  0  0  0999 V2000
    9.5811    0.3613    0.0000 Cl  0  0  0  0  0  0  0  0  0
    8.8667    0.7738    0.0000 C   0  0  0  0  0  0  0  0  0
    8.1522    0.3613    0.0000 C   0  0  0  0  0  0  0  0  0
    7.4377    0.7738    0.0000 C   0  0  0  0  0  0  0  0  0
    7.4377    1.5988    0.0000 C   0  0  0  0  0  0  0  0  0
    8.1522    2.0113    0.0000 C   0  0  0  0  0  0  0  0  0
    8.8667    1.5988    0.0000 C   0  0  0  0  0  0  0  0  0
    6.7232    0.3613    0.0000 C   0  0  0  0  0  0  0  0  0
    6.7232   -0.4637    0.0000 O   0  0  0  0  0  0  0  0  0
    6.0088    0.7738    0.0000 C   0  0  0  0  0  0  0  0  0
    5.2943    0.3613    0.0000 C   0  0  0  0  0  0  0  0  0
    4.5798    0.7738    0.0000 C   0  0  0  0  0  0  0  0  0
    3.7952    0.5188    0.0000 C   0  0  0  0  0  0  0  0  0
    3.3103    1.1863    0.0000 C   0  0  0  0  0  0  0  0  0
    3.7952    1.8537    0.0000 O   0  0  0  0  0  0  0  0  0
    4.5798    1.5988    0.0000 C   0  0  0  0  0  0  0  0  0
    5.2943    2.0113    0.0000 C   0  0  0  0  0  0  0  0  0
    6.0088    1.5988    0.0000 C   0  0  0  0  0  0  0  0  0
    2.4853    1.1863    0.0000 C   0  0  0  0  0  0  0  0  0
    2.0728    0.4718    0.0000 C   0  0  0  0  0  0  0  0  0
    1.2478    0.4718    0.0000 N   0  0  0  0  0  0  0  0  0
    0.7629   -0.1956    0.0000 C   0  0  0  0  0  0  0  0  0
   -0.0218    0.0593    0.0000 C   0  0  0  0  0  0  0  0  0
   -0.0218    0.8843    0.0000 C   0  0  0  0  0  0  0  0  0
    0.7629    1.1392    0.0000 C   0  0  0  0  0  0  0  0  0
    1.0178    1.9239    0.0000 C   0  0  0  0  0  0  0  0  0
  1  2  1  0  0  0  0
  2  3  4  0  0  0  0
  2  7  4  0  0  0  0
  3  4  4  0  0  0  0
  4  5  4  0  0  0  0
  4  8  1  0  0  0  0
  5  6  4  0  0  0  0
  6  7  4  0  0  0  0
  8  9  2  0  0  0  0
  8 10  1  0  0  0  0
 10 11  4  0  0  0  0
 10 18  4  0  0  0  0
 11 12  4  0  0  0  0
 12 13  4  0  0  0  0
 12 16  4  0  0  0  0
 13 14  4  0  0  0  0
 14 15  4  0  0  0  0
 14 19  1  0  0  0  0
 15 16  4  0  0  0  0
 16 17  4  0  0  0  0
 17 18  4  0  0  0  0
 19 20  1  0  0  0  0
 20 21  1  0  0  0  0
 21 22  1  0  0  0  0
 21 25  1  0  0  0  0
 22 23  1  0  0  0  0
 23 24  1  0  0  0  0
 24 25  1  0  0  0  0
 25 26  1  0  0  0  0
M  END
>  <Name_Molregno>
299416

>  <HISTAMINE H3>
9.72

$$$$
299421
  Marvin  02231216192D 0   1.00000     0.00000     0

 24 28  0  0  0  0  0  0  0  0999 V2000
   -6.3003   -2.5351    0.0000 O   0  0  0  0  0  0  0  0  0
   -6.3003   -1.7101    0.0000 C   0  0  0  0  0  0  0  0  0
   -7.0148   -1.2976    0.0000 C   0  0  0  0  0  0  0  0  0
   -7.8398   -1.2976    0.0000 C   0  0  0  0  0  0  0  0  0
   -7.4273   -0.5831    0.0000 C   0  0  0  0  0  0  0  0  0
   -5.5858   -1.2976    0.0000 C   0  0  0  0  0  0  0  0  0
   -4.8714   -1.7101    0.0000 C   0  0  0  0  0  0  0  0  0
   -4.1569   -1.2976    0.0000 C   0  0  0  0  0  0  0  0  0
   -4.1569   -0.4726    0.0000 C   0  0  0  0  0  0  0  0  0
   -3.4424   -0.0601    0.0000 N   0  0  0  0  0  0  0  0  0
   -2.7280   -0.4726    0.0000 C   0  0  0  0  0  0  0  0  0
   -2.0135   -0.0601    0.0000 N   0  0  0  0  0  0  0  0  0
   -2.0135    0.7649    0.0000 C   0  0  0  0  0  0  0  0  0
   -1.2990    1.1774    0.0000 C   0  0  0  0  0  0  0  0  0
   -0.5845    0.7649    0.0000 N   0  0  0  0  0  0  0  0  0
   -0.5845   -0.0601    0.0000 C   0  0  0  0  0  0  0  0  0
   -1.2990   -0.4726    0.0000 C   0  0  0  0  0  0  0  0  0
    0.1299    1.1774    0.0000 C   0  0  0  0  0  0  0  0  0
    0.5424    1.8919    0.0000 C   0  0  0  0  0  0  0  0  0
    0.9549    1.1774    0.0000 C   0  0  0  0  0  0  0  0  0
   -2.7280   -1.2976    0.0000 C   0  0  0  0  0  0  0  0  0
   -3.4424   -1.7101    0.0000 C   0  0  0  0  0  0  0  0  0
   -4.8714   -0.0601    0.0000 C   0  0  0  0  0  0  0  0  0
   -5.5858   -0.4726    0.0000 C   0  0  0  0  0  0  0  0  0
  1  2  2  0  0  0  0
  2  3  1  0  0  0  0
  2  6  1  0  0  0  0
  3  4  1  0  0  0  0
  3  5  1  0  0  0  0
  4  5  1  0  0  0  0
  6  7  4  0  0  0  0
  6 24  4  0  0  0  0
  7  8  4  0  0  0  0
  8  9  4  0  0  0  0
  8 22  4  0  0  0  0
  9 10  4  0  0  0  0
  9 23  4  0  0  0  0
 10 11  4  0  0  0  0
 11 12  1  0  0  0  0
 11 21  4  0  0  0  0
 12 13  1  0  0  0  0
 12 17  1  0  0  0  0
 13 14  1  0  0  0  0
 14 15  1  0  0  0  0
 15 16  1  0  0  0  0
 15 18  1  0  0  0  0
 16 17  1  0  0  0  0
 18 19  1  0  0  0  0
 18 20  1  0  0  0  0
 19 20  1  0  0  0  0
 21 22  4  0  0  0  0
 23 24  4  0  0  0  0
M  END
>  <Name_Molregno>
299421

>  <HISTAMINE H3>
8.74

$$$$
299427
  Marvin  02231216192D 0   1.00000     0.00000     0

 21 24  0  0  0  0  0  0  0  0999 V2000
    0.1525    0.6427    0.0000 N   0  0  0  0  0  0  0  0  0
    0.8670    1.0552    0.0000 C   0  0  0  0  0  0  0  0  0
    0.8670    1.8802    0.0000 C   0  0  0  0  0  0  0  0  0
    0.1525    2.2927    0.0000 C   0  0  0  0  0  0  0  0  0
   -0.5620    1.8802    0.0000 C   0  0  0  0  0  0  0  0  0
   -0.5620    1.0552    0.0000 C   0  0  0  0  0  0  0  0  0
   -1.2764    0.6427    0.0000 N   0  0  0  0  0  0  0  0  0
   -1.2764   -0.1823    0.0000 C   0  0  0  0  0  0  0  0  0
   -1.9909   -0.5948    0.0000 C   0  0  0  0  0  0  0  0  0
   -2.7054   -0.1823    0.0000 N   0  0  0  0  0  0  0  0  0
   -2.7054    0.6427    0.0000 C   0  0  0  0  0  0  0  0  0
   -1.9909    1.0552    0.0000 C   0  0  0  0  0  0  0  0  0
   -3.4199   -0.5948    0.0000 C   0  0  0  0  0  0  0  0  0
   -3.5061   -1.4153    0.0000 C   0  0  0  0  0  0  0  0  0
   -4.3131   -1.5868    0.0000 C   0  0  0  0  0  0  0  0  0
   -4.7256   -0.8724    0.0000 C   0  0  0  0  0  0  0  0  0
   -4.1735   -0.2593    0.0000 C   0  0  0  0  0  0  0  0  0
    1.5814    2.2927    0.0000 C   0  0  0  0  0  0  0  0  0
    2.2959    1.8802    0.0000 C   0  0  0  0  0  0  0  0  0
    2.2959    1.0552    0.0000 C   0  0  0  0  0  0  0  0  0
    1.5814    0.6427    0.0000 C   0  0  0  0  0  0  0  0  0
  1  2  4  0  0  0  0
  1  6  4  0  0  0  0
  2  3  4  0  0  0  0
  2 21  4  0  0  0  0
  3  4  4  0  0  0  0
  3 18  4  0  0  0  0
  4  5  4  0  0  0  0
  5  6  4  0  0  0  0
  6  7  1  0  0  0  0
  7  8  1  0  0  0  0
  7 12  1  0  0  0  0
  8  9  1  0  0  0  0
  9 10  1  0  0  0  0
 10 11  1  0  0  0  0
 10 13  1  0  0  0  0
 11 12  1  0  0  0  0
 13 14  1  0  0  0  0
 13 17  1  0  0  0  0
 14 15  1  0  0  0  0
 15 16  1  0  0  0  0
 16 17  1  0  0  0  0
 18 19  4  0  0  0  0
 19 20  4  0  0  0  0
 20 21  4  0  0  0  0
M  END
>  <Name_Molregno>
299427

>  <HISTAMINE H3>
7.55

$$$$
299428
  Marvin  02231216192D 0   1.00000     0.00000     0

 20 23  0  0  1  0  0  0  0  0999 V2000
   -1.8715    0.9064    0.0000 N   0  0  0  0  0  0  0  0  0
   -2.5860    0.4939    0.0000 C   0  0  0  0  0  0  0  0  0
   -2.5860   -0.3311    0.0000 C   0  0  0  0  0  0  0  0  0
   -1.8715   -0.7436    0.0000 C   0  0  0  0  0  0  0  0  0
   -1.1571   -0.3311    0.0000 C   0  0  0  0  0  0  0  0  0
   -1.1571    0.4939    0.0000 C   0  0  0  0  0  0  0  0  0
   -0.4426    0.9064    0.0000 N   0  0  0  0  0  0  0  0  0
    0.2719    0.4939    0.0000 C   0  0  0  0  0  0  0  0  0
    0.9864    0.9064    0.0000 C   0  0  0  0  0  0  0  0  0
    0.9864    1.7314    0.0000 N   0  0  0  0  0  0  0  0  0
    1.7008    2.1439    0.0000 C   0  0  0  0  0  0  0  0  0
    2.4153    1.7314    0.0000 C   0  0  0  0  0  0  0  0  0
    2.4153    0.9064    0.0000 C   0  0  0  0  0  0  0  0  0
    1.7008    0.4939    0.0000 C   0  0  0  0  0  0  0  0  0
    0.2719    2.1439    0.0000 C   0  0  0  0  0  0  0  0  0
   -0.4426    1.7314    0.0000 C   0  0  0  0  0  0  0  0  0
   -3.3005   -0.7436    0.0000 C   0  0  0  0  0  0  0  0  0
   -4.0149   -0.3311    0.0000 C   0  0  0  0  0  0  0  0  0
   -4.0149    0.4939    0.0000 C   0  0  0  0  0  0  0  0  0
   -3.3005    0.9064    0.0000 C   0  0  0  0  0  0  0  0  0
  1  2  4  0  0  0  0
  1  6  4  0  0  0  0
  2  3  4  0  0  0  0
  2 20  4  0  0  0  0
  3  4  4  0  0  0  0
  3 17  4  0  0  0  0
  4  5  4  0  0  0  0
  5  6  4  0  0  0  0
  6  7  1  0  0  0  0
  7  8  1  0  0  0  0
  7 16  1  0  0  0  0
  8  9  1  0  0  0  0
  9 10  1  0  0  0  0
  9 14  1  0  0  0  0
 10 11  1  0  0  0  0
 10 15  1  0  0  0  0
 11 12  1  0  0  0  0
 12 13  1  0  0  0  0
 13 14  1  0  0  0  0
 15 16  1  0  0  0  0
 17 18  4  0  0  0  0
 18 19  4  0  0  0  0
 19 20  4  0  0  0  0
M  END
>  <Name_Molregno>
299428

>  <HISTAMINE H3>
7.74

$$$$
299434
  Marvin  02231216192D 0   1.00000     0.00000     0

 27 30  0  0  1  0  0  0  0  0999 V2000
    9.3377    0.3115    0.0000 F   0  0  0  0  0  0  0  0  0
    8.6233    0.7240    0.0000 C   0  0  0  0  0  0  0  0  0
    7.9088    0.3115    0.0000 C   0  0  0  0  0  0  0  0  0
    7.1943    0.7240    0.0000 C   0  0  0  0  0  0  0  0  0
    7.1943    1.5490    0.0000 C   0  0  0  0  0  0  0  0  0
    7.9088    1.9615    0.0000 C   0  0  0  0  0  0  0  0  0
    7.9088    2.7865    0.0000 F   0  0  0  0  0  0  0  0  0
    8.6233    1.5490    0.0000 C   0  0  0  0  0  0  0  0  0
    6.4798    0.3115    0.0000 C   0  0  0  0  0  0  0  0  0
    6.4798   -0.5135    0.0000 O   0  0  0  0  0  0  0  0  0
    5.7654    0.7240    0.0000 C   0  0  0  0  0  0  0  0  0
    5.0509    0.3115    0.0000 C   0  0  0  0  0  0  0  0  0
    4.3364    0.7240    0.0000 C   0  0  0  0  0  0  0  0  0
    3.5518    0.4691    0.0000 C   0  0  0  0  0  0  0  0  0
    3.0669    1.1365    0.0000 C   0  0  0  0  0  0  0  0  0
    3.5518    1.8039    0.0000 O   0  0  0  0  0  0  0  0  0
    4.3364    1.5490    0.0000 C   0  0  0  0  0  0  0  0  0
    5.0509    1.9615    0.0000 C   0  0  0  0  0  0  0  0  0
    5.7654    1.5490    0.0000 C   0  0  0  0  0  0  0  0  0
    2.2419    1.1365    0.0000 C   0  0  0  0  0  0  0  0  0
    1.8294    0.4220    0.0000 C   0  0  0  0  0  0  0  0  0
    1.0044    0.4220    0.0000 N   0  0  0  0  0  0  0  0  0
    0.5195   -0.2454    0.0000 C   0  0  0  0  0  0  0  0  0
   -0.2652    0.0095    0.0000 C   0  0  0  0  0  0  0  0  0
   -0.2652    0.8345    0.0000 C   0  0  0  0  0  0  0  0  0
    0.5195    1.0895    0.0000 C   0  0  0  0  0  0  0  0  0
    0.7744    1.8741    0.0000 C   0  0  0  0  0  0  0  0  0
  1  2  1  0  0  0  0
  2  3  4  0  0  0  0
  2  8  4  0  0  0  0
  3  4  4  0  0  0  0
  4  5  4  0  0  0  0
  4  9  1  0  0  0  0
  5  6  4  0  0  0  0
  6  7  1  0  0  0  0
  6  8  4  0  0  0  0
  9 10  2  0  0  0  0
  9 11  1  0  0  0  0
 11 12  4  0  0  0  0
 11 19  4  0  0  0  0
 12 13  4  0  0  0  0
 13 14  4  0  0  0  0
 13 17  4  0  0  0  0
 14 15  4  0  0  0  0
 15 16  4  0  0  0  0
 15 20  1  0  0  0  0
 16 17  4  0  0  0  0
 17 18  4  0  0  0  0
 18 19  4  0  0  0  0
 20 21  1  0  0  0  0
 21 22  1  0  0  0  0
 22 23  1  0  0  0  0
 22 26  1  0  0  0  0
 23 24  1  0  0  0  0
 24 25  1  0  0  0  0
 25 26  1  0  0  0  0
 26 27  1  0  0  0  0
M  END
>  <Name_Molregno>
299434

>  <HISTAMINE H3>
10.06

$$$$
299435
  Marvin  02231216192D 0   1.00000     0.00000     0

 25 28  0  0  1  0  0  0  0  0999 V2000
    0.0338   -0.2169    0.0000 O   0  0  0  0  0  0  0  0  0
    0.8184    0.0381    0.0000 C   0  0  0  0  0  0  0  0  0
    0.8184    0.8631    0.0000 C   0  0  0  0  0  0  0  0  0
    1.5329    1.2756    0.0000 C   0  0  0  0  0  0  0  0  0
    2.2474    0.8631    0.0000 C   0  0  0  0  0  0  0  0  0
    2.2474    0.0381    0.0000 C   0  0  0  0  0  0  0  0  0
    1.5329   -0.3744    0.0000 C   0  0  0  0  0  0  0  0  0
    2.9618    1.2756    0.0000 C   0  0  0  0  0  0  0  0  0
    2.9618    2.1006    0.0000 O   0  0  0  0  0  0  0  0  0
    3.6763    0.8631    0.0000 C   0  0  0  0  0  0  0  0  0
    4.3908    1.2756    0.0000 C   0  0  0  0  0  0  0  0  0
    5.1052    0.8631    0.0000 C   0  0  0  0  0  0  0  0  0
    5.1052    0.0381    0.0000 C   0  0  0  0  0  0  0  0  0
    4.3908   -0.3744    0.0000 C   0  0  0  0  0  0  0  0  0
    3.6763    0.0381    0.0000 C   0  0  0  0  0  0  0  0  0
    0.0338    1.1180    0.0000 C   0  0  0  0  0  0  0  0  0
   -0.4511    0.4506    0.0000 C   0  0  0  0  0  0  0  0  0
   -1.2761    0.4506    0.0000 C   0  0  0  0  0  0  0  0  0
   -1.6886   -0.2639    0.0000 C   0  0  0  0  0  0  0  0  0
   -2.5136   -0.2639    0.0000 N   0  0  0  0  0  0  0  0  0
   -2.9986   -0.9313    0.0000 C   0  0  0  0  0  0  0  0  0
   -3.7832   -0.6764    0.0000 C   0  0  0  0  0  0  0  0  0
   -3.7832    0.1486    0.0000 C   0  0  0  0  0  0  0  0  0
   -2.9986    0.4035    0.0000 C   0  0  0  0  0  0  0  0  0
   -2.7436    1.1882    0.0000 C   0  0  0  0  0  0  0  0  0
  1  2  4  0  0  0  0
  1 17  4  0  0  0  0
  2  3  4  0  0  0  0
  2  7  4  0  0  0  0
  3  4  4  0  0  0  0
  3 16  4  0  0  0  0
  4  5  4  0  0  0  0
  5  6  4  0  0  0  0
  5  8  1  0  0  0  0
  6  7  4  0  0  0  0
  8  9  2  0  0  0  0
  8 10  1  0  0  0  0
 10 11  4  0  0  0  0
 10 15  4  0  0  0  0
 11 12  4  0  0  0  0
 12 13  4  0  0  0  0
 13 14  4  0  0  0  0
 14 15  4  0  0  0  0
 16 17  4  0  0  0  0
 17 18  1  0  0  0  0
 18 19  1  0  0  0  0
 19 20  1  0  0  0  0
 20 21  1  0  0  0  0
 20 24  1  0  0  0  0
 21 22  1  0  0  0  0
 22 23  1  0  0  0  0
 23 24  1  0  0  0  0
 24 25  1  0  0  0  0
M  END
>  <Name_Molregno>
299435

>  <HISTAMINE H3>
9.66

$$$$
299437
  Marvin  02231216192D 0   1.00000     0.00000     0

 25 28  0  0  1  0  0  0  0  0999 V2000
    0.1973   -0.4707    0.0000 O   0  0  0  0  0  0  0  0  0
    0.9819   -0.2158    0.0000 C   0  0  0  0  0  0  0  0  0
    0.9819    0.6092    0.0000 C   0  0  0  0  0  0  0  0  0
    1.6964    1.0217    0.0000 C   0  0  0  0  0  0  0  0  0
    2.4109    0.6092    0.0000 C   0  0  0  0  0  0  0  0  0
    2.4109   -0.2158    0.0000 C   0  0  0  0  0  0  0  0  0
    1.6964   -0.6283    0.0000 C   0  0  0  0  0  0  0  0  0
    3.1254    1.0217    0.0000 C   0  0  0  0  0  0  0  0  0
    3.1254    1.8467    0.0000 C   0  0  0  0  0  0  0  0  0
    3.8398    2.2592    0.0000 C   0  0  0  0  0  0  0  0  0
    4.5543    1.8467    0.0000 C   0  0  0  0  0  0  0  0  0
    4.5543    1.0217    0.0000 C   0  0  0  0  0  0  0  0  0
    3.8398    0.6092    0.0000 C   0  0  0  0  0  0  0  0  0
    3.8398    3.0842    0.0000 C   0  0  0  0  0  0  0  0  0
    3.8398    3.9092    0.0000 N   0  0  0  0  0  0  0  0  0
    0.1973    0.8642    0.0000 C   0  0  0  0  0  0  0  0  0
   -0.2876    0.1967    0.0000 C   0  0  0  0  0  0  0  0  0
   -1.1126    0.1967    0.0000 C   0  0  0  0  0  0  0  0  0
   -1.5251   -0.5177    0.0000 C   0  0  0  0  0  0  0  0  0
   -2.3501   -0.5177    0.0000 N   0  0  0  0  0  0  0  0  0
   -2.8350   -1.1852    0.0000 C   0  0  0  0  0  0  0  0  0
   -3.6196   -0.9302    0.0000 C   0  0  0  0  0  0  0  0  0
   -3.6196   -0.1052    0.0000 C   0  0  0  0  0  0  0  0  0
   -2.8350    0.1497    0.0000 C   0  0  0  0  0  0  0  0  0
   -2.5801    0.9343    0.0000 C   0  0  0  0  0  0  0  0  0
  1  2  4  0  0  0  0
  1 17  4  0  0  0  0
  2  3  4  0  0  0  0
  2  7  4  0  0  0  0
  3  4  4  0  0  0  0
  3 16  4  0  0  0  0
  4  5  4  0  0  0  0
  5  6  4  0  0  0  0
  5  8  1  0  0  0  0
  6  7  4  0  0  0  0
  8  9  4  0  0  0  0
  8 13  4  0  0  0  0
  9 10  4  0  0  0  0
 10 11  4  0  0  0  0
 10 14  1  0  0  0  0
 11 12  4  0  0  0  0
 12 13  4  0  0  0  0
 14 15  3  0  0  0  0
 16 17  4  0  0  0  0
 17 18  1  0  0  0  0
 18 19  1  0  0  0  0
 19 20  1  0  0  0  0
 20 21  1  0  0  0  0
 20 24  1  0  0  0  0
 21 22  1  0  0  0  0
 22 23  1  0  0  0  0
 23 24  1  0  0  0  0
 24 25  1  0  0  0  0
M  END
>  <Name_Molregno>
299437

>  <HISTAMINE H3>
9.57

$$$$
299448
  Marvin  02231216192D 0   1.00000     0.00000     0

 28 32  0  0  1  0  0  0  0  0999 V2000
    0.2872   -0.8607    0.0000 O   0  0  0  0  0  0  0  0  0
    1.0718   -0.6057    0.0000 C   0  0  0  0  0  0  0  0  0
    1.0718    0.2193    0.0000 C   0  0  0  0  0  0  0  0  0
    1.7863    0.6318    0.0000 C   0  0  0  0  0  0  0  0  0
    2.5008    0.2193    0.0000 C   0  0  0  0  0  0  0  0  0
    2.5008   -0.6057    0.0000 C   0  0  0  0  0  0  0  0  0
    1.7863   -1.0182    0.0000 C   0  0  0  0  0  0  0  0  0
    3.2152    0.6318    0.0000 C   0  0  0  0  0  0  0  0  0
    3.2152    1.4568    0.0000 C   0  0  0  0  0  0  0  0  0
    3.9297    1.8693    0.0000 C   0  0  0  0  0  0  0  0  0
    4.6442    1.4568    0.0000 C   0  0  0  0  0  0  0  0  0
    4.6442    0.6318    0.0000 C   0  0  0  0  0  0  0  0  0
    3.9297    0.2193    0.0000 C   0  0  0  0  0  0  0  0  0
    5.3587    1.8693    0.0000 C   0  0  0  0  0  0  0  0  0
    5.3587    2.6943    0.0000 O   0  0  0  0  0  0  0  0  0
    6.0731    1.4568    0.0000 C   0  0  0  0  0  0  0  0  0
    6.8981    1.4568    0.0000 C   0  0  0  0  0  0  0  0  0
    6.4856    0.7423    0.0000 C   0  0  0  0  0  0  0  0  0
    0.2872    0.4742    0.0000 C   0  0  0  0  0  0  0  0  0
   -0.1977   -0.1932    0.0000 C   0  0  0  0  0  0  0  0  0
   -1.0227   -0.1932    0.0000 C   0  0  0  0  0  0  0  0  0
   -1.4352   -0.9077    0.0000 C   0  0  0  0  0  0  0  0  0
   -2.2602   -0.9077    0.0000 N   0  0  0  0  0  0  0  0  0
   -2.7451   -1.5752    0.0000 C   0  0  0  0  0  0  0  0  0
   -3.5298   -1.3202    0.0000 C   0  0  0  0  0  0  0  0  0
   -3.5298   -0.4952    0.0000 C   0  0  0  0  0  0  0  0  0
   -2.7451   -0.2403    0.0000 C   0  0  0  0  0  0  0  0  0
   -2.4902    0.5443    0.0000 C   0  0  0  0  0  0  0  0  0
  1  2  4  0  0  0  0
  1 20  4  0  0  0  0
  2  3  4  0  0  0  0
  2  7  4  0  0  0  0
  3  4  4  0  0  0  0
  3 19  4  0  0  0  0
  4  5  4  0  0  0  0
  5  6  4  0  0  0  0
  5  8  1  0  0  0  0
  6  7  4  0  0  0  0
  8  9  4  0  0  0  0
  8 13  4  0  0  0  0
  9 10  4  0  0  0  0
 10 11  4  0  0  0  0
 11 12  4  0  0  0  0
 11 14  1  0  0  0  0
 12 13  4  0  0  0  0
 14 15  2  0  0  0  0
 14 16  1  0  0  0  0
 16 17  1  0  0  0  0
 16 18  1  0  0  0  0
 17 18  1  0  0  0  0
 19 20  4  0  0  0  0
 20 21  1  0  0  0  0
 21 22  1  0  0  0  0
 22 23  1  0  0  0  0
 23 24  1  0  0  0  0
 23 27  1  0  0  0  0
 24 25  1  0  0  0  0
 25 26  1  0  0  0  0
 26 27  1  0  0  0  0
 27 28  1  0  0  0  0
M  END
>  <Name_Molregno>
299448

>  <HISTAMINE H3>
9.59

$$$$
299451
  Marvin  02231216192D 0   1.00000     0.00000     0

 20 23  0  0  0  0  0  0  0  0999 V2000
    0.1643   -2.0115    0.0000 Cl  0  0  0  0  0  0  0  0  0
    0.8787   -1.5990    0.0000 C   0  0  0  0  0  0  0  0  0
    1.5932   -2.0115    0.0000 C   0  0  0  0  0  0  0  0  0
    2.3077   -1.5990    0.0000 C   0  0  0  0  0  0  0  0  0
    2.3077   -0.7740    0.0000 C   0  0  0  0  0  0  0  0  0
    3.0222   -0.3615    0.0000 N   0  0  0  0  0  0  0  0  0
    3.7366   -0.7740    0.0000 C   0  0  0  0  0  0  0  0  0
    4.4511   -0.3615    0.0000 N   0  0  0  0  0  0  0  0  0
    4.4511    0.4635    0.0000 C   0  0  0  0  0  0  0  0  0
    5.1656    0.8760    0.0000 C   0  0  0  0  0  0  0  0  0
    5.8800    0.4635    0.0000 N   0  0  0  0  0  0  0  0  0
    5.8800   -0.3615    0.0000 C   0  0  0  0  0  0  0  0  0
    5.1656   -0.7740    0.0000 C   0  0  0  0  0  0  0  0  0
    6.5945    0.8760    0.0000 C   0  0  0  0  0  0  0  0  0
    7.0070    1.5905    0.0000 C   0  0  0  0  0  0  0  0  0
    7.4195    0.8760    0.0000 C   0  0  0  0  0  0  0  0  0
    3.7366   -1.5990    0.0000 C   0  0  0  0  0  0  0  0  0
    3.0222   -2.0115    0.0000 C   0  0  0  0  0  0  0  0  0
    1.5932   -0.3615    0.0000 C   0  0  0  0  0  0  0  0  0
    0.8787   -0.7740    0.0000 C   0  0  0  0  0  0  0  0  0
  1  2  1  0  0  0  0
  2  3  4  0  0  0  0
  2 20  4  0  0  0  0
  3  4  4  0  0  0  0
  4  5  4  0  0  0  0
  4 18  4  0  0  0  0
  5  6  4  0  0  0  0
  5 19  4  0  0  0  0
  6  7  4  0  0  0  0
  7  8  1  0  0  0  0
  7 17  4  0  0  0  0
  8  9  1  0  0  0  0
  8 13  1  0  0  0  0
  9 10  1  0  0  0  0
 10 11  1  0  0  0  0
 11 12  1  0  0  0  0
 11 14  1  0  0  0  0
 12 13  1  0  0  0  0
 14 15  1  0  0  0  0
 14 16  1  0  0  0  0
 15 16  1  0  0  0  0
 17 18  4  0  0  0  0
 19 20  4  0  0  0  0
M  END
>  <Name_Molregno>
299451

>  <HISTAMINE H3>
7.62

$$$$
299455
  Marvin  02231216192D 0   1.00000     0.00000     0

 26 29  0  0  1  0  0  0  0  0999 V2000
    0.3057   -0.6855    0.0000 O   0  0  0  0  0  0  0  0  0
    1.0903   -0.4305    0.0000 C   0  0  0  0  0  0  0  0  0
    1.0903    0.3945    0.0000 C   0  0  0  0  0  0  0  0  0
    1.8048    0.8070    0.0000 C   0  0  0  0  0  0  0  0  0
    2.5192    0.3945    0.0000 C   0  0  0  0  0  0  0  0  0
    2.5192   -0.4305    0.0000 C   0  0  0  0  0  0  0  0  0
    1.8048   -0.8430    0.0000 C   0  0  0  0  0  0  0  0  0
    3.2337    0.8070    0.0000 C   0  0  0  0  0  0  0  0  0
    3.2337    1.6320    0.0000 C   0  0  0  0  0  0  0  0  0
    3.9482    2.0445    0.0000 C   0  0  0  0  0  0  0  0  0
    4.6626    1.6320    0.0000 C   0  0  0  0  0  0  0  0  0
    4.6626    0.8070    0.0000 C   0  0  0  0  0  0  0  0  0
    3.9482    0.3945    0.0000 C   0  0  0  0  0  0  0  0  0
    3.9482    2.8695    0.0000 C   0  0  0  0  0  0  0  0  0
    4.6626    3.2820    0.0000 O   0  0  0  0  0  0  0  0  0
    3.2337    3.2820    0.0000 C   0  0  0  0  0  0  0  0  0
    0.3057    0.6494    0.0000 C   0  0  0  0  0  0  0  0  0
   -0.1793   -0.0180    0.0000 C   0  0  0  0  0  0  0  0  0
   -1.0043   -0.0180    0.0000 C   0  0  0  0  0  0  0  0  0
   -1.4168   -0.7325    0.0000 C   0  0  0  0  0  0  0  0  0
   -2.2418   -0.7325    0.0000 N   0  0  0  0  0  0  0  0  0
   -2.7267   -1.4000    0.0000 C   0  0  0  0  0  0  0  0  0
   -3.5113   -1.1450    0.0000 C   0  0  0  0  0  0  0  0  0
   -3.5113   -0.3200    0.0000 C   0  0  0  0  0  0  0  0  0
   -2.7267   -0.0651    0.0000 C   0  0  0  0  0  0  0  0  0
   -2.4717    0.7195    0.0000 C   0  0  0  0  0  0  0  0  0
  1  2  4  0  0  0  0
  1 18  4  0  0  0  0
  2  3  4  0  0  0  0
  2  7  4  0  0  0  0
  3  4  4  0  0  0  0
  3 17  4  0  0  0  0
  4  5  4  0  0  0  0
  5  6  4  0  0  0  0
  5  8  1  0  0  0  0
  6  7  4  0  0  0  0
  8  9  4  0  0  0  0
  8 13  4  0  0  0  0
  9 10  4  0  0  0  0
 10 11  4  0  0  0  0
 10 14  1  0  0  0  0
 11 12  4  0  0  0  0
 12 13  4  0  0  0  0
 14 15  2  0  0  0  0
 14 16  1  0  0  0  0
 17 18  4  0  0  0  0
 18 19  1  0  0  0  0
 19 20  1  0  0  0  0
 20 21  1  0  0  0  0
 21 22  1  0  0  0  0
 21 25  1  0  0  0  0
 22 23  1  0  0  0  0
 23 24  1  0  0  0  0
 24 25  1  0  0  0  0
 25 26  1  0  0  0  0
M  END
>  <Name_Molregno>
299455

>  <HISTAMINE H3>
10.09

$$$$
299456
  Marvin  02231216192D 0   1.00000     0.00000     0

 26 29  0  0  1  0  0  0  0  0999 V2000
    0.0258   -0.2373    0.0000 O   0  0  0  0  0  0  0  0  0
    0.8104    0.0176    0.0000 C   0  0  0  0  0  0  0  0  0
    0.8104    0.8426    0.0000 C   0  0  0  0  0  0  0  0  0
    1.5249    1.2551    0.0000 C   0  0  0  0  0  0  0  0  0
    2.2394    0.8426    0.0000 C   0  0  0  0  0  0  0  0  0
    2.2394    0.0176    0.0000 C   0  0  0  0  0  0  0  0  0
    1.5249   -0.3949    0.0000 C   0  0  0  0  0  0  0  0  0
    2.9539    1.2551    0.0000 C   0  0  0  0  0  0  0  0  0
    2.9539    2.0801    0.0000 O   0  0  0  0  0  0  0  0  0
    3.6683    0.8426    0.0000 C   0  0  0  0  0  0  0  0  0
    4.3828    1.2551    0.0000 C   0  0  0  0  0  0  0  0  0
    5.0973    0.8426    0.0000 C   0  0  0  0  0  0  0  0  0
    5.0973    0.0176    0.0000 C   0  0  0  0  0  0  0  0  0
    4.3828   -0.3949    0.0000 C   0  0  0  0  0  0  0  0  0
    3.6683    0.0176    0.0000 C   0  0  0  0  0  0  0  0  0
    5.8117   -0.3949    0.0000 C   0  0  0  0  0  0  0  0  0
    0.0258    1.0975    0.0000 C   0  0  0  0  0  0  0  0  0
   -0.4591    0.4301    0.0000 C   0  0  0  0  0  0  0  0  0
   -1.2841    0.4301    0.0000 C   0  0  0  0  0  0  0  0  0
   -1.6966   -0.2844    0.0000 C   0  0  0  0  0  0  0  0  0
   -2.5216   -0.2844    0.0000 N   0  0  0  0  0  0  0  0  0
   -3.0065   -0.9518    0.0000 C   0  0  0  0  0  0  0  0  0
   -3.7911   -0.6969    0.0000 C   0  0  0  0  0  0  0  0  0
   -3.7911    0.1281    0.0000 C   0  0  0  0  0  0  0  0  0
   -3.0065    0.3831    0.0000 C   0  0  0  0  0  0  0  0  0
   -2.7516    1.1677    0.0000 C   0  0  0  0  0  0  0  0  0
  1  2  4  0  0  0  0
  1 18  4  0  0  0  0
  2  3  4  0  0  0  0
  2  7  4  0  0  0  0
  3  4  4  0  0  0  0
  3 17  4  0  0  0  0
  4  5  4  0  0  0  0
  5  6  4  0  0  0  0
  5  8  1  0  0  0  0
  6  7  4  0  0  0  0
  8  9  2  0  0  0  0
  8 10  1  0  0  0  0
 10 11  4  0  0  0  0
 10 15  4  0  0  0  0
 11 12  4  0  0  0  0
 12 13  4  0  0  0  0
 13 14  4  0  0  0  0
 13 16  1  0  0  0  0
 14 15  4  0  0  0  0
 17 18  4  0  0  0  0
 18 19  1  0  0  0  0
 19 20  1  0  0  0  0
 20 21  1  0  0  0  0
 21 22  1  0  0  0  0
 21 25  1  0  0  0  0
 22 23  1  0  0  0  0
 23 24  1  0  0  0  0
 24 25  1  0  0  0  0
 25 26  1  0  0  0  0
M  END
>  <Name_Molregno>
299456

>  <HISTAMINE H3>
9.68

$$$$
299457
  Marvin  02231216192D 0   1.00000     0.00000     0

 27 30  0  0  1  0  0  0  0  0999 V2000
    0.0380   -0.1888    0.0000 O   0  0  0  0  0  0  0  0  0
    0.8226    0.0661    0.0000 C   0  0  0  0  0  0  0  0  0
    0.8226    0.8911    0.0000 C   0  0  0  0  0  0  0  0  0
    1.5371    1.3036    0.0000 C   0  0  0  0  0  0  0  0  0
    2.2516    0.8911    0.0000 C   0  0  0  0  0  0  0  0  0
    2.2516    0.0661    0.0000 C   0  0  0  0  0  0  0  0  0
    1.5371   -0.3464    0.0000 C   0  0  0  0  0  0  0  0  0
    2.9660    1.3036    0.0000 C   0  0  0  0  0  0  0  0  0
    2.9660    2.1286    0.0000 O   0  0  0  0  0  0  0  0  0
    3.6805    0.8911    0.0000 C   0  0  0  0  0  0  0  0  0
    4.3950    1.3036    0.0000 C   0  0  0  0  0  0  0  0  0
    5.1095    0.8911    0.0000 C   0  0  0  0  0  0  0  0  0
    5.1095    0.0661    0.0000 C   0  0  0  0  0  0  0  0  0
    5.8239   -0.3464    0.0000 O   0  0  0  0  0  0  0  0  0
    5.8239   -1.1714    0.0000 C   0  0  0  0  0  0  0  0  0
    4.3950   -0.3464    0.0000 C   0  0  0  0  0  0  0  0  0
    3.6805    0.0661    0.0000 C   0  0  0  0  0  0  0  0  0
    0.0380    1.1461    0.0000 C   0  0  0  0  0  0  0  0  0
   -0.4469    0.4786    0.0000 C   0  0  0  0  0  0  0  0  0
   -1.2719    0.4786    0.0000 C   0  0  0  0  0  0  0  0  0
   -1.6844   -0.2358    0.0000 C   0  0  0  0  0  0  0  0  0
   -2.5094   -0.2358    0.0000 N   0  0  0  0  0  0  0  0  0
   -2.9943   -0.9033    0.0000 C   0  0  0  0  0  0  0  0  0
   -3.7790   -0.6483    0.0000 C   0  0  0  0  0  0  0  0  0
   -3.7790    0.1767    0.0000 C   0  0  0  0  0  0  0  0  0
   -2.9943    0.4316    0.0000 C   0  0  0  0  0  0  0  0  0
   -2.7394    1.2162    0.0000 C   0  0  0  0  0  0  0  0  0
  1  2  4  0  0  0  0
  1 19  4  0  0  0  0
  2  3  4  0  0  0  0
  2  7  4  0  0  0  0
  3  4  4  0  0  0  0
  3 18  4  0  0  0  0
  4  5  4  0  0  0  0
  5  6  4  0  0  0  0
  5  8  1  0  0  0  0
  6  7  4  0  0  0  0
  8  9  2  0  0  0  0
  8 10  1  0  0  0  0
 10 11  4  0  0  0  0
 10 17  4  0  0  0  0
 11 12  4  0  0  0  0
 12 13  4  0  0  0  0
 13 14  1  0  0  0  0
 13 16  4  0  0  0  0
 14 15  1  0  0  0  0
 16 17  4  0  0  0  0
 18 19  4  0  0  0  0
 19 20  1  0  0  0  0
 20 21  1  0  0  0  0
 21 22  1  0  0  0  0
 22 23  1  0  0  0  0
 22 26  1  0  0  0  0
 23 24  1  0  0  0  0
 24 25  1  0  0  0  0
 25 26  1  0  0  0  0
 26 27  1  0  0  0  0
M  END
>  <Name_Molregno>
299457

>  <HISTAMINE H3>
9.28

$$$$
299458
  Marvin  02231216192D 0   1.00000     0.00000     0

 20 23  0  0  0  0  0  0  0  0999 V2000
   -7.1031   -0.0157    0.0000 Cl  0  0  0  0  0  0  0  0  0
   -6.3887   -0.4282    0.0000 C   0  0  0  0  0  0  0  0  0
   -5.6742   -0.0157    0.0000 C   0  0  0  0  0  0  0  0  0
   -4.9597   -0.4282    0.0000 C   0  0  0  0  0  0  0  0  0
   -4.2452   -0.0157    0.0000 N   0  0  0  0  0  0  0  0  0
   -3.5308   -0.4282    0.0000 C   0  0  0  0  0  0  0  0  0
   -2.8163   -0.0157    0.0000 N   0  0  0  0  0  0  0  0  0
   -2.8163    0.8093    0.0000 C   0  0  0  0  0  0  0  0  0
   -2.1018    1.2218    0.0000 C   0  0  0  0  0  0  0  0  0
   -1.3874    0.8093    0.0000 N   0  0  0  0  0  0  0  0  0
   -1.3874   -0.0157    0.0000 C   0  0  0  0  0  0  0  0  0
   -2.1018   -0.4282    0.0000 C   0  0  0  0  0  0  0  0  0
   -0.6729    1.2218    0.0000 C   0  0  0  0  0  0  0  0  0
   -0.2604    1.9363    0.0000 C   0  0  0  0  0  0  0  0  0
    0.1521    1.2218    0.0000 C   0  0  0  0  0  0  0  0  0
   -3.5308   -1.2532    0.0000 C   0  0  0  0  0  0  0  0  0
   -4.2452   -1.6657    0.0000 C   0  0  0  0  0  0  0  0  0
   -4.9597   -1.2532    0.0000 C   0  0  0  0  0  0  0  0  0
   -5.6742   -1.6657    0.0000 C   0  0  0  0  0  0  0  0  0
   -6.3887   -1.2532    0.0000 C   0  0  0  0  0  0  0  0  0
  1  2  1  0  0  0  0
  2  3  4  0  0  0  0
  2 20  4  0  0  0  0
  3  4  4  0  0  0  0
  4  5  4  0  0  0  0
  4 18  4  0  0  0  0
  5  6  4  0  0  0  0
  6  7  1  0  0  0  0
  6 16  4  0  0  0  0
  7  8  1  0  0  0  0
  7 12  1  0  0  0  0
  8  9  1  0  0  0  0
  9 10  1  0  0  0  0
 10 11  1  0  0  0  0
 10 13  1  0  0  0  0
 11 12  1  0  0  0  0
 13 14  1  0  0  0  0
 13 15  1  0  0  0  0
 14 15  1  0  0  0  0
 16 17  4  0  0  0  0
 17 18  4  0  0  0  0
 18 19  4  0  0  0  0
 19 20  4  0  0  0  0
M  END
>  <Name_Molregno>
299458

>  <HISTAMINE H3>
6.49

$$$$
299464
  Marvin  02231216192D 0   1.00000     0.00000     0

 27 30  0  0  1  0  0  0  0  0999 V2000
    0.2845   -0.6615    0.0000 O   0  0  0  0  0  0  0  0  0
    1.0691   -0.4065    0.0000 C   0  0  0  0  0  0  0  0  0
    1.0691    0.4185    0.0000 C   0  0  0  0  0  0  0  0  0
    1.7836    0.8310    0.0000 C   0  0  0  0  0  0  0  0  0
    2.4980    0.4185    0.0000 C   0  0  0  0  0  0  0  0  0
    2.4980   -0.4065    0.0000 C   0  0  0  0  0  0  0  0  0
    1.7836   -0.8190    0.0000 C   0  0  0  0  0  0  0  0  0
    3.2125    0.8310    0.0000 C   0  0  0  0  0  0  0  0  0
    3.2125    1.6560    0.0000 C   0  0  0  0  0  0  0  0  0
    3.9270    2.0685    0.0000 C   0  0  0  0  0  0  0  0  0
    4.6415    1.6560    0.0000 C   0  0  0  0  0  0  0  0  0
    4.6415    0.8310    0.0000 C   0  0  0  0  0  0  0  0  0
    3.9270    0.4185    0.0000 C   0  0  0  0  0  0  0  0  0
    3.9270    2.8935    0.0000 C   0  0  0  0  0  0  0  0  0
    3.9270    3.7185    0.0000 O   0  0  0  0  0  0  0  0  0
    3.1020    2.8935    0.0000 C   0  0  0  0  0  0  0  0  0
    4.7520    2.8935    0.0000 C   0  0  0  0  0  0  0  0  0
    0.2845    0.6734    0.0000 C   0  0  0  0  0  0  0  0  0
   -0.2004    0.0060    0.0000 C   0  0  0  0  0  0  0  0  0
   -1.0254    0.0060    0.0000 C   0  0  0  0  0  0  0  0  0
   -1.4379   -0.7085    0.0000 C   0  0  0  0  0  0  0  0  0
   -2.2629   -0.7085    0.0000 N   0  0  0  0  0  0  0  0  0
   -2.7479   -1.3760    0.0000 C   0  0  0  0  0  0  0  0  0
   -3.5325   -1.1210    0.0000 C   0  0  0  0  0  0  0  0  0
   -3.5325   -0.2960    0.0000 C   0  0  0  0  0  0  0  0  0
   -2.7479   -0.0411    0.0000 C   0  0  0  0  0  0  0  0  0
   -2.4929    0.7435    0.0000 C   0  0  0  0  0  0  0  0  0
  1  2  4  0  0  0  0
  1 19  4  0  0  0  0
  2  3  4  0  0  0  0
  2  7  4  0  0  0  0
  3  4  4  0  0  0  0
  3 18  4  0  0  0  0
  4  5  4  0  0  0  0
  5  6  4  0  0  0  0
  5  8  1  0  0  0  0
  6  7  4  0  0  0  0
  8  9  4  0  0  0  0
  8 13  4  0  0  0  0
  9 10  4  0  0  0  0
 10 11  4  0  0  0  0
 10 14  1  0  0  0  0
 11 12  4  0  0  0  0
 12 13  4  0  0  0  0
 14 15  1  0  0  0  0
 14 16  1  0  0  0  0
 14 17  1  0  0  0  0
 18 19  4  0  0  0  0
 19 20  1  0  0  0  0
 20 21  1  0  0  0  0
 21 22  1  0  0  0  0
 22 23  1  0  0  0  0
 22 26  1  0  0  0  0
 23 24  1  0  0  0  0
 24 25  1  0  0  0  0
 25 26  1  0  0  0  0
 26 27  1  0  0  0  0
M  END
>  <Name_Molregno>
299464

>  <HISTAMINE H3>
9.61

$$$$
299470
  Marvin  02231216192D 0   1.00000     0.00000     0

 26 29  0  0  1  0  0  0  0  0999 V2000
    5.8882    1.2517    0.0000 F   0  0  0  0  0  0  0  0  0
    6.6027    0.8392    0.0000 C   0  0  0  0  0  0  0  0  0
    7.3171    1.2517    0.0000 C   0  0  0  0  0  0  0  0  0
    8.0316    0.8392    0.0000 C   0  0  0  0  0  0  0  0  0
    8.0316    0.0142    0.0000 C   0  0  0  0  0  0  0  0  0
    7.3171   -0.3983    0.0000 C   0  0  0  0  0  0  0  0  0
    6.6027    0.0142    0.0000 C   0  0  0  0  0  0  0  0  0
    5.8882   -0.3983    0.0000 C   0  0  0  0  0  0  0  0  0
    5.8882   -1.2233    0.0000 O   0  0  0  0  0  0  0  0  0
    5.1737    0.0142    0.0000 C   0  0  0  0  0  0  0  0  0
    4.4593   -0.3983    0.0000 C   0  0  0  0  0  0  0  0  0
    3.7448    0.0142    0.0000 C   0  0  0  0  0  0  0  0  0
    2.9602   -0.2408    0.0000 C   0  0  0  0  0  0  0  0  0
    2.4752    0.4267    0.0000 C   0  0  0  0  0  0  0  0  0
    2.9602    1.0941    0.0000 O   0  0  0  0  0  0  0  0  0
    3.7448    0.8392    0.0000 C   0  0  0  0  0  0  0  0  0
    4.4593    1.2517    0.0000 C   0  0  0  0  0  0  0  0  0
    5.1737    0.8392    0.0000 C   0  0  0  0  0  0  0  0  0
    1.6502    0.4267    0.0000 C   0  0  0  0  0  0  0  0  0
    1.2377   -0.2878    0.0000 C   0  0  0  0  0  0  0  0  0
    0.4127   -0.2878    0.0000 N   0  0  0  0  0  0  0  0  0
   -0.0722   -0.9552    0.0000 C   0  0  0  0  0  0  0  0  0
   -0.8568   -0.7003    0.0000 C   0  0  0  0  0  0  0  0  0
   -0.8568    0.1247    0.0000 C   0  0  0  0  0  0  0  0  0
   -0.0722    0.3796    0.0000 C   0  0  0  0  0  0  0  0  0
    0.1828    1.1642    0.0000 C   0  0  0  0  0  0  0  0  0
  1  2  1  0  0  0  0
  2  3  4  0  0  0  0
  2  7  4  0  0  0  0
  3  4  4  0  0  0  0
  4  5  4  0  0  0  0
  5  6  4  0  0  0  0
  6  7  4  0  0  0  0
  7  8  1  0  0  0  0
  8  9  2  0  0  0  0
  8 10  1  0  0  0  0
 10 11  4  0  0  0  0
 10 18  4  0  0  0  0
 11 12  4  0  0  0  0
 12 13  4  0  0  0  0
 12 16  4  0  0  0  0
 13 14  4  0  0  0  0
 14 15  4  0  0  0  0
 14 19  1  0  0  0  0
 15 16  4  0  0  0  0
 16 17  4  0  0  0  0
 17 18  4  0  0  0  0
 19 20  1  0  0  0  0
 20 21  1  0  0  0  0
 21 22  1  0  0  0  0
 21 25  1  0  0  0  0
 22 23  1  0  0  0  0
 23 24  1  0  0  0  0
 24 25  1  0  0  0  0
 25 26  1  0  0  0  0
M  END
>  <Name_Molregno>
299470

>  <HISTAMINE H3>
9.29

$$$$
299473
  Marvin  02231216192D 0   1.00000     0.00000     0

 21 24  0  0  0  0  0  0  0  0999 V2000
    0.7885   -3.2358    0.0000 Cl  0  0  0  0  0  0  0  0  0
    0.7885   -2.4108    0.0000 C   0  0  0  0  0  0  0  0  0
    0.0740   -1.9983    0.0000 C   0  0  0  0  0  0  0  0  0
    0.0740   -1.1733    0.0000 C   0  0  0  0  0  0  0  0  0
   -0.6405   -0.7608    0.0000 Cl  0  0  0  0  0  0  0  0  0
    0.7885   -0.7608    0.0000 C   0  0  0  0  0  0  0  0  0
    1.5029   -1.1733    0.0000 C   0  0  0  0  0  0  0  0  0
    2.2174   -0.7608    0.0000 N   0  0  0  0  0  0  0  0  0
    2.9319   -1.1733    0.0000 C   0  0  0  0  0  0  0  0  0
    3.6464   -0.7608    0.0000 N   0  0  0  0  0  0  0  0  0
    3.6464    0.0642    0.0000 C   0  0  0  0  0  0  0  0  0
    4.3608    0.4767    0.0000 C   0  0  0  0  0  0  0  0  0
    5.0753    0.0642    0.0000 N   0  0  0  0  0  0  0  0  0
    5.0753   -0.7608    0.0000 C   0  0  0  0  0  0  0  0  0
    4.3608   -1.1733    0.0000 C   0  0  0  0  0  0  0  0  0
    5.7898    0.4767    0.0000 C   0  0  0  0  0  0  0  0  0
    6.2023    1.1911    0.0000 C   0  0  0  0  0  0  0  0  0
    6.6148    0.4767    0.0000 C   0  0  0  0  0  0  0  0  0
    2.9319   -1.9983    0.0000 C   0  0  0  0  0  0  0  0  0
    2.2174   -2.4108    0.0000 C   0  0  0  0  0  0  0  0  0
    1.5029   -1.9983    0.0000 C   0  0  0  0  0  0  0  0  0
  1  2  1  0  0  0  0
  2  3  4  0  0  0  0
  2 21  4  0  0  0  0
  3  4  4  0  0  0  0
  4  5  1  0  0  0  0
  4  6  4  0  0  0  0
  6  7  4  0  0  0  0
  7  8  4  0  0  0  0
  7 21  4  0  0  0  0
  8  9  4  0  0  0  0
  9 10  1  0  0  0  0
  9 19  4  0  0  0  0
 10 11  1  0  0  0  0
 10 15  1  0  0  0  0
 11 12  1  0  0  0  0
 12 13  1  0  0  0  0
 13 14  1  0  0  0  0
 13 16  1  0  0  0  0
 14 15  1  0  0  0  0
 16 17  1  0  0  0  0
 16 18  1  0  0  0  0
 17 18  1  0  0  0  0
 19 20  4  0  0  0  0
 20 21  4  0  0  0  0
M  END
>  <Name_Molregno>
299473

>  <HISTAMINE H3>
6.52

$$$$
299474
  Marvin  02231216192D 0   1.00000     0.00000     0

 21 24  0  0  0  0  0  0  0  0999 V2000
   -6.9614   -1.0237    0.0000 O   0  0  0  0  0  0  0  0  0
   -7.6758   -0.6112    0.0000 C   0  0  0  0  0  0  0  0  0
   -6.2469   -0.6112    0.0000 C   0  0  0  0  0  0  0  0  0
   -5.5324   -1.0237    0.0000 C   0  0  0  0  0  0  0  0  0
   -4.8180   -0.6112    0.0000 C   0  0  0  0  0  0  0  0  0
   -4.8180    0.2138    0.0000 C   0  0  0  0  0  0  0  0  0
   -4.1035    0.6263    0.0000 N   0  0  0  0  0  0  0  0  0
   -3.3890    0.2138    0.0000 C   0  0  0  0  0  0  0  0  0
   -2.6745    0.6263    0.0000 N   0  0  0  0  0  0  0  0  0
   -2.6745    1.4513    0.0000 C   0  0  0  0  0  0  0  0  0
   -1.9601    1.8638    0.0000 C   0  0  0  0  0  0  0  0  0
   -1.2456    1.4513    0.0000 N   0  0  0  0  0  0  0  0  0
   -1.2456    0.6263    0.0000 C   0  0  0  0  0  0  0  0  0
   -1.9601    0.2138    0.0000 C   0  0  0  0  0  0  0  0  0
   -0.5311    1.8638    0.0000 C   0  0  0  0  0  0  0  0  0
   -0.1186    2.5783    0.0000 C   0  0  0  0  0  0  0  0  0
    0.2939    1.8638    0.0000 C   0  0  0  0  0  0  0  0  0
   -3.3890   -0.6112    0.0000 C   0  0  0  0  0  0  0  0  0
   -4.1035   -1.0237    0.0000 C   0  0  0  0  0  0  0  0  0
   -5.5324    0.6263    0.0000 C   0  0  0  0  0  0  0  0  0
   -6.2469    0.2138    0.0000 C   0  0  0  0  0  0  0  0  0
  1  2  1  0  0  0  0
  1  3  1  0  0  0  0
  3  4  4  0  0  0  0
  3 21  4  0  0  0  0
  4  5  4  0  0  0  0
  5  6  4  0  0  0  0
  5 19  4  0  0  0  0
  6  7  4  0  0  0  0
  6 20  4  0  0  0  0
  7  8  4  0  0  0  0
  8  9  1  0  0  0  0
  8 18  4  0  0  0  0
  9 10  1  0  0  0  0
  9 14  1  0  0  0  0
 10 11  1  0  0  0  0
 11 12  1  0  0  0  0
 12 13  1  0  0  0  0
 12 15  1  0  0  0  0
 13 14  1  0  0  0  0
 15 16  1  0  0  0  0
 15 17  1  0  0  0  0
 16 17  1  0  0  0  0
 18 19  4  0  0  0  0
 20 21  4  0  0  0  0
M  END
>  <Name_Molregno>
299474

>  <HISTAMINE H3>
8.52

$$$$
299479
  Marvin  02231216192D 0   1.00000     0.00000     0

 26 29  0  0  1  0  0  0  0  0999 V2000
    0.3057   -0.6855    0.0000 O   0  0  0  0  0  0  0  0  0
    1.0903   -0.4305    0.0000 C   0  0  0  0  0  0  0  0  0
    1.0903    0.3945    0.0000 C   0  0  0  0  0  0  0  0  0
    1.8048    0.8070    0.0000 C   0  0  0  0  0  0  0  0  0
    2.5192    0.3945    0.0000 C   0  0  0  0  0  0  0  0  0
    2.5192   -0.4305    0.0000 C   0  0  0  0  0  0  0  0  0
    1.8048   -0.8430    0.0000 C   0  0  0  0  0  0  0  0  0
    3.2337    0.8070    0.0000 C   0  0  0  0  0  0  0  0  0
    3.2337    1.6320    0.0000 C   0  0  0  0  0  0  0  0  0
    3.9482    2.0445    0.0000 C   0  0  0  0  0  0  0  0  0
    4.6626    1.6320    0.0000 C   0  0  0  0  0  0  0  0  0
    4.6626    0.8070    0.0000 C   0  0  0  0  0  0  0  0  0
    3.9482    0.3945    0.0000 C   0  0  0  0  0  0  0  0  0
    3.9482    2.8695    0.0000 C   0  0  0  0  0  0  0  0  0
    4.6626    3.2820    0.0000 O   0  0  0  0  0  0  0  0  0
    3.2337    3.2820    0.0000 C   0  0  0  0  0  0  0  0  0
    0.3057    0.6494    0.0000 C   0  0  0  0  0  0  0  0  0
   -0.1793   -0.0180    0.0000 C   0  0  0  0  0  0  0  0  0
   -1.0043   -0.0180    0.0000 C   0  0  0  0  0  0  0  0  0
   -1.4168   -0.7325    0.0000 C   0  0  0  0  0  0  0  0  0
   -2.2418   -0.7325    0.0000 N   0  0  0  0  0  0  0  0  0
   -2.7267   -1.4000    0.0000 C   0  0  0  0  0  0  0  0  0
   -3.5113   -1.1450    0.0000 C   0  0  0  0  0  0  0  0  0
   -3.5113   -0.3200    0.0000 C   0  0  0  0  0  0  0  0  0
   -2.7267   -0.0651    0.0000 C   0  0  0  0  0  0  0  0  0
   -2.4717    0.7195    0.0000 C   0  0  0  0  0  0  0  0  0
  1  2  4  0  0  0  0
  1 18  4  0  0  0  0
  2  3  4  0  0  0  0
  2  7  4  0  0  0  0
  3  4  4  0  0  0  0
  3 17  4  0  0  0  0
  4  5  4  0  0  0  0
  5  6  4  0  0  0  0
  5  8  1  0  0  0  0
  6  7  4  0  0  0  0
  8  9  4  0  0  0  0
  8 13  4  0  0  0  0
  9 10  4  0  0  0  0
 10 11  4  0  0  0  0
 10 14  1  0  0  0  0
 11 12  4  0  0  0  0
 12 13  4  0  0  0  0
 14 15  1  0  0  0  0
 14 16  1  0  0  0  0
 17 18  4  0  0  0  0
 18 19  1  0  0  0  0
 19 20  1  0  0  0  0
 20 21  1  0  0  0  0
 21 22  1  0  0  0  0
 21 25  1  0  0  0  0
 22 23  1  0  0  0  0
 23 24  1  0  0  0  0
 24 25  1  0  0  0  0
 25 26  1  0  0  0  0
M  END
>  <Name_Molregno>
299479

>  <HISTAMINE H3>
9.36

$$$$
299480
  Marvin  02231216192D 0   1.00000     0.00000     0

 25 28  0  0  1  0  0  0  0  0999 V2000
    0.1728   -0.4228    0.0000 O   0  0  0  0  0  0  0  0  0
    0.9574   -0.1679    0.0000 C   0  0  0  0  0  0  0  0  0
    0.9574    0.6571    0.0000 C   0  0  0  0  0  0  0  0  0
    1.6719    1.0696    0.0000 C   0  0  0  0  0  0  0  0  0
    2.3863    0.6571    0.0000 C   0  0  0  0  0  0  0  0  0
    2.3863   -0.1679    0.0000 C   0  0  0  0  0  0  0  0  0
    1.6719   -0.5804    0.0000 C   0  0  0  0  0  0  0  0  0
    3.1008    1.0696    0.0000 C   0  0  0  0  0  0  0  0  0
    3.1008    1.8946    0.0000 C   0  0  0  0  0  0  0  0  0
    3.8153    2.3071    0.0000 C   0  0  0  0  0  0  0  0  0
    4.5297    1.8946    0.0000 C   0  0  0  0  0  0  0  0  0
    4.5297    1.0696    0.0000 C   0  0  0  0  0  0  0  0  0
    3.8153    0.6571    0.0000 C   0  0  0  0  0  0  0  0  0
    3.8153    3.1321    0.0000 C   0  0  0  0  0  0  0  0  0
    4.5297    3.5446    0.0000 O   0  0  0  0  0  0  0  0  0
    0.1728    0.9121    0.0000 C   0  0  0  0  0  0  0  0  0
   -0.3121    0.2446    0.0000 C   0  0  0  0  0  0  0  0  0
   -1.1371    0.2446    0.0000 C   0  0  0  0  0  0  0  0  0
   -1.5496   -0.4699    0.0000 C   0  0  0  0  0  0  0  0  0
   -2.3746   -0.4699    0.0000 N   0  0  0  0  0  0  0  0  0
   -2.8596   -1.1373    0.0000 C   0  0  0  0  0  0  0  0  0
   -3.6442   -0.8824    0.0000 C   0  0  0  0  0  0  0  0  0
   -3.6442   -0.0574    0.0000 C   0  0  0  0  0  0  0  0  0
   -2.8596    0.1976    0.0000 C   0  0  0  0  0  0  0  0  0
   -2.6046    0.9822    0.0000 C   0  0  0  0  0  0  0  0  0
  1  2  4  0  0  0  0
  1 17  4  0  0  0  0
  2  3  4  0  0  0  0
  2  7  4  0  0  0  0
  3  4  4  0  0  0  0
  3 16  4  0  0  0  0
  4  5  4  0  0  0  0
  5  6  4  0  0  0  0
  5  8  1  0  0  0  0
  6  7  4  0  0  0  0
  8  9  4  0  0  0  0
  8 13  4  0  0  0  0
  9 10  4  0  0  0  0
 10 11  4  0  0  0  0
 10 14  1  0  0  0  0
 11 12  4  0  0  0  0
 12 13  4  0  0  0  0
 14 15  1  0  0  0  0
 16 17  4  0  0  0  0
 17 18  1  0  0  0  0
 18 19  1  0  0  0  0
 19 20  1  0  0  0  0
 20 21  1  0  0  0  0
 20 24  1  0  0  0  0
 21 22  1  0  0  0  0
 22 23  1  0  0  0  0
 23 24  1  0  0  0  0
 24 25  1  0  0  0  0
M  END
>  <Name_Molregno>
299480

>  <HISTAMINE H3>
9.31

$$$$
299481
  Marvin  02231216192D 0   1.00000     0.00000     0

 28 31  0  0  1  0  0  0  0  0999 V2000
   -0.0083   -0.2041    0.0000 O   0  0  0  0  0  0  0  0  0
    0.7763    0.0508    0.0000 C   0  0  0  0  0  0  0  0  0
    0.7763    0.8758    0.0000 C   0  0  0  0  0  0  0  0  0
    1.4908    1.2883    0.0000 C   0  0  0  0  0  0  0  0  0
    2.2053    0.8758    0.0000 C   0  0  0  0  0  0  0  0  0
    2.2053    0.0508    0.0000 C   0  0  0  0  0  0  0  0  0
    1.4908   -0.3617    0.0000 C   0  0  0  0  0  0  0  0  0
    2.9197    1.2883    0.0000 C   0  0  0  0  0  0  0  0  0
    2.9197    2.1133    0.0000 O   0  0  0  0  0  0  0  0  0
    3.6342    0.8758    0.0000 C   0  0  0  0  0  0  0  0  0
    4.3487    1.2883    0.0000 C   0  0  0  0  0  0  0  0  0
    5.0631    0.8758    0.0000 C   0  0  0  0  0  0  0  0  0
    5.0631    0.0508    0.0000 C   0  0  0  0  0  0  0  0  0
    5.7776   -0.3617    0.0000 N   0  0  0  0  0  0  0  0  0
    5.7776   -1.1867    0.0000 C   0  0  0  0  0  0  0  0  0
    6.4921    0.0508    0.0000 C   0  0  0  0  0  0  0  0  0
    4.3487   -0.3617    0.0000 C   0  0  0  0  0  0  0  0  0
    3.6342    0.0508    0.0000 C   0  0  0  0  0  0  0  0  0
   -0.0083    1.1308    0.0000 C   0  0  0  0  0  0  0  0  0
   -0.4932    0.4633    0.0000 C   0  0  0  0  0  0  0  0  0
   -1.3182    0.4633    0.0000 C   0  0  0  0  0  0  0  0  0
   -1.7307   -0.2511    0.0000 C   0  0  0  0  0  0  0  0  0
   -2.5557   -0.2511    0.0000 N   0  0  0  0  0  0  0  0  0
   -3.0407   -0.9186    0.0000 C   0  0  0  0  0  0  0  0  0
   -3.8253   -0.6636    0.0000 C   0  0  0  0  0  0  0  0  0
   -3.8253    0.1614    0.0000 C   0  0  0  0  0  0  0  0  0
   -3.0407    0.4163    0.0000 C   0  0  0  0  0  0  0  0  0
   -2.7857    1.2009    0.0000 C   0  0  0  0  0  0  0  0  0
  1  2  4  0  0  0  0
  1 20  4  0  0  0  0
  2  3  4  0  0  0  0
  2  7  4  0  0  0  0
  3  4  4  0  0  0  0
  3 19  4  0  0  0  0
  4  5  4  0  0  0  0
  5  6  4  0  0  0  0
  5  8  1  0  0  0  0
  6  7  4  0  0  0  0
  8  9  2  0  0  0  0
  8 10  1  0  0  0  0
 10 11  4  0  0  0  0
 10 18  4  0  0  0  0
 11 12  4  0  0  0  0
 12 13  4  0  0  0  0
 13 14  1  0  0  0  0
 13 17  4  0  0  0  0
 14 15  1  0  0  0  0
 14 16  1  0  0  0  0
 17 18  4  0  0  0  0
 19 20  4  0  0  0  0
 20 21  1  0  0  0  0
 21 22  1  0  0  0  0
 22 23  1  0  0  0  0
 23 24  1  0  0  0  0
 23 27  1  0  0  0  0
 24 25  1  0  0  0  0
 25 26  1  0  0  0  0
 26 27  1  0  0  0  0
 27 28  1  0  0  0  0
M  END
>  <Name_Molregno>
299481

>  <HISTAMINE H3>
9.28

$$$$
299482
  Marvin  02231216192D 0   1.00000     0.00000     0

 27 30  0  0  1  0  0  0  0  0999 V2000
    8.3188   -1.9173    0.0000 F   0  0  0  0  0  0  0  0  0
    7.6044   -2.3298    0.0000 C   0  0  0  0  0  0  0  0  0
    7.6044   -3.1548    0.0000 C   0  0  0  0  0  0  0  0  0
    6.8899   -3.5673    0.0000 C   0  0  0  0  0  0  0  0  0
    6.1754   -3.1548    0.0000 C   0  0  0  0  0  0  0  0  0
    6.1754   -2.3298    0.0000 C   0  0  0  0  0  0  0  0  0
    6.8899   -1.9173    0.0000 C   0  0  0  0  0  0  0  0  0
    6.8899   -1.0923    0.0000 C   0  0  0  0  0  0  0  0  0
    5.4610   -3.5673    0.0000 C   0  0  0  0  0  0  0  0  0
    5.4610   -4.3923    0.0000 O   0  0  0  0  0  0  0  0  0
    4.7465   -3.1548    0.0000 C   0  0  0  0  0  0  0  0  0
    4.0320   -3.5673    0.0000 C   0  0  0  0  0  0  0  0  0
    3.3175   -3.1548    0.0000 C   0  0  0  0  0  0  0  0  0
    2.5329   -3.4098    0.0000 C   0  0  0  0  0  0  0  0  0
    2.0480   -2.7423    0.0000 C   0  0  0  0  0  0  0  0  0
    2.5329   -2.0749    0.0000 O   0  0  0  0  0  0  0  0  0
    3.3175   -2.3298    0.0000 C   0  0  0  0  0  0  0  0  0
    4.0320   -1.9173    0.0000 C   0  0  0  0  0  0  0  0  0
    4.7465   -2.3298    0.0000 C   0  0  0  0  0  0  0  0  0
    1.2230   -2.7423    0.0000 C   0  0  0  0  0  0  0  0  0
    0.8105   -3.4568    0.0000 C   0  0  0  0  0  0  0  0  0
   -0.0145   -3.4568    0.0000 N   0  0  0  0  0  0  0  0  0
   -0.4994   -4.1242    0.0000 C   0  0  0  0  0  0  0  0  0
   -1.2840   -3.8693    0.0000 C   0  0  0  0  0  0  0  0  0
   -1.2840   -3.0443    0.0000 C   0  0  0  0  0  0  0  0  0
   -0.4994   -2.7893    0.0000 C   0  0  0  0  0  0  0  0  0
   -0.2445   -2.0047    0.0000 C   0  0  0  0  0  0  0  0  0
  1  2  1  0  0  0  0
  2  3  4  0  0  0  0
  2  7  4  0  0  0  0
  3  4  4  0  0  0  0
  4  5  4  0  0  0  0
  5  6  4  0  0  0  0
  5  9  1  0  0  0  0
  6  7  4  0  0  0  0
  7  8  1  0  0  0  0
  9 10  2  0  0  0  0
  9 11  1  0  0  0  0
 11 12  4  0  0  0  0
 11 19  4  0  0  0  0
 12 13  4  0  0  0  0
 13 14  4  0  0  0  0
 13 17  4  0  0  0  0
 14 15  4  0  0  0  0
 15 16  4  0  0  0  0
 15 20  1  0  0  0  0
 16 17  4  0  0  0  0
 17 18  4  0  0  0  0
 18 19  4  0  0  0  0
 20 21  1  0  0  0  0
 21 22  1  0  0  0  0
 22 23  1  0  0  0  0
 22 26  1  0  0  0  0
 23 24  1  0  0  0  0
 24 25  1  0  0  0  0
 25 26  1  0  0  0  0
 26 27  1  0  0  0  0
M  END
>  <Name_Molregno>
299482

>  <HISTAMINE H3>
9.68

$$$$
299491
  Marvin  02231216192D 0   1.00000     0.00000     0

 23 26  0  0  0  0  0  0  0  0999 V2000
   -7.0599   -2.0084    0.0000 F   0  0  0  0  0  0  0  0  0
   -6.3454   -1.5959    0.0000 C   0  0  0  0  0  0  0  0  0
   -5.9329   -2.3104    0.0000 F   0  0  0  0  0  0  0  0  0
   -6.7579   -0.8814    0.0000 F   0  0  0  0  0  0  0  0  0
   -5.6309   -1.1834    0.0000 C   0  0  0  0  0  0  0  0  0
   -4.9165   -1.5959    0.0000 C   0  0  0  0  0  0  0  0  0
   -4.2020   -1.1834    0.0000 C   0  0  0  0  0  0  0  0  0
   -4.2020   -0.3584    0.0000 C   0  0  0  0  0  0  0  0  0
   -3.4875    0.0541    0.0000 N   0  0  0  0  0  0  0  0  0
   -2.7731   -0.3584    0.0000 C   0  0  0  0  0  0  0  0  0
   -2.0586    0.0541    0.0000 N   0  0  0  0  0  0  0  0  0
   -2.0586    0.8791    0.0000 C   0  0  0  0  0  0  0  0  0
   -1.3441    1.2916    0.0000 C   0  0  0  0  0  0  0  0  0
   -0.6296    0.8791    0.0000 N   0  0  0  0  0  0  0  0  0
   -0.6296    0.0541    0.0000 C   0  0  0  0  0  0  0  0  0
   -1.3441   -0.3584    0.0000 C   0  0  0  0  0  0  0  0  0
    0.0848    1.2916    0.0000 C   0  0  0  0  0  0  0  0  0
    0.4973    2.0061    0.0000 C   0  0  0  0  0  0  0  0  0
    0.9098    1.2916    0.0000 C   0  0  0  0  0  0  0  0  0
   -2.7731   -1.1834    0.0000 C   0  0  0  0  0  0  0  0  0
   -3.4875   -1.5959    0.0000 C   0  0  0  0  0  0  0  0  0
   -4.9165    0.0541    0.0000 C   0  0  0  0  0  0  0  0  0
   -5.6309   -0.3584    0.0000 C   0  0  0  0  0  0  0  0  0
  1  2  1  0  0  0  0
  2  3  1  0  0  0  0
  2  4  1  0  0  0  0
  2  5  1  0  0  0  0
  5  6  4  0  0  0  0
  5 23  4  0  0  0  0
  6  7  4  0  0  0  0
  7  8  4  0  0  0  0
  7 21  4  0  0  0  0
  8  9  4  0  0  0  0
  8 22  4  0  0  0  0
  9 10  4  0  0  0  0
 10 11  1  0  0  0  0
 10 20  4  0  0  0  0
 11 12  1  0  0  0  0
 11 16  1  0  0  0  0
 12 13  1  0  0  0  0
 13 14  1  0  0  0  0
 14 15  1  0  0  0  0
 14 17  1  0  0  0  0
 15 16  1  0  0  0  0
 17 18  1  0  0  0  0
 17 19  1  0  0  0  0
 18 19  1  0  0  0  0
 20 21  4  0  0  0  0
 22 23  4  0  0  0  0
M  END
>  <Name_Molregno>
299491

>  <HISTAMINE H3>
7.28

$$$$
299492
  Marvin  02231216192D 0   1.00000     0.00000     0

 26 29  0  0  1  0  0  0  0  0999 V2000
    9.5811    0.3613    0.0000 F   0  0  0  0  0  0  0  0  0
    8.8667    0.7738    0.0000 C   0  0  0  0  0  0  0  0  0
    8.1522    0.3613    0.0000 C   0  0  0  0  0  0  0  0  0
    7.4377    0.7738    0.0000 C   0  0  0  0  0  0  0  0  0
    7.4377    1.5988    0.0000 C   0  0  0  0  0  0  0  0  0
    8.1522    2.0113    0.0000 C   0  0  0  0  0  0  0  0  0
    8.8667    1.5988    0.0000 C   0  0  0  0  0  0  0  0  0
    6.7232    0.3613    0.0000 C   0  0  0  0  0  0  0  0  0
    6.7232   -0.4637    0.0000 O   0  0  0  0  0  0  0  0  0
    6.0088    0.7738    0.0000 C   0  0  0  0  0  0  0  0  0
    5.2943    0.3613    0.0000 C   0  0  0  0  0  0  0  0  0
    4.5798    0.7738    0.0000 C   0  0  0  0  0  0  0  0  0
    3.7952    0.5188    0.0000 C   0  0  0  0  0  0  0  0  0
    3.3103    1.1863    0.0000 C   0  0  0  0  0  0  0  0  0
    3.7952    1.8537    0.0000 O   0  0  0  0  0  0  0  0  0
    4.5798    1.5988    0.0000 C   0  0  0  0  0  0  0  0  0
    5.2943    2.0113    0.0000 C   0  0  0  0  0  0  0  0  0
    6.0088    1.5988    0.0000 C   0  0  0  0  0  0  0  0  0
    2.4853    1.1863    0.0000 C   0  0  0  0  0  0  0  0  0
    2.0728    0.4718    0.0000 C   0  0  0  0  0  0  0  0  0
    1.2478    0.4718    0.0000 N   0  0  0  0  0  0  0  0  0
    0.7629   -0.1956    0.0000 C   0  0  0  0  0  0  0  0  0
   -0.0218    0.0593    0.0000 C   0  0  0  0  0  0  0  0  0
   -0.0218    0.8843    0.0000 C   0  0  0  0  0  0  0  0  0
    0.7629    1.1392    0.0000 C   0  0  0  0  0  0  0  0  0
    1.0178    1.9239    0.0000 C   0  0  0  0  0  0  0  0  0
  1  2  1  0  0  0  0
  2  3  4  0  0  0  0
  2  7  4  0  0  0  0
  3  4  4  0  0  0  0
  4  5  4  0  0  0  0
  4  8  1  0  0  0  0
  5  6  4  0  0  0  0
  6  7  4  0  0  0  0
  8  9  2  0  0  0  0
  8 10  1  0  0  0  0
 10 11  4  0  0  0  0
 10 18  4  0  0  0  0
 11 12  4  0  0  0  0
 12 13  4  0  0  0  0
 12 16  4  0  0  0  0
 13 14  4  0  0  0  0
 14 15  4  0  0  0  0
 14 19  1  0  0  0  0
 15 16  4  0  0  0  0
 16 17  4  0  0  0  0
 17 18  4  0  0  0  0
 19 20  1  0  0  0  0
 20 21  1  0  0  0  0
 21 22  1  0  0  0  0
 21 25  1  0  0  0  0
 22 23  1  0  0  0  0
 23 24  1  0  0  0  0
 24 25  1  0  0  0  0
 25 26  1  0  0  0  0
M  END
>  <Name_Molregno>
299492

>  <HISTAMINE H3>
10

$$$$
299508
  Marvin  02231216192D 0   1.00000     0.00000     0

 26 29  0  0  1  0  0  0  0  0999 V2000
    9.5820    0.4065    0.0000 F   0  0  0  0  0  0  0  0  0
    8.8676   -0.0060    0.0000 C   0  0  0  0  0  0  0  0  0
    8.8676   -0.8310    0.0000 C   0  0  0  0  0  0  0  0  0
    8.1531   -1.2435    0.0000 C   0  0  0  0  0  0  0  0  0
    7.4386   -0.8310    0.0000 C   0  0  0  0  0  0  0  0  0
    7.4386   -0.0060    0.0000 C   0  0  0  0  0  0  0  0  0
    8.1531    0.4065    0.0000 C   0  0  0  0  0  0  0  0  0
    6.7242   -1.2435    0.0000 C   0  0  0  0  0  0  0  0  0
    6.7242   -2.0685    0.0000 O   0  0  0  0  0  0  0  0  0
    6.0097   -0.8310    0.0000 C   0  0  0  0  0  0  0  0  0
    5.2952   -1.2435    0.0000 C   0  0  0  0  0  0  0  0  0
    4.5807   -0.8310    0.0000 C   0  0  0  0  0  0  0  0  0
    3.7961   -1.0859    0.0000 C   0  0  0  0  0  0  0  0  0
    3.3112   -0.4185    0.0000 C   0  0  0  0  0  0  0  0  0
    3.7961    0.2490    0.0000 O   0  0  0  0  0  0  0  0  0
    4.5807   -0.0060    0.0000 C   0  0  0  0  0  0  0  0  0
    5.2952    0.4065    0.0000 C   0  0  0  0  0  0  0  0  0
    6.0097   -0.0060    0.0000 C   0  0  0  0  0  0  0  0  0
    2.4862   -0.4185    0.0000 C   0  0  0  0  0  0  0  0  0
    2.0737   -1.1329    0.0000 C   0  0  0  0  0  0  0  0  0
    1.2487   -1.1329    0.0000 N   0  0  0  0  0  0  0  0  0
    0.7638   -1.8004    0.0000 C   0  0  0  0  0  0  0  0  0
   -0.0208   -1.5454    0.0000 C   0  0  0  0  0  0  0  0  0
   -0.0208   -0.7204    0.0000 C   0  0  0  0  0  0  0  0  0
    0.7638   -0.4655    0.0000 C   0  0  0  0  0  0  0  0  0
    1.0187    0.3191    0.0000 C   0  0  0  0  0  0  0  0  0
  1  2  1  0  0  0  0
  2  3  4  0  0  0  0
  2  7  4  0  0  0  0
  3  4  4  0  0  0  0
  4  5  4  0  0  0  0
  5  6  4  0  0  0  0
  5  8  1  0  0  0  0
  6  7  4  0  0  0  0
  8  9  2  0  0  0  0
  8 10  1  0  0  0  0
 10 11  4  0  0  0  0
 10 18  4  0  0  0  0
 11 12  4  0  0  0  0
 12 13  4  0  0  0  0
 12 16  4  0  0  0  0
 13 14  4  0  0  0  0
 14 15  4  0  0  0  0
 14 19  1  0  0  0  0
 15 16  4  0  0  0  0
 16 17  4  0  0  0  0
 17 18  4  0  0  0  0
 19 20  1  0  0  0  0
 20 21  1  0  0  0  0
 21 22  1  0  0  0  0
 21 25  1  0  0  0  0
 22 23  1  0  0  0  0
 23 24  1  0  0  0  0
 24 25  1  0  0  0  0
 25 26  1  0  0  0  0
M  END
>  <Name_Molregno>
299508

>  <HISTAMINE H3>
9.57

$$$$
299513
  Marvin  02231216192D 0   1.00000     0.00000     0

 21 24  0  0  0  0  0  0  0  0999 V2000
    0.8656    0.2257    0.0000 N   0  0  0  0  0  0  0  0  0
    1.5801    0.6382    0.0000 C   0  0  0  0  0  0  0  0  0
    1.5801    1.4632    0.0000 C   0  0  0  0  0  0  0  0  0
    2.2945    1.8757    0.0000 C   0  0  0  0  0  0  0  0  0
    3.0090    1.4632    0.0000 C   0  0  0  0  0  0  0  0  0
    3.0090    0.6382    0.0000 C   0  0  0  0  0  0  0  0  0
    2.2945    0.2257    0.0000 C   0  0  0  0  0  0  0  0  0
    3.7235    1.8757    0.0000 C   0  0  0  0  0  0  0  0  0
    4.4380    2.2882    0.0000 N   0  0  0  0  0  0  0  0  0
    0.8656    1.8757    0.0000 C   0  0  0  0  0  0  0  0  0
    0.1511    1.4632    0.0000 C   0  0  0  0  0  0  0  0  0
    0.1511    0.6382    0.0000 C   0  0  0  0  0  0  0  0  0
   -0.5633    0.2257    0.0000 N   0  0  0  0  0  0  0  0  0
   -0.5633   -0.5993    0.0000 C   0  0  0  0  0  0  0  0  0
   -1.2778   -1.0118    0.0000 C   0  0  0  0  0  0  0  0  0
   -1.9923   -0.5993    0.0000 N   0  0  0  0  0  0  0  0  0
   -1.9923    0.2257    0.0000 C   0  0  0  0  0  0  0  0  0
   -1.2778    0.6382    0.0000 C   0  0  0  0  0  0  0  0  0
   -2.7068   -1.0118    0.0000 C   0  0  0  0  0  0  0  0  0
   -3.1193   -1.7263    0.0000 C   0  0  0  0  0  0  0  0  0
   -3.5318   -1.0118    0.0000 C   0  0  0  0  0  0  0  0  0
  1  2  4  0  0  0  0
  1 12  4  0  0  0  0
  2  3  4  0  0  0  0
  2  7  4  0  0  0  0
  3  4  4  0  0  0  0
  3 10  4  0  0  0  0
  4  5  4  0  0  0  0
  5  6  4  0  0  0  0
  5  8  1  0  0  0  0
  6  7  4  0  0  0  0
  8  9  3  0  0  0  0
 10 11  4  0  0  0  0
 11 12  4  0  0  0  0
 12 13  1  0  0  0  0
 13 14  1  0  0  0  0
 13 18  1  0  0  0  0
 14 15  1  0  0  0  0
 15 16  1  0  0  0  0
 16 17  1  0  0  0  0
 16 19  1  0  0  0  0
 17 18  1  0  0  0  0
 19 20  1  0  0  0  0
 19 21  1  0  0  0  0
 20 21  1  0  0  0  0
M  END
>  <Name_Molregno>
299513

>  <HISTAMINE H3>
8.32

$$$$
299514
  Marvin  02231216192D 0   1.00000     0.00000     0

 25 29  0  0  0  0  0  0  0  0999 V2000
   -0.5429   -0.1572    0.0000 N   0  0  0  0  0  0  0  0  0
    0.1716    0.2553    0.0000 C   0  0  0  0  0  0  0  0  0
    0.1716    1.0803    0.0000 C   0  0  0  0  0  0  0  0  0
    0.8861    1.4928    0.0000 C   0  0  0  0  0  0  0  0  0
    1.6005    1.0803    0.0000 C   0  0  0  0  0  0  0  0  0
    1.6005    0.2553    0.0000 C   0  0  0  0  0  0  0  0  0
    0.8861   -0.1572    0.0000 C   0  0  0  0  0  0  0  0  0
    2.3150    1.4928    0.0000 C   0  0  0  0  0  0  0  0  0
    2.3150    2.3178    0.0000 C   0  0  0  0  0  0  0  0  0
    3.0295    2.7303    0.0000 C   0  0  0  0  0  0  0  0  0
    3.7440    2.3178    0.0000 C   0  0  0  0  0  0  0  0  0
    3.7440    1.4928    0.0000 C   0  0  0  0  0  0  0  0  0
    3.0295    1.0803    0.0000 C   0  0  0  0  0  0  0  0  0
   -0.5429    1.4928    0.0000 C   0  0  0  0  0  0  0  0  0
   -1.2573    1.0803    0.0000 C   0  0  0  0  0  0  0  0  0
   -1.2573    0.2553    0.0000 C   0  0  0  0  0  0  0  0  0
   -1.9718   -0.1572    0.0000 N   0  0  0  0  0  0  0  0  0
   -1.9718   -0.9822    0.0000 C   0  0  0  0  0  0  0  0  0
   -2.6863   -1.3947    0.0000 C   0  0  0  0  0  0  0  0  0
   -3.4007   -0.9822    0.0000 N   0  0  0  0  0  0  0  0  0
   -3.4007   -0.1572    0.0000 C   0  0  0  0  0  0  0  0  0
   -2.6863    0.2553    0.0000 C   0  0  0  0  0  0  0  0  0
   -4.1152   -1.3947    0.0000 C   0  0  0  0  0  0  0  0  0
   -4.5277   -2.1092    0.0000 C   0  0  0  0  0  0  0  0  0
   -4.9402   -1.3947    0.0000 C   0  0  0  0  0  0  0  0  0
  1  2  4  0  0  0  0
  1 16  4  0  0  0  0
  2  3  4  0  0  0  0
  2  7  4  0  0  0  0
  3  4  4  0  0  0  0
  3 14  4  0  0  0  0
  4  5  4  0  0  0  0
  5  6  4  0  0  0  0
  5  8  1  0  0  0  0
  6  7  4  0  0  0  0
  8  9  1  0  0  0  0
  8 13  1  0  0  0  0
  9 10  1  0  0  0  0
 10 11  1  0  0  0  0
 11 12  1  0  0  0  0
 12 13  1  0  0  0  0
 14 15  4  0  0  0  0
 15 16  4  0  0  0  0
 16 17  1  0  0  0  0
 17 18  1  0  0  0  0
 17 22  1  0  0  0  0
 18 19  1  0  0  0  0
 19 20  1  0  0  0  0
 20 21  1  0  0  0  0
 20 23  1  0  0  0  0
 21 22  1  0  0  0  0
 23 24  1  0  0  0  0
 23 25  1  0  0  0  0
 24 25  1  0  0  0  0
M  END
>  <Name_Molregno>
299514

>  <HISTAMINE H3>
7.72

$$$$
299516
  Marvin  02231216192D 0   1.00000     0.00000     0

 26 29  0  0  1  0  0  0  0  0999 V2000
    9.5820    0.4065    0.0000 Cl  0  0  0  0  0  0  0  0  0
    8.8676   -0.0060    0.0000 C   0  0  0  0  0  0  0  0  0
    8.8676   -0.8310    0.0000 C   0  0  0  0  0  0  0  0  0
    8.1531   -1.2435    0.0000 C   0  0  0  0  0  0  0  0  0
    7.4386   -0.8310    0.0000 C   0  0  0  0  0  0  0  0  0
    7.4386   -0.0060    0.0000 C   0  0  0  0  0  0  0  0  0
    8.1531    0.4065    0.0000 C   0  0  0  0  0  0  0  0  0
    6.7242   -1.2435    0.0000 C   0  0  0  0  0  0  0  0  0
    6.7242   -2.0685    0.0000 O   0  0  0  0  0  0  0  0  0
    6.0097   -0.8310    0.0000 C   0  0  0  0  0  0  0  0  0
    5.2952   -1.2435    0.0000 C   0  0  0  0  0  0  0  0  0
    4.5807   -0.8310    0.0000 C   0  0  0  0  0  0  0  0  0
    3.7961   -1.0859    0.0000 C   0  0  0  0  0  0  0  0  0
    3.3112   -0.4185    0.0000 C   0  0  0  0  0  0  0  0  0
    3.7961    0.2490    0.0000 O   0  0  0  0  0  0  0  0  0
    4.5807   -0.0060    0.0000 C   0  0  0  0  0  0  0  0  0
    5.2952    0.4065    0.0000 C   0  0  0  0  0  0  0  0  0
    6.0097   -0.0060    0.0000 C   0  0  0  0  0  0  0  0  0
    2.4862   -0.4185    0.0000 C   0  0  0  0  0  0  0  0  0
    2.0737   -1.1329    0.0000 C   0  0  0  0  0  0  0  0  0
    1.2487   -1.1329    0.0000 N   0  0  0  0  0  0  0  0  0
    0.7638   -1.8004    0.0000 C   0  0  0  0  0  0  0  0  0
   -0.0208   -1.5454    0.0000 C   0  0  0  0  0  0  0  0  0
   -0.0208   -0.7204    0.0000 C   0  0  0  0  0  0  0  0  0
    0.7638   -0.4655    0.0000 C   0  0  0  0  0  0  0  0  0
    1.0187    0.3191    0.0000 C   0  0  0  0  0  0  0  0  0
  1  2  1  0  0  0  0
  2  3  4  0  0  0  0
  2  7  4  0  0  0  0
  3  4  4  0  0  0  0
  4  5  4  0  0  0  0
  5  6  4  0  0  0  0
  5  8  1  0  0  0  0
  6  7  4  0  0  0  0
  8  9  2  0  0  0  0
  8 10  1  0  0  0  0
 10 11  4  0  0  0  0
 10 18  4  0  0  0  0
 11 12  4  0  0  0  0
 12 13  4  0  0  0  0
 12 16  4  0  0  0  0
 13 14  4  0  0  0  0
 14 15  4  0  0  0  0
 14 19  1  0  0  0  0
 15 16  4  0  0  0  0
 16 17  4  0  0  0  0
 17 18  4  0  0  0  0
 19 20  1  0  0  0  0
 20 21  1  0  0  0  0
 21 22  1  0  0  0  0
 21 25  1  0  0  0  0
 22 23  1  0  0  0  0
 23 24  1  0  0  0  0
 24 25  1  0  0  0  0
 25 26  1  0  0  0  0
M  END
>  <Name_Molregno>
299516

>  <HISTAMINE H3>
9.24

$$$$
299519
  Marvin  02231216192D 0   1.00000     0.00000     0

 33 36  0  0  1  0  0  0  0  0999 V2000
   -0.4322    0.2939    0.0000 O   0  0  0  0  0  0  0  0  0
   -0.9843    0.9070    0.0000 C   0  0  0  0  0  0  0  0  0
   -0.5718    1.6215    0.0000 C   0  0  0  0  0  0  0  0  0
    0.2352    1.4500    0.0000 C   0  0  0  0  0  0  0  0  0
    0.3214    0.6295    0.0000 C   0  0  0  0  0  0  0  0  0
    1.0359    0.2170    0.0000 C   0  0  0  0  0  0  0  0  0
    1.0359   -0.6080    0.0000 O   0  0  0  0  0  0  0  0  0
    1.7504    0.6295    0.0000 N   0  0  0  0  0  0  0  0  0
    2.4648    0.2170    0.0000 C   0  0  0  0  0  0  0  0  0
    3.1793    0.6295    0.0000 C   0  0  0  0  0  0  0  0  0
    3.1793    1.4545    0.0000 O   0  0  0  0  0  0  0  0  0
    3.8938    0.2170    0.0000 N   0  0  0  0  0  0  0  0  0
    4.6083    0.6295    0.0000 C   0  0  0  0  0  0  0  0  0
    5.3227    0.2170    0.0000 C   0  0  0  0  0  0  0  0  0
    5.3227   -0.6080    0.0000 N   0  0  0  0  0  0  0  0  0
    4.6083   -1.0205    0.0000 C   0  0  0  0  0  0  0  0  0
    3.8938   -0.6080    0.0000 C   0  0  0  0  0  0  0  0  0
    6.0372   -1.0205    0.0000 C   0  0  0  0  0  0  0  0  0
    6.7517   -0.6080    0.0000 C   0  0  0  0  0  0  0  0  0
    7.4661   -1.0205    0.0000 C   0  0  0  0  0  0  0  0  0
    8.1806   -0.6080    0.0000 O   0  0  0  0  0  0  0  0  0
    8.8951   -1.0205    0.0000 C   0  0  0  0  0  0  0  0  0
    9.6096   -0.6080    0.0000 C   0  0  0  0  0  0  0  0  0
   10.3240   -1.0205    0.0000 C   0  0  0  0  0  0  0  0  0
   10.3240   -1.8455    0.0000 C   0  0  0  0  0  0  0  0  0
    9.6096   -2.2580    0.0000 C   0  0  0  0  0  0  0  0  0
    8.8951   -1.8455    0.0000 C   0  0  0  0  0  0  0  0  0
   11.0385   -2.2580    0.0000 C   0  0  0  0  0  0  0  0  0
   11.7530   -1.8455    0.0000 O   0  0  0  0  0  0  0  0  0
   11.0385   -3.0830    0.0000 C   0  0  0  0  0  0  0  0  0
   11.4510   -3.7975    0.0000 C   0  0  0  0  0  0  0  0  0
   10.6260   -3.7975    0.0000 C   0  0  0  0  0  0  0  0  0
    2.4648   -0.6080    0.0000 C   0  0  0  0  0  0  0  0  0
  1  2  4  0  0  0  0
  1  5  4  0  0  0  0
  2  3  4  0  0  0  0
  3  4  4  0  0  0  0
  4  5  4  0  0  0  0
  5  6  1  0  0  0  0
  6  7  2  0  0  0  0
  6  8  1  0  0  0  0
  8  9  1  0  0  0  0
  9 10  1  0  0  0  0
  9 33  1  0  0  0  0
 10 11  2  0  0  0  0
 10 12  1  0  0  0  0
 12 13  1  0  0  0  0
 12 17  1  0  0  0  0
 13 14  1  0  0  0  0
 14 15  1  0  0  0  0
 15 16  1  0  0  0  0
 15 18  1  0  0  0  0
 16 17  1  0  0  0  0
 18 19  1  0  0  0  0
 19 20  1  0  0  0  0
 20 21  1  0  0  0  0
 21 22  1  0  0  0  0
 22 23  4  0  0  0  0
 22 27  4  0  0  0  0
 23 24  4  0  0  0  0
 24 25  4  0  0  0  0
 25 26  4  0  0  0  0
 25 28  1  0  0  0  0
 26 27  4  0  0  0  0
 28 29  2  0  0  0  0
 28 30  1  0  0  0  0
 30 31  1  0  0  0  0
 30 32  1  0  0  0  0
 31 32  1  0  0  0  0
M  END
>  <Name_Molregno>
299519

>  <HISTAMINE H3>
7.03

$$$$
299526
  Marvin  02231216192D 0   1.00000     0.00000     0

 27 30  0  0  1  0  0  0  0  0999 V2000
    0.3612   -0.8284    0.0000 O   0  0  0  0  0  0  0  0  0
    1.1458   -0.5735    0.0000 C   0  0  0  0  0  0  0  0  0
    1.1458    0.2515    0.0000 C   0  0  0  0  0  0  0  0  0
    1.8602    0.6640    0.0000 C   0  0  0  0  0  0  0  0  0
    2.5747    0.2515    0.0000 C   0  0  0  0  0  0  0  0  0
    2.5747   -0.5735    0.0000 C   0  0  0  0  0  0  0  0  0
    1.8602   -0.9860    0.0000 C   0  0  0  0  0  0  0  0  0
    3.2892    0.6640    0.0000 C   0  0  0  0  0  0  0  0  0
    3.2892    1.4890    0.0000 C   0  0  0  0  0  0  0  0  0
    4.0037    1.9015    0.0000 C   0  0  0  0  0  0  0  0  0
    4.7181    1.4890    0.0000 C   0  0  0  0  0  0  0  0  0
    4.7181    0.6640    0.0000 C   0  0  0  0  0  0  0  0  0
    4.0037    0.2515    0.0000 C   0  0  0  0  0  0  0  0  0
    4.0037    2.7265    0.0000 C   0  0  0  0  0  0  0  0  0
    3.2892    3.1390    0.0000 O   0  0  0  0  0  0  0  0  0
    4.7181    3.1390    0.0000 C   0  0  0  0  0  0  0  0  0
    4.7181    3.9640    0.0000 C   0  0  0  0  0  0  0  0  0
    0.3612    0.5065    0.0000 C   0  0  0  0  0  0  0  0  0
   -0.1238   -0.1610    0.0000 C   0  0  0  0  0  0  0  0  0
   -0.9488   -0.1610    0.0000 C   0  0  0  0  0  0  0  0  0
   -1.3613   -0.8755    0.0000 C   0  0  0  0  0  0  0  0  0
   -2.1863   -0.8755    0.0000 N   0  0  0  0  0  0  0  0  0
   -2.6712   -1.5429    0.0000 C   0  0  0  0  0  0  0  0  0
   -3.4558   -1.2880    0.0000 C   0  0  0  0  0  0  0  0  0
   -3.4558   -0.4630    0.0000 C   0  0  0  0  0  0  0  0  0
   -2.6712   -0.2080    0.0000 C   0  0  0  0  0  0  0  0  0
   -2.4163    0.5766    0.0000 C   0  0  0  0  0  0  0  0  0
  1  2  4  0  0  0  0
  1 19  4  0  0  0  0
  2  3  4  0  0  0  0
  2  7  4  0  0  0  0
  3  4  4  0  0  0  0
  3 18  4  0  0  0  0
  4  5  4  0  0  0  0
  5  6  4  0  0  0  0
  5  8  1  0  0  0  0
  6  7  4  0  0  0  0
  8  9  4  0  0  0  0
  8 13  4  0  0  0  0
  9 10  4  0  0  0  0
 10 11  4  0  0  0  0
 10 14  1  0  0  0  0
 11 12  4  0  0  0  0
 12 13  4  0  0  0  0
 14 15  2  0  0  0  0
 14 16  1  0  0  0  0
 16 17  1  0  0  0  0
 18 19  4  0  0  0  0
 19 20  1  0  0  0  0
 20 21  1  0  0  0  0
 21 22  1  0  0  0  0
 22 23  1  0  0  0  0
 22 26  1  0  0  0  0
 23 24  1  0  0  0  0
 24 25  1  0  0  0  0
 25 26  1  0  0  0  0
 26 27  1  0  0  0  0
M  END
>  <Name_Molregno>
299526

>  <HISTAMINE H3>
9.64

$$$$
299542
  Marvin  02231216192D 0   1.00000     0.00000     0

 24 28  0  0  0  0  0  0  0  0999 V2000
   -0.2013   -0.0656    0.0000 N   0  0  0  0  0  0  0  0  0
    0.5132    0.3469    0.0000 C   0  0  0  0  0  0  0  0  0
    0.5132    1.1719    0.0000 C   0  0  0  0  0  0  0  0  0
    1.2276    1.5844    0.0000 C   0  0  0  0  0  0  0  0  0
    1.9421    1.1719    0.0000 C   0  0  0  0  0  0  0  0  0
    2.6566    1.5844    0.0000 N   0  0  0  0  0  0  0  0  0
    2.7428    2.4049    0.0000 N   0  0  0  0  0  0  0  0  0
    3.5498    2.5764    0.0000 C   0  0  0  0  0  0  0  0  0
    3.9623    1.8619    0.0000 C   0  0  0  0  0  0  0  0  0
    3.4103    1.2488    0.0000 C   0  0  0  0  0  0  0  0  0
    1.9421    0.3469    0.0000 C   0  0  0  0  0  0  0  0  0
    1.2276   -0.0656    0.0000 C   0  0  0  0  0  0  0  0  0
   -0.2013    1.5844    0.0000 C   0  0  0  0  0  0  0  0  0
   -0.9158    1.1719    0.0000 C   0  0  0  0  0  0  0  0  0
   -0.9158    0.3469    0.0000 C   0  0  0  0  0  0  0  0  0
   -1.6302   -0.0656    0.0000 N   0  0  0  0  0  0  0  0  0
   -1.6302   -0.8906    0.0000 C   0  0  0  0  0  0  0  0  0
   -2.3447   -1.3031    0.0000 C   0  0  0  0  0  0  0  0  0
   -3.0592   -0.8906    0.0000 N   0  0  0  0  0  0  0  0  0
   -3.0592   -0.0656    0.0000 C   0  0  0  0  0  0  0  0  0
   -2.3447    0.3469    0.0000 C   0  0  0  0  0  0  0  0  0
   -3.7737   -1.3031    0.0000 C   0  0  0  0  0  0  0  0  0
   -4.1862   -2.0176    0.0000 C   0  0  0  0  0  0  0  0  0
   -4.5987   -1.3031    0.0000 C   0  0  0  0  0  0  0  0  0
  1  2  4  0  0  0  0
  1 15  4  0  0  0  0
  2  3  4  0  0  0  0
  2 12  4  0  0  0  0
  3  4  4  0  0  0  0
  3 13  4  0  0  0  0
  4  5  4  0  0  0  0
  5  6  1  0  0  0  0
  5 11  4  0  0  0  0
  6  7  4  0  0  0  0
  6 10  4  0  0  0  0
  7  8  4  0  0  0  0
  8  9  4  0  0  0  0
  9 10  4  0  0  0  0
 11 12  4  0  0  0  0
 13 14  4  0  0  0  0
 14 15  4  0  0  0  0
 15 16  1  0  0  0  0
 16 17  1  0  0  0  0
 16 21  1  0  0  0  0
 17 18  1  0  0  0  0
 18 19  1  0  0  0  0
 19 20  1  0  0  0  0
 19 22  1  0  0  0  0
 20 21  1  0  0  0  0
 22 23  1  0  0  0  0
 22 24  1  0  0  0  0
 23 24  1  0  0  0  0
M  END
>  <Name_Molregno>
299542

>  <HISTAMINE H3>
8.96

$$$$
299543
  Marvin  02231216192D 0   1.00000     0.00000     0

 28 32  0  0  0  0  0  0  0  0999 V2000
   -0.1291    0.0277    0.0000 F   0  0  0  0  0  0  0  0  0
    0.5854   -0.3848    0.0000 C   0  0  0  0  0  0  0  0  0
    1.2998    0.0277    0.0000 C   0  0  0  0  0  0  0  0  0
    2.0143   -0.3848    0.0000 C   0  0  0  0  0  0  0  0  0
    2.0143   -1.2098    0.0000 C   0  0  0  0  0  0  0  0  0
    1.2998   -1.6223    0.0000 C   0  0  0  0  0  0  0  0  0
    0.5854   -1.2098    0.0000 C   0  0  0  0  0  0  0  0  0
    2.7288   -1.6223    0.0000 C   0  0  0  0  0  0  0  0  0
    2.7288   -2.4473    0.0000 O   0  0  0  0  0  0  0  0  0
    3.4432   -1.2098    0.0000 C   0  0  0  0  0  0  0  0  0
    4.1577   -1.6223    0.0000 C   0  0  0  0  0  0  0  0  0
    4.8722   -1.2098    0.0000 C   0  0  0  0  0  0  0  0  0
    4.8722   -0.3848    0.0000 C   0  0  0  0  0  0  0  0  0
    5.5867    0.0277    0.0000 N   0  0  0  0  0  0  0  0  0
    6.3011   -0.3848    0.0000 C   0  0  0  0  0  0  0  0  0
    7.0156    0.0277    0.0000 N   0  0  0  0  0  0  0  0  0
    7.0156    0.8527    0.0000 C   0  0  0  0  0  0  0  0  0
    7.7301    1.2652    0.0000 C   0  0  0  0  0  0  0  0  0
    8.4445    0.8527    0.0000 N   0  0  0  0  0  0  0  0  0
    8.4445    0.0277    0.0000 C   0  0  0  0  0  0  0  0  0
    7.7301   -0.3848    0.0000 C   0  0  0  0  0  0  0  0  0
    9.1590    1.2652    0.0000 C   0  0  0  0  0  0  0  0  0
    9.5715    1.9797    0.0000 C   0  0  0  0  0  0  0  0  0
    9.9840    1.2652    0.0000 C   0  0  0  0  0  0  0  0  0
    6.3011   -1.2098    0.0000 C   0  0  0  0  0  0  0  0  0
    5.5867   -1.6223    0.0000 C   0  0  0  0  0  0  0  0  0
    4.1577    0.0277    0.0000 C   0  0  0  0  0  0  0  0  0
    3.4432   -0.3848    0.0000 C   0  0  0  0  0  0  0  0  0
  1  2  1  0  0  0  0
  2  3  4  0  0  0  0
  2  7  4  0  0  0  0
  3  4  4  0  0  0  0
  4  5  4  0  0  0  0
  5  6  4  0  0  0  0
  5  8  1  0  0  0  0
  6  7  4  0  0  0  0
  8  9  2  0  0  0  0
  8 10  1  0  0  0  0
 10 11  4  0  0  0  0
 10 28  4  0  0  0  0
 11 12  4  0  0  0  0
 12 13  4  0  0  0  0
 12 26  4  0  0  0  0
 13 14  4  0  0  0  0
 13 27  4  0  0  0  0
 14 15  4  0  0  0  0
 15 16  1  0  0  0  0
 15 25  4  0  0  0  0
 16 17  1  0  0  0  0
 16 21  1  0  0  0  0
 17 18  1  0  0  0  0
 18 19  1  0  0  0  0
 19 20  1  0  0  0  0
 19 22  1  0  0  0  0
 20 21  1  0  0  0  0
 22 23  1  0  0  0  0
 22 24  1  0  0  0  0
 23 24  1  0  0  0  0
 25 26  4  0  0  0  0
 27 28  4  0  0  0  0
M  END
>  <Name_Molregno>
299543

>  <HISTAMINE H3>
6.96

$$$$
299545
  Marvin  02231216192D 0   1.00000     0.00000     0

 27 30  0  0  1  0  0  0  0  0999 V2000
    8.3188   -1.9173    0.0000 Cl  0  0  0  0  0  0  0  0  0
    7.6044   -2.3298    0.0000 C   0  0  0  0  0  0  0  0  0
    7.6044   -3.1548    0.0000 C   0  0  0  0  0  0  0  0  0
    6.8899   -3.5673    0.0000 C   0  0  0  0  0  0  0  0  0
    6.1754   -3.1548    0.0000 C   0  0  0  0  0  0  0  0  0
    6.1754   -2.3298    0.0000 C   0  0  0  0  0  0  0  0  0
    6.8899   -1.9173    0.0000 C   0  0  0  0  0  0  0  0  0
    6.8899   -1.0923    0.0000 C   0  0  0  0  0  0  0  0  0
    5.4610   -3.5673    0.0000 C   0  0  0  0  0  0  0  0  0
    5.4610   -4.3923    0.0000 O   0  0  0  0  0  0  0  0  0
    4.7465   -3.1548    0.0000 C   0  0  0  0  0  0  0  0  0
    4.0320   -3.5673    0.0000 C   0  0  0  0  0  0  0  0  0
    3.3175   -3.1548    0.0000 C   0  0  0  0  0  0  0  0  0
    2.5329   -3.4098    0.0000 C   0  0  0  0  0  0  0  0  0
    2.0480   -2.7423    0.0000 C   0  0  0  0  0  0  0  0  0
    2.5329   -2.0749    0.0000 O   0  0  0  0  0  0  0  0  0
    3.3175   -2.3298    0.0000 C   0  0  0  0  0  0  0  0  0
    4.0320   -1.9173    0.0000 C   0  0  0  0  0  0  0  0  0
    4.7465   -2.3298    0.0000 C   0  0  0  0  0  0  0  0  0
    1.2230   -2.7423    0.0000 C   0  0  0  0  0  0  0  0  0
    0.8105   -3.4568    0.0000 C   0  0  0  0  0  0  0  0  0
   -0.0145   -3.4568    0.0000 N   0  0  0  0  0  0  0  0  0
   -0.4994   -4.1242    0.0000 C   0  0  0  0  0  0  0  0  0
   -1.2840   -3.8693    0.0000 C   0  0  0  0  0  0  0  0  0
   -1.2840   -3.0443    0.0000 C   0  0  0  0  0  0  0  0  0
   -0.4994   -2.7893    0.0000 C   0  0  0  0  0  0  0  0  0
   -0.2445   -2.0047    0.0000 C   0  0  0  0  0  0  0  0  0
  1  2  1  0  0  0  0
  2  3  4  0  0  0  0
  2  7  4  0  0  0  0
  3  4  4  0  0  0  0
  4  5  4  0  0  0  0
  5  6  4  0  0  0  0
  5  9  1  0  0  0  0
  6  7  4  0  0  0  0
  7  8  1  0  0  0  0
  9 10  2  0  0  0  0
  9 11  1  0  0  0  0
 11 12  4  0  0  0  0
 11 19  4  0  0  0  0
 12 13  4  0  0  0  0
 13 14  4  0  0  0  0
 13 17  4  0  0  0  0
 14 15  4  0  0  0  0
 15 16  4  0  0  0  0
 15 20  1  0  0  0  0
 16 17  4  0  0  0  0
 17 18  4  0  0  0  0
 18 19  4  0  0  0  0
 20 21  1  0  0  0  0
 21 22  1  0  0  0  0
 22 23  1  0  0  0  0
 22 26  1  0  0  0  0
 23 24  1  0  0  0  0
 24 25  1  0  0  0  0
 25 26  1  0  0  0  0
 26 27  1  0  0  0  0
M  END
>  <Name_Molregno>
299545

>  <HISTAMINE H3>
9.45

$$$$
299546
  Marvin  02231216192D 0   1.00000     0.00000     0

 28 32  0  0  1  0  0  0  0  0999 V2000
    0.3888   -0.9118    0.0000 O   0  0  0  0  0  0  0  0  0
    1.1735   -0.6569    0.0000 C   0  0  0  0  0  0  0  0  0
    1.1735    0.1681    0.0000 C   0  0  0  0  0  0  0  0  0
    1.8879    0.5806    0.0000 C   0  0  0  0  0  0  0  0  0
    2.6024    0.1681    0.0000 C   0  0  0  0  0  0  0  0  0
    2.6024   -0.6569    0.0000 C   0  0  0  0  0  0  0  0  0
    1.8879   -1.0694    0.0000 C   0  0  0  0  0  0  0  0  0
    3.3169    0.5806    0.0000 C   0  0  0  0  0  0  0  0  0
    3.3169    1.4056    0.0000 C   0  0  0  0  0  0  0  0  0
    4.0313    1.8181    0.0000 C   0  0  0  0  0  0  0  0  0
    4.7458    1.4056    0.0000 C   0  0  0  0  0  0  0  0  0
    4.7458    0.5806    0.0000 C   0  0  0  0  0  0  0  0  0
    4.0313    0.1681    0.0000 C   0  0  0  0  0  0  0  0  0
    4.0313    2.6431    0.0000 C   0  0  0  0  0  0  0  0  0
    3.3169    3.0556    0.0000 O   0  0  0  0  0  0  0  0  0
    4.7458    3.0556    0.0000 C   0  0  0  0  0  0  0  0  0
    5.1583    3.7701    0.0000 C   0  0  0  0  0  0  0  0  0
    5.5708    3.0556    0.0000 C   0  0  0  0  0  0  0  0  0
    0.3888    0.4230    0.0000 C   0  0  0  0  0  0  0  0  0
   -0.0961   -0.2444    0.0000 C   0  0  0  0  0  0  0  0  0
   -0.9211   -0.2444    0.0000 C   0  0  0  0  0  0  0  0  0
   -1.3336   -0.9589    0.0000 C   0  0  0  0  0  0  0  0  0
   -2.1586   -0.9589    0.0000 N   0  0  0  0  0  0  0  0  0
   -2.6435   -1.6263    0.0000 C   0  0  0  0  0  0  0  0  0
   -3.4281   -1.3714    0.0000 C   0  0  0  0  0  0  0  0  0
   -3.4281   -0.5464    0.0000 C   0  0  0  0  0  0  0  0  0
   -2.6435   -0.2914    0.0000 C   0  0  0  0  0  0  0  0  0
   -2.3886    0.4932    0.0000 C   0  0  0  0  0  0  0  0  0
  1  2  4  0  0  0  0
  1 20  4  0  0  0  0
  2  3  4  0  0  0  0
  2  7  4  0  0  0  0
  3  4  4  0  0  0  0
  3 19  4  0  0  0  0
  4  5  4  0  0  0  0
  5  6  4  0  0  0  0
  5  8  1  0  0  0  0
  6  7  4  0  0  0  0
  8  9  4  0  0  0  0
  8 13  4  0  0  0  0
  9 10  4  0  0  0  0
 10 11  4  0  0  0  0
 10 14  1  0  0  0  0
 11 12  4  0  0  0  0
 12 13  4  0  0  0  0
 14 15  2  0  0  0  0
 14 16  1  0  0  0  0
 16 17  1  0  0  0  0
 16 18  1  0  0  0  0
 17 18  1  0  0  0  0
 19 20  4  0  0  0  0
 20 21  1  0  0  0  0
 21 22  1  0  0  0  0
 22 23  1  0  0  0  0
 23 24  1  0  0  0  0
 23 27  1  0  0  0  0
 24 25  1  0  0  0  0
 25 26  1  0  0  0  0
 26 27  1  0  0  0  0
 27 28  1  0  0  0  0
M  END
>  <Name_Molregno>
299546

>  <HISTAMINE H3>
9.68

$$$$
299547
  Marvin  02231216192D 0   1.00000     0.00000     0

 25 28  0  0  1  0  0  0  0  0999 V2000
    0.0685   -0.2271    0.0000 O   0  0  0  0  0  0  0  0  0
    0.8531    0.0279    0.0000 C   0  0  0  0  0  0  0  0  0
    0.8531    0.8529    0.0000 C   0  0  0  0  0  0  0  0  0
    1.5676    1.2654    0.0000 C   0  0  0  0  0  0  0  0  0
    2.2820    0.8529    0.0000 C   0  0  0  0  0  0  0  0  0
    2.2820    0.0279    0.0000 C   0  0  0  0  0  0  0  0  0
    1.5676   -0.3846    0.0000 C   0  0  0  0  0  0  0  0  0
    2.9965    1.2654    0.0000 C   0  0  0  0  0  0  0  0  0
    2.9965    2.0904    0.0000 C   0  0  0  0  0  0  0  0  0
    3.7110    2.5029    0.0000 C   0  0  0  0  0  0  0  0  0
    4.4254    2.0904    0.0000 C   0  0  0  0  0  0  0  0  0
    4.4254    1.2654    0.0000 C   0  0  0  0  0  0  0  0  0
    3.7110    0.8529    0.0000 C   0  0  0  0  0  0  0  0  0
    5.1399    2.5029    0.0000 C   0  0  0  0  0  0  0  0  0
    5.8544    2.0904    0.0000 O   0  0  0  0  0  0  0  0  0
    0.0685    1.1078    0.0000 C   0  0  0  0  0  0  0  0  0
   -0.4165    0.4404    0.0000 C   0  0  0  0  0  0  0  0  0
   -1.2415    0.4404    0.0000 C   0  0  0  0  0  0  0  0  0
   -1.6540   -0.2741    0.0000 C   0  0  0  0  0  0  0  0  0
   -2.4790   -0.2741    0.0000 N   0  0  0  0  0  0  0  0  0
   -2.9639   -0.9415    0.0000 C   0  0  0  0  0  0  0  0  0
   -3.7485   -0.6866    0.0000 C   0  0  0  0  0  0  0  0  0
   -3.7485    0.1384    0.0000 C   0  0  0  0  0  0  0  0  0
   -2.9639    0.3934    0.0000 C   0  0  0  0  0  0  0  0  0
   -2.7089    1.1780    0.0000 C   0  0  0  0  0  0  0  0  0
  1  2  4  0  0  0  0
  1 17  4  0  0  0  0
  2  3  4  0  0  0  0
  2  7  4  0  0  0  0
  3  4  4  0  0  0  0
  3 16  4  0  0  0  0
  4  5  4  0  0  0  0
  5  6  4  0  0  0  0
  5  8  1  0  0  0  0
  6  7  4  0  0  0  0
  8  9  4  0  0  0  0
  8 13  4  0  0  0  0
  9 10  4  0  0  0  0
 10 11  4  0  0  0  0
 11 12  4  0  0  0  0
 11 14  1  0  0  0  0
 12 13  4  0  0  0  0
 14 15  1  0  0  0  0
 16 17  4  0  0  0  0
 17 18  1  0  0  0  0
 18 19  1  0  0  0  0
 19 20  1  0  0  0  0
 20 21  1  0  0  0  0
 20 24  1  0  0  0  0
 21 22  1  0  0  0  0
 22 23  1  0  0  0  0
 23 24  1  0  0  0  0
 24 25  1  0  0  0  0
M  END
>  <Name_Molregno>
299547

>  <HISTAMINE H3>
9.06

$$$$
299576
  Marvin  02231216192D 0   1.00000     0.00000     0

 18 20  0  0  0  0  0  0  0  0999 V2000
    1.2857    0.3391    0.0000 N   0  0  0  0  0  0  0  0  0
    2.0002    0.7516    0.0000 C   0  0  0  0  0  0  0  0  0
    2.0002    1.5766    0.0000 C   0  0  0  0  0  0  0  0  0
    1.2857    1.9891    0.0000 C   0  0  0  0  0  0  0  0  0
    0.5713    1.5766    0.0000 C   0  0  0  0  0  0  0  0  0
    0.5713    0.7516    0.0000 C   0  0  0  0  0  0  0  0  0
   -0.1432    0.3391    0.0000 N   0  0  0  0  0  0  0  0  0
   -0.1432   -0.4859    0.0000 C   0  0  0  0  0  0  0  0  0
   -0.8577   -0.8984    0.0000 C   0  0  0  0  0  0  0  0  0
   -1.5721   -0.4859    0.0000 N   0  0  0  0  0  0  0  0  0
   -1.5721    0.3391    0.0000 C   0  0  0  0  0  0  0  0  0
   -0.8577    0.7516    0.0000 C   0  0  0  0  0  0  0  0  0
   -2.2866   -0.8984    0.0000 C   0  0  0  0  0  0  0  0  0
   -3.0011   -0.4859    0.0000 C   0  0  0  0  0  0  0  0  0
    2.7147    1.9891    0.0000 C   0  0  0  0  0  0  0  0  0
    3.4292    1.5766    0.0000 C   0  0  0  0  0  0  0  0  0
    3.4292    0.7516    0.0000 C   0  0  0  0  0  0  0  0  0
    2.7147    0.3391    0.0000 C   0  0  0  0  0  0  0  0  0
  1  2  4  0  0  0  0
  1  6  4  0  0  0  0
  2  3  4  0  0  0  0
  2 18  4  0  0  0  0
  3  4  4  0  0  0  0
  3 15  4  0  0  0  0
  4  5  4  0  0  0  0
  5  6  4  0  0  0  0
  6  7  1  0  0  0  0
  7  8  1  0  0  0  0
  7 12  1  0  0  0  0
  8  9  1  0  0  0  0
  9 10  1  0  0  0  0
 10 11  1  0  0  0  0
 10 13  1  0  0  0  0
 11 12  1  0  0  0  0
 13 14  1  0  0  0  0
 15 16  4  0  0  0  0
 16 17  4  0  0  0  0
 17 18  4  0  0  0  0
M  END
>  <Name_Molregno>
299576

>  <HISTAMINE H3>
8.22

$$$$
299603
  Marvin  02231216192D 0   1.00000     0.00000     0

 19 21  0  0  0  0  0  0  0  0999 V2000
    1.6199    0.4283    0.0000 N   0  0  0  0  0  0  0  0  0
    2.3344    0.8408    0.0000 C   0  0  0  0  0  0  0  0  0
    2.3344    1.6658    0.0000 C   0  0  0  0  0  0  0  0  0
    1.6199    2.0783    0.0000 C   0  0  0  0  0  0  0  0  0
    0.9054    1.6658    0.0000 C   0  0  0  0  0  0  0  0  0
    0.9054    0.8408    0.0000 C   0  0  0  0  0  0  0  0  0
    0.1910    0.4283    0.0000 N   0  0  0  0  0  0  0  0  0
    0.1910   -0.3967    0.0000 C   0  0  0  0  0  0  0  0  0
   -0.5235   -0.8092    0.0000 C   0  0  0  0  0  0  0  0  0
   -1.2380   -0.3967    0.0000 N   0  0  0  0  0  0  0  0  0
   -1.2380    0.4283    0.0000 C   0  0  0  0  0  0  0  0  0
   -0.5235    0.8408    0.0000 C   0  0  0  0  0  0  0  0  0
   -1.9525   -0.8092    0.0000 C   0  0  0  0  0  0  0  0  0
   -2.6669   -0.3967    0.0000 C   0  0  0  0  0  0  0  0  0
   -1.9525   -1.6342    0.0000 C   0  0  0  0  0  0  0  0  0
    3.0488    2.0783    0.0000 C   0  0  0  0  0  0  0  0  0
    3.7633    1.6658    0.0000 C   0  0  0  0  0  0  0  0  0
    3.7633    0.8408    0.0000 C   0  0  0  0  0  0  0  0  0
    3.0488    0.4283    0.0000 C   0  0  0  0  0  0  0  0  0
  1  2  4  0  0  0  0
  1  6  4  0  0  0  0
  2  3  4  0  0  0  0
  2 19  4  0  0  0  0
  3  4  4  0  0  0  0
  3 16  4  0  0  0  0
  4  5  4  0  0  0  0
  5  6  4  0  0  0  0
  6  7  1  0  0  0  0
  7  8  1  0  0  0  0
  7 12  1  0  0  0  0
  8  9  1  0  0  0  0
  9 10  1  0  0  0  0
 10 11  1  0  0  0  0
 10 13  1  0  0  0  0
 11 12  1  0  0  0  0
 13 14  1  0  0  0  0
 13 15  1  0  0  0  0
 16 17  4  0  0  0  0
 17 18  4  0  0  0  0
 18 19  4  0  0  0  0
M  END
>  <Name_Molregno>
299603

>  <HISTAMINE H3>
8.17

$$$$
299636
  Marvin  02231216192D 0   1.00000     0.00000     0

 21 23  0  0  0  0  0  0  0  0999 V2000
    0.1527    0.6358    0.0000 N   0  0  0  0  0  0  0  0  0
    0.8672    1.0483    0.0000 C   0  0  0  0  0  0  0  0  0
    0.8672    1.8733    0.0000 C   0  0  0  0  0  0  0  0  0
    0.1527    2.2858    0.0000 C   0  0  0  0  0  0  0  0  0
   -0.5618    1.8733    0.0000 C   0  0  0  0  0  0  0  0  0
   -0.5618    1.0483    0.0000 C   0  0  0  0  0  0  0  0  0
   -1.2763    0.6358    0.0000 N   0  0  0  0  0  0  0  0  0
   -1.2763   -0.1892    0.0000 C   0  0  0  0  0  0  0  0  0
   -1.9907   -0.6017    0.0000 C   0  0  0  0  0  0  0  0  0
   -2.7052   -0.1892    0.0000 N   0  0  0  0  0  0  0  0  0
   -2.7052    0.6358    0.0000 C   0  0  0  0  0  0  0  0  0
   -1.9907    1.0483    0.0000 C   0  0  0  0  0  0  0  0  0
   -3.4197   -0.6017    0.0000 C   0  0  0  0  0  0  0  0  0
   -4.1341   -0.1892    0.0000 C   0  0  0  0  0  0  0  0  0
   -4.8486   -0.6017    0.0000 C   0  0  0  0  0  0  0  0  0
   -3.4197   -1.4267    0.0000 C   0  0  0  0  0  0  0  0  0
   -4.1341   -1.8392    0.0000 C   0  0  0  0  0  0  0  0  0
    1.5816    2.2858    0.0000 C   0  0  0  0  0  0  0  0  0
    2.2961    1.8733    0.0000 C   0  0  0  0  0  0  0  0  0
    2.2961    1.0483    0.0000 C   0  0  0  0  0  0  0  0  0
    1.5816    0.6358    0.0000 C   0  0  0  0  0  0  0  0  0
  1  2  4  0  0  0  0
  1  6  4  0  0  0  0
  2  3  4  0  0  0  0
  2 21  4  0  0  0  0
  3  4  4  0  0  0  0
  3 18  4  0  0  0  0
  4  5  4  0  0  0  0
  5  6  4  0  0  0  0
  6  7  1  0  0  0  0
  7  8  1  0  0  0  0
  7 12  1  0  0  0  0
  8  9  1  0  0  0  0
  9 10  1  0  0  0  0
 10 11  1  0  0  0  0
 10 13  1  0  0  0  0
 11 12  1  0  0  0  0
 13 14  1  0  0  0  0
 13 16  1  0  0  0  0
 14 15  1  0  0  0  0
 16 17  1  0  0  0  0
 18 19  4  0  0  0  0
 19 20  4  0  0  0  0
 20 21  4  0  0  0  0
M  END
>  <Name_Molregno>
299636

>  <HISTAMINE H3>
8.54

$$$$
299647
  Marvin  02231216192D 0   1.00000     0.00000     0

 19 22  0  0  0  0  0  0  0  0999 V2000
    1.6843    0.4355    0.0000 N   0  0  0  0  0  0  0  0  0
    2.3987    0.8480    0.0000 C   0  0  0  0  0  0  0  0  0
    2.3987    1.6730    0.0000 C   0  0  0  0  0  0  0  0  0
    1.6843    2.0855    0.0000 C   0  0  0  0  0  0  0  0  0
    0.9698    1.6730    0.0000 C   0  0  0  0  0  0  0  0  0
    0.9698    0.8480    0.0000 C   0  0  0  0  0  0  0  0  0
    0.2553    0.4355    0.0000 N   0  0  0  0  0  0  0  0  0
    0.2553   -0.3895    0.0000 C   0  0  0  0  0  0  0  0  0
   -0.4591   -0.8020    0.0000 C   0  0  0  0  0  0  0  0  0
   -1.1736   -0.3895    0.0000 N   0  0  0  0  0  0  0  0  0
   -1.1736    0.4355    0.0000 C   0  0  0  0  0  0  0  0  0
   -0.4591    0.8480    0.0000 C   0  0  0  0  0  0  0  0  0
   -1.8881   -0.8020    0.0000 C   0  0  0  0  0  0  0  0  0
   -2.3006   -1.5165    0.0000 C   0  0  0  0  0  0  0  0  0
   -2.7131   -0.8020    0.0000 C   0  0  0  0  0  0  0  0  0
    3.1132    2.0855    0.0000 C   0  0  0  0  0  0  0  0  0
    3.8277    1.6730    0.0000 C   0  0  0  0  0  0  0  0  0
    3.8277    0.8480    0.0000 C   0  0  0  0  0  0  0  0  0
    3.1132    0.4355    0.0000 C   0  0  0  0  0  0  0  0  0
  1  2  4  0  0  0  0
  1  6  4  0  0  0  0
  2  3  4  0  0  0  0
  2 19  4  0  0  0  0
  3  4  4  0  0  0  0
  3 16  4  0  0  0  0
  4  5  4  0  0  0  0
  5  6  4  0  0  0  0
  6  7  1  0  0  0  0
  7  8  1  0  0  0  0
  7 12  1  0  0  0  0
  8  9  1  0  0  0  0
  9 10  1  0  0  0  0
 10 11  1  0  0  0  0
 10 13  1  0  0  0  0
 11 12  1  0  0  0  0
 13 14  1  0  0  0  0
 13 15  1  0  0  0  0
 14 15  1  0  0  0  0
 16 17  4  0  0  0  0
 17 18  4  0  0  0  0
 18 19  4  0  0  0  0
M  END
>  <Name_Molregno>
299647

>  <HISTAMINE H3>
7.89

$$$$
310294
  Marvin  02231216192D 0   1.00000     0.00000     0

 18 20  0  0  0  0  0  0  0  0999 V2000
    6.4556   -1.6343    0.0000 Cl  0  0  0  0  0  0  0  0  0
    5.7411   -1.2218    0.0000 C   0  0  0  0  0  0  0  0  0
    5.0266   -1.6343    0.0000 C   0  0  0  0  0  0  0  0  0
    4.3122   -1.2218    0.0000 C   0  0  0  0  0  0  0  0  0
    3.5275   -1.4768    0.0000 C   0  0  0  0  0  0  0  0  0
    3.0426   -0.8093    0.0000 C   0  0  0  0  0  0  0  0  0
    3.5275   -0.1419    0.0000 N   0  0  0  0  0  0  0  0  0
    4.3122   -0.3968    0.0000 C   0  0  0  0  0  0  0  0  0
    5.0266    0.0157    0.0000 C   0  0  0  0  0  0  0  0  0
    5.7411   -0.3968    0.0000 C   0  0  0  0  0  0  0  0  0
    2.2176   -0.8093    0.0000 C   0  0  0  0  0  0  0  0  0
    1.8051   -1.5238    0.0000 O   0  0  0  0  0  0  0  0  0
    1.8051   -0.0949    0.0000 N   0  0  0  0  0  0  0  0  0
    0.9801   -0.0949    0.0000 C   0  0  0  0  0  0  0  0  0
    0.5676    0.6196    0.0000 C   0  0  0  0  0  0  0  0  0
    0.9801    1.3341    0.0000 C   0  0  0  0  0  0  0  0  0
    1.8051    1.3341    0.0000 C   0  0  0  0  0  0  0  0  0
    2.2176    0.6196    0.0000 C   0  0  0  0  0  0  0  0  0
  1  2  1  0  0  0  0
  2  3  4  0  0  0  0
  2 10  4  0  0  0  0
  3  4  4  0  0  0  0
  4  5  4  0  0  0  0
  4  8  4  0  0  0  0
  5  6  4  0  0  0  0
  6  7  4  0  0  0  0
  6 11  1  0  0  0  0
  7  8  4  0  0  0  0
  8  9  4  0  0  0  0
  9 10  4  0  0  0  0
 11 12  2  0  0  0  0
 11 13  1  0  0  0  0
 13 14  1  0  0  0  0
 13 18  1  0  0  0  0
 14 15  1  0  0  0  0
 15 16  1  0  0  0  0
 16 17  1  0  0  0  0
 17 18  1  0  0  0  0
M  STY  1   1 DAT
M  SAL   1  1   7
M  SDT   1 MRV_IMPLICIT_H                                        
M  SDD   1     0.0000    0.0000    DR    ALL  0       0  
M  SED   1 IMPL_H1
M  END
>  <Name_Molregno>
310294

>  <HISTAMINE H3>
5.2

>  <HISTAMINE H4>
5.1

$$$$
310363
  Marvin  02231216192D 0   1.00000     0.00000     0

 19 21  0  0  0  0  0  0  0  0999 V2000
    6.7813   -1.7154    0.0000 I   0  0  0  0  0  0  0  0  0
    6.0668   -1.3029    0.0000 C   0  0  0  0  0  0  0  0  0
    5.3523   -1.7154    0.0000 C   0  0  0  0  0  0  0  0  0
    4.6379   -1.3029    0.0000 C   0  0  0  0  0  0  0  0  0
    3.8532   -1.5579    0.0000 C   0  0  0  0  0  0  0  0  0
    3.3683   -0.8904    0.0000 C   0  0  0  0  0  0  0  0  0
    3.8532   -0.2230    0.0000 N   0  0  0  0  0  0  0  0  0
    4.6379   -0.4779    0.0000 C   0  0  0  0  0  0  0  0  0
    5.3523   -0.0654    0.0000 C   0  0  0  0  0  0  0  0  0
    6.0668   -0.4779    0.0000 C   0  0  0  0  0  0  0  0  0
    2.5433   -0.8904    0.0000 C   0  0  0  0  0  0  0  0  0
    2.1308   -1.6049    0.0000 O   0  0  0  0  0  0  0  0  0
    2.1308   -0.1760    0.0000 N   0  0  0  0  0  0  0  0  0
    1.3058   -0.1760    0.0000 C   0  0  0  0  0  0  0  0  0
    0.8933    0.5385    0.0000 C   0  0  0  0  0  0  0  0  0
    1.3058    1.2530    0.0000 N   0  0  0  0  0  0  0  0  0
    2.1308    1.2530    0.0000 C   0  0  0  0  0  0  0  0  0
    2.5433    0.5385    0.0000 C   0  0  0  0  0  0  0  0  0
    0.8933    1.9674    0.0000 C   0  0  0  0  0  0  0  0  0
  1  2  1  0  0  0  0
  2  3  4  0  0  0  0
  2 10  4  0  0  0  0
  3  4  4  0  0  0  0
  4  5  4  0  0  0  0
  4  8  4  0  0  0  0
  5  6  4  0  0  0  0
  6  7  4  0  0  0  0
  6 11  1  0  0  0  0
  7  8  4  0  0  0  0
  8  9  4  0  0  0  0
  9 10  4  0  0  0  0
 11 12  2  0  0  0  0
 11 13  1  0  0  0  0
 13 14  1  0  0  0  0
 13 18  1  0  0  0  0
 14 15  1  0  0  0  0
 15 16  1  0  0  0  0
 16 17  1  0  0  0  0
 16 19  1  0  0  0  0
 17 18  1  0  0  0  0
M  STY  1   1 DAT
M  SAL   1  1   7
M  SDT   1 MRV_IMPLICIT_H                                        
M  SDD   1     0.0000    0.0000    DR    ALL  0       0  
M  SED   1 IMPL_H1
M  END
>  <Name_Molregno>
310363

>  <HISTAMINE H3>
5.6

>  <HISTAMINE H4>
7.2

$$$$
310364
  Marvin  02231216192D 0   1.00000     0.00000     0

 18 19  0  0  0  0  0  0  0  0999 V2000
    0.7414    1.7089    0.0000 Cl  0  0  0  0  0  0  0  0  0
    1.1539    0.9945    0.0000 C   0  0  0  0  0  0  0  0  0
    1.9789    0.9945    0.0000 C   0  0  0  0  0  0  0  0  0
    2.3914    0.2800    0.0000 C   0  0  0  0  0  0  0  0  0
    3.1984    0.1085    0.0000 C   0  0  0  0  0  0  0  0  0
    3.2846   -0.7120    0.0000 C   0  0  0  0  0  0  0  0  0
    2.5310   -1.0476    0.0000 N   0  0  0  0  0  0  0  0  0
    1.9789   -0.4345    0.0000 C   0  0  0  0  0  0  0  0  0
    1.1539   -0.4345    0.0000 C   0  0  0  0  0  0  0  0  0
    0.7414    0.2800    0.0000 C   0  0  0  0  0  0  0  0  0
    3.9991   -1.1245    0.0000 C   0  0  0  0  0  0  0  0  0
    3.9991   -1.9495    0.0000 O   0  0  0  0  0  0  0  0  0
    4.7136   -0.7120    0.0000 N   0  0  0  0  0  0  0  0  0
    5.4280   -1.1245    0.0000 C   0  0  0  0  0  0  0  0  0
    6.1425   -0.7120    0.0000 C   0  0  0  0  0  0  0  0  0
    6.8570   -1.1245    0.0000 N   0  0  0  0  0  0  0  0  0
    7.5715   -0.7120    0.0000 C   0  0  0  0  0  0  0  0  0
    6.8570   -1.9495    0.0000 C   0  0  0  0  0  0  0  0  0
  1  2  1  0  0  0  0
  2  3  4  0  0  0  0
  2 10  4  0  0  0  0
  3  4  4  0  0  0  0
  4  5  4  0  0  0  0
  4  8  4  0  0  0  0
  5  6  4  0  0  0  0
  6  7  4  0  0  0  0
  6 11  1  0  0  0  0
  7  8  4  0  0  0  0
  8  9  4  0  0  0  0
  9 10  4  0  0  0  0
 11 12  2  0  0  0  0
 11 13  1  0  0  0  0
 13 14  1  0  0  0  0
 14 15  1  0  0  0  0
 15 16  1  0  0  0  0
 16 17  1  0  0  0  0
 16 18  1  0  0  0  0
M  STY  1   1 DAT
M  SAL   1  1   7
M  SDT   1 MRV_IMPLICIT_H                                        
M  SDD   1     0.0000    0.0000    DR    ALL  0       0  
M  SED   1 IMPL_H1
M  END
>  <Name_Molregno>
310364

>  <HISTAMINE H3>
5.3

>  <HISTAMINE H4>
5.5

$$$$
310376
  Marvin  02231216192D 0   1.00000     0.00000     0

 19 21  0  0  1  0  0  0  0  0999 V2000
    6.7813   -1.7154    0.0000 Cl  0  0  0  0  0  0  0  0  0
    6.0668   -1.3029    0.0000 C   0  0  0  0  0  0  0  0  0
    5.3523   -1.7154    0.0000 C   0  0  0  0  0  0  0  0  0
    4.6379   -1.3029    0.0000 C   0  0  0  0  0  0  0  0  0
    3.8532   -1.5579    0.0000 C   0  0  0  0  0  0  0  0  0
    3.3683   -0.8904    0.0000 C   0  0  0  0  0  0  0  0  0
    3.8532   -0.2230    0.0000 N   0  0  0  0  0  0  0  0  0
    4.6379   -0.4779    0.0000 C   0  0  0  0  0  0  0  0  0
    5.3523   -0.0654    0.0000 C   0  0  0  0  0  0  0  0  0
    6.0668   -0.4779    0.0000 C   0  0  0  0  0  0  0  0  0
    2.5433   -0.8904    0.0000 C   0  0  0  0  0  0  0  0  0
    2.1308   -1.6049    0.0000 O   0  0  0  0  0  0  0  0  0
    2.1308   -0.1760    0.0000 C   0  0  0  0  0  0  0  0  0
    1.3058   -0.1760    0.0000 C   0  0  0  0  0  0  0  0  0
    0.8933    0.5385    0.0000 C   0  0  0  0  0  0  0  0  0
    1.3058    1.2530    0.0000 N   0  0  0  0  0  0  0  0  0
    2.1308    1.2530    0.0000 C   0  0  0  0  0  0  0  0  0
    2.5433    0.5385    0.0000 C   0  0  0  0  0  0  0  0  0
    0.8933    1.9674    0.0000 C   0  0  0  0  0  0  0  0  0
  1  2  1  0  0  0  0
  2  3  4  0  0  0  0
  2 10  4  0  0  0  0
  3  4  4  0  0  0  0
  4  5  4  0  0  0  0
  4  8  4  0  0  0  0
  5  6  4  0  0  0  0
  6  7  4  0  0  0  0
  6 11  1  0  0  0  0
  7  8  4  0  0  0  0
  8  9  4  0  0  0  0
  9 10  4  0  0  0  0
 11 12  1  0  0  0  0
 11 13  1  0  0  0  0
 13 14  1  0  0  0  0
 13 18  1  0  0  0  0
 14 15  1  0  0  0  0
 15 16  1  0  0  0  0
 16 17  1  0  0  0  0
 16 19  1  0  0  0  0
 17 18  1  0  0  0  0
M  STY  1   1 DAT
M  SAL   1  1   7
M  SDT   1 MRV_IMPLICIT_H                                        
M  SDD   1     0.0000    0.0000    DR    ALL  0       0  
M  SED   1 IMPL_H1
M  END
>  <Name_Molregno>
310376

>  <HISTAMINE H3>
5.8

>  <HISTAMINE H4>
5.3

$$$$
310412
  Marvin  02231216192D 0   1.00000     0.00000     0

 18 19  0  0  0  0  0  0  0  0999 V2000
    0.7414    1.7089    0.0000 Cl  0  0  0  0  0  0  0  0  0
    1.1539    0.9945    0.0000 C   0  0  0  0  0  0  0  0  0
    1.9789    0.9945    0.0000 C   0  0  0  0  0  0  0  0  0
    2.3914    0.2800    0.0000 C   0  0  0  0  0  0  0  0  0
    3.1984    0.1085    0.0000 N   0  0  0  0  0  0  0  0  0
    3.2846   -0.7120    0.0000 C   0  0  0  0  0  0  0  0  0
    2.5310   -1.0476    0.0000 N   0  0  0  0  0  0  0  0  0
    1.9789   -0.4345    0.0000 C   0  0  0  0  0  0  0  0  0
    1.1539   -0.4345    0.0000 C   0  0  0  0  0  0  0  0  0
    0.7414    0.2800    0.0000 C   0  0  0  0  0  0  0  0  0
    3.9991   -1.1245    0.0000 C   0  0  0  0  0  0  0  0  0
    3.9991   -1.9495    0.0000 O   0  0  0  0  0  0  0  0  0
    4.7136   -0.7120    0.0000 N   0  0  0  0  0  0  0  0  0
    5.4280   -1.1245    0.0000 C   0  0  0  0  0  0  0  0  0
    6.1425   -0.7120    0.0000 C   0  0  0  0  0  0  0  0  0
    6.8570   -1.1245    0.0000 N   0  0  0  0  0  0  0  0  0
    7.5715   -0.7120    0.0000 C   0  0  0  0  0  0  0  0  0
    6.8570   -1.9495    0.0000 C   0  0  0  0  0  0  0  0  0
  1  2  1  0  0  0  0
  2  3  4  0  0  0  0
  2 10  4  0  0  0  0
  3  4  4  0  0  0  0
  4  5  4  0  0  0  0
  4  8  4  0  0  0  0
  5  6  4  0  0  0  0
  6  7  4  0  0  0  0
  6 11  1  0  0  0  0
  7  8  4  0  0  0  0
  8  9  4  0  0  0  0
  9 10  4  0  0  0  0
 11 12  2  0  0  0  0
 11 13  1  0  0  0  0
 13 14  1  0  0  0  0
 14 15  1  0  0  0  0
 15 16  1  0  0  0  0
 16 17  1  0  0  0  0
 16 18  1  0  0  0  0
M  STY  1   1 DAT
M  SAL   1  1   7
M  SDT   1 MRV_IMPLICIT_H                                        
M  SDD   1     0.0000    0.0000    DR    ALL  0       0  
M  SED   1 IMPL_H1
M  END
>  <Name_Molregno>
310412

>  <HISTAMINE H3>
4.6

>  <HISTAMINE H4>
6

$$$$
310462
  Marvin  02231216192D 0   1.00000     0.00000     0

 19 21  0  0  0  0  0  0  0  0999 V2000
    6.7813   -1.7154    0.0000 Cl  0  0  0  0  0  0  0  0  0
    6.0668   -1.3029    0.0000 C   0  0  0  0  0  0  0  0  0
    5.3523   -1.7154    0.0000 C   0  0  0  0  0  0  0  0  0
    4.6379   -1.3029    0.0000 C   0  0  0  0  0  0  0  0  0
    3.8532   -1.5579    0.0000 C   0  0  0  0  0  0  0  0  0
    3.3683   -0.8904    0.0000 C   0  0  0  0  0  0  0  0  0
    3.8532   -0.2230    0.0000 N   0  0  0  0  0  0  0  0  0
    4.6379   -0.4779    0.0000 C   0  0  0  0  0  0  0  0  0
    5.3523   -0.0654    0.0000 C   0  0  0  0  0  0  0  0  0
    6.0668   -0.4779    0.0000 C   0  0  0  0  0  0  0  0  0
    2.5433   -0.8904    0.0000 C   0  0  0  0  0  0  0  0  0
    2.1308   -1.6049    0.0000 O   0  0  0  0  0  0  0  0  0
    2.1308   -0.1760    0.0000 C   0  0  0  0  0  0  0  0  0
    1.3058   -0.1760    0.0000 C   0  0  0  0  0  0  0  0  0
    0.8933    0.5385    0.0000 C   0  0  0  0  0  0  0  0  0
    1.3058    1.2530    0.0000 N   0  0  0  0  0  0  0  0  0
    2.1308    1.2530    0.0000 C   0  0  0  0  0  0  0  0  0
    2.5433    0.5385    0.0000 C   0  0  0  0  0  0  0  0  0
    0.8933    1.9674    0.0000 C   0  0  0  0  0  0  0  0  0
  1  2  1  0  0  0  0
  2  3  4  0  0  0  0
  2 10  4  0  0  0  0
  3  4  4  0  0  0  0
  4  5  4  0  0  0  0
  4  8  4  0  0  0  0
  5  6  4  0  0  0  0
  6  7  4  0  0  0  0
  6 11  1  0  0  0  0
  7  8  4  0  0  0  0
  8  9  4  0  0  0  0
  9 10  4  0  0  0  0
 11 12  2  0  0  0  0
 11 13  1  0  0  0  0
 13 14  1  0  0  0  0
 13 18  1  0  0  0  0
 14 15  1  0  0  0  0
 15 16  1  0  0  0  0
 16 17  1  0  0  0  0
 16 19  1  0  0  0  0
 17 18  1  0  0  0  0
M  STY  1   1 DAT
M  SAL   1  1   7
M  SDT   1 MRV_IMPLICIT_H                                        
M  SDD   1     0.0000    0.0000    DR    ALL  0       0  
M  SED   1 IMPL_H1
M  END
>  <Name_Molregno>
310462

>  <HISTAMINE H3>
5.5

>  <HISTAMINE H4>
6.7

$$$$
310463
  Marvin  02231216192D 0   1.00000     0.00000     0

 19 21  0  0  0  0  0  0  0  0999 V2000
    6.7813   -1.7154    0.0000 Cl  0  0  0  0  0  0  0  0  0
    6.0668   -1.3029    0.0000 C   0  0  0  0  0  0  0  0  0
    5.3523   -1.7154    0.0000 C   0  0  0  0  0  0  0  0  0
    4.6379   -1.3029    0.0000 C   0  0  0  0  0  0  0  0  0
    3.8532   -1.5579    0.0000 N   0  0  0  0  0  0  0  0  0
    3.3683   -0.8904    0.0000 C   0  0  0  0  0  0  0  0  0
    3.8532   -0.2230    0.0000 N   0  0  0  0  0  0  0  0  0
    4.6379   -0.4779    0.0000 C   0  0  0  0  0  0  0  0  0
    5.3523   -0.0654    0.0000 C   0  0  0  0  0  0  0  0  0
    6.0668   -0.4779    0.0000 C   0  0  0  0  0  0  0  0  0
    2.5433   -0.8904    0.0000 C   0  0  0  0  0  0  0  0  0
    2.1308   -1.6049    0.0000 O   0  0  0  0  0  0  0  0  0
    2.1308   -0.1760    0.0000 N   0  0  0  0  0  0  0  0  0
    1.3058   -0.1760    0.0000 C   0  0  0  0  0  0  0  0  0
    0.8933    0.5385    0.0000 C   0  0  0  0  0  0  0  0  0
    1.3058    1.2530    0.0000 N   0  0  0  0  0  0  0  0  0
    2.1308    1.2530    0.0000 C   0  0  0  0  0  0  0  0  0
    2.5433    0.5385    0.0000 C   0  0  0  0  0  0  0  0  0
    0.8933    1.9674    0.0000 C   0  0  0  0  0  0  0  0  0
  1  2  1  0  0  0  0
  2  3  4  0  0  0  0
  2 10  4  0  0  0  0
  3  4  4  0  0  0  0
  4  5  4  0  0  0  0
  4  8  4  0  0  0  0
  5  6  4  0  0  0  0
  6  7  4  0  0  0  0
  6 11  1  0  0  0  0
  7  8  4  0  0  0  0
  8  9  4  0  0  0  0
  9 10  4  0  0  0  0
 11 12  2  0  0  0  0
 11 13  1  0  0  0  0
 13 14  1  0  0  0  0
 13 18  1  0  0  0  0
 14 15  1  0  0  0  0
 15 16  1  0  0  0  0
 16 17  1  0  0  0  0
 16 19  1  0  0  0  0
 17 18  1  0  0  0  0
M  STY  1   1 DAT
M  SAL   1  1   7
M  SDT   1 MRV_IMPLICIT_H                                        
M  SDD   1     0.0000    0.0000    DR    ALL  0       0  
M  SED   1 IMPL_H1
M  END
>  <Name_Molregno>
310463

>  <HISTAMINE H3>
5.13

>  <HISTAMINE H4>
7.35

$$$$
323303
  Marvin  02231216192D 0   1.00000     0.00000     0

 26 30  0  0  1  0  0  0  0  0999 V2000
    6.6579   -0.3987    0.0000 N   0  0  0  0  0  0  0  0  0
    6.9801   -1.1582    0.0000 C   0  0  0  0  0  0  0  0  0
    7.1544    0.2601    0.0000 C   0  0  0  0  0  0  0  0  0
    5.8390   -0.2981    0.0000 C   0  0  0  0  0  0  0  0  0
    5.5167    0.4614    0.0000 C   0  0  0  0  0  0  0  0  0
    4.6979    0.5620    0.0000 C   0  0  0  0  0  0  0  0  0
    4.3756    1.3214    0.0000 C   0  0  0  0  0  0  0  0  0
    3.5568    1.4220    0.0000 C   0  0  0  0  0  0  0  0  0
    3.0602    0.7632    0.0000 C   0  0  0  0  0  0  0  0  0
    3.3825    0.0038    0.0000 C   0  0  0  0  0  0  0  0  0
    2.8859   -0.6551    0.0000 C   0  0  0  0  0  0  0  0  0
    2.0671   -0.5544    0.0000 C   0  0  0  0  0  0  0  0  0
    1.7448    0.2050    0.0000 C   0  0  0  0  0  0  0  0  0
    0.9648    0.4737    0.0000 C   0  0  0  0  0  0  0  0  0
    0.9793    1.2985    0.0000 C   0  0  0  0  0  0  0  0  0
    1.7682    1.5397    0.0000 C   0  0  0  0  0  0  0  0  0
    2.2414    0.8638    0.0000 C   0  0  0  0  0  0  0  0  0
    0.4682   -0.1852    0.0000 C   0  0  0  0  0  0  0  0  0
    0.9414   -0.8610    0.0000 N   0  0  0  0  0  0  0  0  0
    1.7303   -0.6199    0.0000 C   0  0  0  0  0  0  0  0  0
    0.6727   -1.6410    0.0000 C   0  0  0  0  0  0  0  0  0
   -0.3566   -0.1707    0.0000 C   0  0  0  0  0  0  0  0  0
    4.2013   -0.0968    0.0000 C   0  0  0  0  0  0  0  0  0
    4.5236   -0.8563    0.0000 C   0  0  0  0  0  0  0  0  0
    5.3425   -0.9569    0.0000 C   0  0  0  0  0  0  0  0  0
    3.7048   -0.7557    0.0000 C   0  0  0  0  0  0  0  0  0
  1  2  1  0  0  0  0
  1  3  1  0  0  0  0
  1  4  1  0  0  0  0
  4  5  1  0  0  0  0
  4 25  1  0  0  0  0
  5  6  1  0  0  0  0
  6  7  2  0  0  0  0
  6 23  1  0  0  0  0
  7  8  1  0  0  0  0
  8  9  1  0  0  0  0
  9 10  1  0  0  0  0
  9 17  1  0  0  0  0
 10 11  1  0  0  0  0
 10 23  1  0  0  0  0
 11 12  1  0  0  0  0
 12 13  1  0  0  0  0
 13 14  1  0  0  0  0
 13 17  1  0  0  0  0
 13 20  1  0  0  0  0
 14 15  1  0  0  0  0
 14 18  1  0  0  0  0
 15 16  1  0  0  0  0
 16 17  1  0  0  0  0
 18 19  1  0  0  0  0
 18 22  1  0  0  0  0
 19 20  1  0  0  0  0
 19 21  1  0  0  0  0
 23 24  1  0  0  0  0
 23 26  1  0  0  0  0
 24 25  1  0  0  0  0
M  END
>  <Name_Molregno>
323303

>  <Alpha-2A>
6.18

>  <Alpha-2C>
7.97

>  <HISTAMINE H1>
5

>  <HISTAMINE H2>
5

>  <HISTAMINE H3>
8.31

>  <HISTAMINE H4>
5

$$$$
323743
  Marvin  02231216192D 0   1.00000     0.00000     0

 21 23  0  0  0  0  0  0  0  0999 V2000
   -0.2896    1.7260    0.0000 O   0  0  0  0  0  0  0  0  0
   -1.0041    2.1385    0.0000 C   0  0  0  0  0  0  0  0  0
   -1.7186    1.7260    0.0000 C   0  0  0  0  0  0  0  0  0
   -2.4330    2.1385    0.0000 C   0  0  0  0  0  0  0  0  0
   -2.4330    2.9635    0.0000 N   0  0  0  0  0  0  0  0  0
   -1.7186    3.3760    0.0000 C   0  0  0  0  0  0  0  0  0
   -1.0041    2.9635    0.0000 C   0  0  0  0  0  0  0  0  0
   -3.1475    3.3760    0.0000 C   0  0  0  0  0  0  0  0  0
   -3.1475    4.2010    0.0000 C   0  0  0  0  0  0  0  0  0
   -3.8620    2.9635    0.0000 C   0  0  0  0  0  0  0  0  0
   -0.2896    0.9010    0.0000 C   0  0  0  0  0  0  0  0  0
    0.4249    0.4885    0.0000 C   0  0  0  0  0  0  0  0  0
    0.4249   -0.3365    0.0000 C   0  0  0  0  0  0  0  0  0
   -0.2896   -0.7490    0.0000 C   0  0  0  0  0  0  0  0  0
   -1.0041   -0.3365    0.0000 C   0  0  0  0  0  0  0  0  0
   -1.0041    0.4885    0.0000 C   0  0  0  0  0  0  0  0  0
   -0.2896   -1.5740    0.0000 C   0  0  0  0  0  0  0  0  0
    0.4249   -1.9865    0.0000 N   0  0  0  0  0  0  0  0  0
    0.4249   -2.8115    0.0000 C   0  0  0  0  0  0  0  0  0
    0.8374   -3.5260    0.0000 C   0  0  0  0  0  0  0  0  0
    0.0124   -3.5260    0.0000 C   0  0  0  0  0  0  0  0  0
  1  2  1  0  0  0  0
  1 11  1  0  0  0  0
  2  3  1  0  0  0  0
  2  7  1  0  0  0  0
  3  4  1  0  0  0  0
  4  5  1  0  0  0  0
  5  6  1  0  0  0  0
  5  8  1  0  0  0  0
  6  7  1  0  0  0  0
  8  9  1  0  0  0  0
  8 10  1  0  0  0  0
 11 12  4  0  0  0  0
 11 16  4  0  0  0  0
 12 13  4  0  0  0  0
 13 14  4  0  0  0  0
 14 15  4  0  0  0  0
 14 17  1  0  0  0  0
 15 16  4  0  0  0  0
 17 18  1  0  0  0  0
 18 19  1  0  0  0  0
 19 20  1  0  0  0  0
 19 21  1  0  0  0  0
 20 21  1  0  0  0  0
M  END
>  <Name_Molregno>
323743

>  <HISTAMINE H3>
9.34

$$$$
323754
  Marvin  02231216192D 0   1.00000     0.00000     0

 19 20  0  0  1  0  0  0  0  0999 V2000
    0.0980    0.1408    0.0000 O   0  0  0  0  0  0  0  0  0
    0.0980   -0.6842    0.0000 C   0  0  0  0  0  0  0  0  0
    0.8125   -1.0967    0.0000 C   0  0  0  0  0  0  0  0  0
    0.8125   -1.9217    0.0000 C   0  0  0  0  0  0  0  0  0
    0.0980   -2.3342    0.0000 N   0  0  0  0  0  0  0  0  0
   -0.6165   -1.9217    0.0000 C   0  0  0  0  0  0  0  0  0
   -0.6165   -1.0967    0.0000 C   0  0  0  0  0  0  0  0  0
    0.0980   -3.1592    0.0000 C   0  0  0  0  0  0  0  0  0
   -0.6165   -3.5717    0.0000 C   0  0  0  0  0  0  0  0  0
   -0.6165   -4.3967    0.0000 O   0  0  0  0  0  0  0  0  0
    0.8125   -3.5717    0.0000 C   0  0  0  0  0  0  0  0  0
    0.8125    0.5533    0.0000 C   0  0  0  0  0  0  0  0  0
    0.8125    1.3783    0.0000 C   0  0  0  0  0  0  0  0  0
    1.5270    1.7908    0.0000 C   0  0  0  0  0  0  0  0  0
    2.2414    1.3783    0.0000 C   0  0  0  0  0  0  0  0  0
    2.2414    0.5533    0.0000 C   0  0  0  0  0  0  0  0  0
    1.5270    0.1408    0.0000 C   0  0  0  0  0  0  0  0  0
    2.9559    1.7908    0.0000 C   0  0  0  0  0  0  0  0  0
    3.6704    2.2033    0.0000 N   0  0  0  0  0  0  0  0  0
  1  2  1  0  0  0  0
  1 12  1  0  0  0  0
  2  3  1  0  0  0  0
  2  7  1  0  0  0  0
  3  4  1  0  0  0  0
  4  5  1  0  0  0  0
  5  6  1  0  0  0  0
  5  8  1  0  0  0  0
  6  7  1  0  0  0  0
  8  9  1  0  0  0  0
  8 11  1  0  0  0  0
  9 10  1  0  0  0  0
 12 13  4  0  0  0  0
 12 17  4  0  0  0  0
 13 14  4  0  0  0  0
 14 15  4  0  0  0  0
 15 16  4  0  0  0  0
 15 18  1  0  0  0  0
 16 17  4  0  0  0  0
 18 19  3  0  0  0  0
M  END
>  <Name_Molregno>
323754

>  <HISTAMINE H3>
6.12

$$$$
323777
  Marvin  02231216192D 0   1.00000     0.00000     0

 24 26  0  0  0  0  0  0  0  0999 V2000
   -3.2426   -0.8601    0.0000 O   0  0  0  0  0  0  0  0  0
   -3.2426   -1.6851    0.0000 C   0  0  0  0  0  0  0  0  0
   -2.5282   -2.0976    0.0000 C   0  0  0  0  0  0  0  0  0
   -2.5282   -2.9226    0.0000 C   0  0  0  0  0  0  0  0  0
   -3.2426   -3.3351    0.0000 N   0  0  0  0  0  0  0  0  0
   -3.9571   -2.9226    0.0000 C   0  0  0  0  0  0  0  0  0
   -3.9571   -2.0976    0.0000 C   0  0  0  0  0  0  0  0  0
   -3.2426   -4.1601    0.0000 C   0  0  0  0  0  0  0  0  0
   -3.9571   -4.5726    0.0000 C   0  0  0  0  0  0  0  0  0
   -2.5282   -4.5726    0.0000 C   0  0  0  0  0  0  0  0  0
   -2.5282   -0.4476    0.0000 C   0  0  0  0  0  0  0  0  0
   -2.5282    0.3774    0.0000 C   0  0  0  0  0  0  0  0  0
   -1.8137    0.7899    0.0000 C   0  0  0  0  0  0  0  0  0
   -1.0992    0.3774    0.0000 C   0  0  0  0  0  0  0  0  0
   -1.0992   -0.4476    0.0000 C   0  0  0  0  0  0  0  0  0
   -1.8137   -0.8601    0.0000 C   0  0  0  0  0  0  0  0  0
   -0.3848    0.7899    0.0000 C   0  0  0  0  0  0  0  0  0
   -0.3848    1.6149    0.0000 N   0  0  0  0  0  0  0  0  0
    0.3297    2.0274    0.0000 C   0  0  0  0  0  0  0  0  0
    0.3297    2.8524    0.0000 C   0  0  0  0  0  0  0  0  0
    1.0442    3.2649    0.0000 C   0  0  0  0  0  0  0  0  0
    1.7587    2.8524    0.0000 C   0  0  0  0  0  0  0  0  0
    1.7587    2.0274    0.0000 C   0  0  0  0  0  0  0  0  0
    1.0442    1.6149    0.0000 C   0  0  0  0  0  0  0  0  0
  1  2  1  0  0  0  0
  1 11  1  0  0  0  0
  2  3  1  0  0  0  0
  2  7  1  0  0  0  0
  3  4  1  0  0  0  0
  4  5  1  0  0  0  0
  5  6  1  0  0  0  0
  5  8  1  0  0  0  0
  6  7  1  0  0  0  0
  8  9  1  0  0  0  0
  8 10  1  0  0  0  0
 11 12  4  0  0  0  0
 11 16  4  0  0  0  0
 12 13  4  0  0  0  0
 13 14  4  0  0  0  0
 14 15  4  0  0  0  0
 14 17  1  0  0  0  0
 15 16  4  0  0  0  0
 17 18  1  0  0  0  0
 18 19  1  0  0  0  0
 19 20  4  0  0  0  0
 19 24  4  0  0  0  0
 20 21  4  0  0  0  0
 21 22  4  0  0  0  0
 22 23  4  0  0  0  0
 23 24  4  0  0  0  0
M  END
>  <Name_Molregno>
323777

>  <HISTAMINE H3>
8.57

$$$$
323783
  Marvin  02231216192D 0   1.00000     0.00000     0

 19 20  0  0  1  0  0  0  0  0999 V2000
    0.0980    0.1408    0.0000 O   0  0  0  0  0  0  0  0  0
    0.0980   -0.6842    0.0000 C   0  0  0  0  0  0  0  0  0
    0.8125   -1.0967    0.0000 C   0  0  0  0  0  0  0  0  0
    0.8125   -1.9217    0.0000 C   0  0  0  0  0  0  0  0  0
    0.0980   -2.3342    0.0000 N   0  0  0  0  0  0  0  0  0
   -0.6165   -1.9217    0.0000 C   0  0  0  0  0  0  0  0  0
   -0.6165   -1.0967    0.0000 C   0  0  0  0  0  0  0  0  0
    0.0980   -3.1592    0.0000 C   0  0  0  0  0  0  0  0  0
   -0.6165   -3.5717    0.0000 C   0  0  0  0  0  0  0  0  0
   -0.6165   -4.3967    0.0000 C   0  0  0  0  0  0  0  0  0
    0.8125   -3.5717    0.0000 C   0  0  0  0  0  0  0  0  0
    0.8125    0.5533    0.0000 C   0  0  0  0  0  0  0  0  0
    0.8125    1.3783    0.0000 C   0  0  0  0  0  0  0  0  0
    1.5270    1.7908    0.0000 C   0  0  0  0  0  0  0  0  0
    2.2414    1.3783    0.0000 C   0  0  0  0  0  0  0  0  0
    2.2414    0.5533    0.0000 C   0  0  0  0  0  0  0  0  0
    1.5270    0.1408    0.0000 C   0  0  0  0  0  0  0  0  0
    2.9559    1.7908    0.0000 C   0  0  0  0  0  0  0  0  0
    3.6704    2.2033    0.0000 N   0  0  0  0  0  0  0  0  0
  1  2  1  0  0  0  0
  1 12  1  0  0  0  0
  2  3  1  0  0  0  0
  2  7  1  0  0  0  0
  3  4  1  0  0  0  0
  4  5  1  0  0  0  0
  5  6  1  0  0  0  0
  5  8  1  0  0  0  0
  6  7  1  0  0  0  0
  8  9  1  0  0  0  0
  8 11  1  0  0  0  0
  9 10  1  0  0  0  0
 12 13  4  0  0  0  0
 12 17  4  0  0  0  0
 13 14  4  0  0  0  0
 14 15  4  0  0  0  0
 15 16  4  0  0  0  0
 15 18  1  0  0  0  0
 16 17  4  0  0  0  0
 18 19  3  0  0  0  0
M  END
>  <Name_Molregno>
323783

>  <HISTAMINE H3>
7.82

$$$$
323879
  Marvin  02231216192D 0   1.00000     0.00000     0

 29 32  0  0  0  0  0  0  0  0999 V2000
   -4.5602   -0.2381    0.0000 O   0  0  0  0  0  0  0  0  0
   -4.5602   -1.0631    0.0000 C   0  0  0  0  0  0  0  0  0
   -3.8458   -1.4756    0.0000 C   0  0  0  0  0  0  0  0  0
   -3.8458   -2.3006    0.0000 C   0  0  0  0  0  0  0  0  0
   -4.5602   -2.7131    0.0000 N   0  0  0  0  0  0  0  0  0
   -5.2747   -2.3006    0.0000 C   0  0  0  0  0  0  0  0  0
   -5.2747   -1.4756    0.0000 C   0  0  0  0  0  0  0  0  0
   -4.5602   -3.5381    0.0000 C   0  0  0  0  0  0  0  0  0
   -5.2747   -3.9506    0.0000 C   0  0  0  0  0  0  0  0  0
   -3.8458   -3.9506    0.0000 C   0  0  0  0  0  0  0  0  0
   -3.8458    0.1744    0.0000 C   0  0  0  0  0  0  0  0  0
   -3.8458    0.9994    0.0000 C   0  0  0  0  0  0  0  0  0
   -3.1313    1.4119    0.0000 C   0  0  0  0  0  0  0  0  0
   -2.4168    0.9994    0.0000 C   0  0  0  0  0  0  0  0  0
   -2.4168    0.1744    0.0000 C   0  0  0  0  0  0  0  0  0
   -3.1313   -0.2381    0.0000 C   0  0  0  0  0  0  0  0  0
   -1.7023    1.4119    0.0000 C   0  0  0  0  0  0  0  0  0
   -0.9879    0.9994    0.0000 N   0  0  0  0  0  0  0  0  0
   -0.2734    1.4119    0.0000 C   0  0  0  0  0  0  0  0  0
    0.4411    0.9994    0.0000 C   0  0  0  0  0  0  0  0  0
    0.4411    0.1744    0.0000 N   0  0  0  0  0  0  0  0  0
   -0.2734   -0.2381    0.0000 C   0  0  0  0  0  0  0  0  0
   -0.9879    0.1744    0.0000 C   0  0  0  0  0  0  0  0  0
    1.1555   -0.2381    0.0000 C   0  0  0  0  0  0  0  0  0
    1.8700    0.1744    0.0000 C   0  0  0  0  0  0  0  0  0
    2.5845   -0.2381    0.0000 C   0  0  0  0  0  0  0  0  0
    2.5845   -1.0631    0.0000 C   0  0  0  0  0  0  0  0  0
    1.8700   -1.4756    0.0000 C   0  0  0  0  0  0  0  0  0
    1.1555   -1.0631    0.0000 C   0  0  0  0  0  0  0  0  0
  1  2  1  0  0  0  0
  1 11  1  0  0  0  0
  2  3  1  0  0  0  0
  2  7  1  0  0  0  0
  3  4  1  0  0  0  0
  4  5  1  0  0  0  0
  5  6  1  0  0  0  0
  5  8  1  0  0  0  0
  6  7  1  0  0  0  0
  8  9  1  0  0  0  0
  8 10  1  0  0  0  0
 11 12  4  0  0  0  0
 11 16  4  0  0  0  0
 12 13  4  0  0  0  0
 13 14  4  0  0  0  0
 14 15  4  0  0  0  0
 14 17  1  0  0  0  0
 15 16  4  0  0  0  0
 17 18  1  0  0  0  0
 18 19  1  0  0  0  0
 18 23  1  0  0  0  0
 19 20  1  0  0  0  0
 20 21  1  0  0  0  0
 21 22  1  0  0  0  0
 21 24  1  0  0  0  0
 22 23  1  0  0  0  0
 24 25  4  0  0  0  0
 24 29  4  0  0  0  0
 25 26  4  0  0  0  0
 26 27  4  0  0  0  0
 27 28  4  0  0  0  0
 28 29  4  0  0  0  0
M  END
>  <Name_Molregno>
323879

>  <HISTAMINE H3>
8.99

$$$$
323987
  Marvin  02231216192D 0   1.00000     0.00000     0

 18 19  0  0  0  0  0  0  0  0999 V2000
   -0.5246   -0.2723    0.0000 O   0  0  0  0  0  0  0  0  0
   -0.5246   -1.0973    0.0000 C   0  0  0  0  0  0  0  0  0
    0.1899   -1.5098    0.0000 C   0  0  0  0  0  0  0  0  0
    0.1899   -2.3348    0.0000 C   0  0  0  0  0  0  0  0  0
   -0.5246   -2.7473    0.0000 N   0  0  0  0  0  0  0  0  0
   -1.2391   -2.3348    0.0000 C   0  0  0  0  0  0  0  0  0
   -1.2391   -1.5098    0.0000 C   0  0  0  0  0  0  0  0  0
   -0.5246   -3.5723    0.0000 C   0  0  0  0  0  0  0  0  0
   -1.2391   -3.9848    0.0000 C   0  0  0  0  0  0  0  0  0
   -1.2391   -4.8098    0.0000 C   0  0  0  0  0  0  0  0  0
    0.1899    0.1402    0.0000 C   0  0  0  0  0  0  0  0  0
    0.1899    0.9652    0.0000 C   0  0  0  0  0  0  0  0  0
    0.9044    1.3777    0.0000 C   0  0  0  0  0  0  0  0  0
    1.6188    0.9652    0.0000 C   0  0  0  0  0  0  0  0  0
    1.6188    0.1402    0.0000 C   0  0  0  0  0  0  0  0  0
    0.9044   -0.2723    0.0000 C   0  0  0  0  0  0  0  0  0
    2.3333    1.3777    0.0000 C   0  0  0  0  0  0  0  0  0
    3.0478    1.7902    0.0000 N   0  0  0  0  0  0  0  0  0
  1  2  1  0  0  0  0
  1 11  1  0  0  0  0
  2  3  1  0  0  0  0
  2  7  1  0  0  0  0
  3  4  1  0  0  0  0
  4  5  1  0  0  0  0
  5  6  1  0  0  0  0
  5  8  1  0  0  0  0
  6  7  1  0  0  0  0
  8  9  1  0  0  0  0
  9 10  1  0  0  0  0
 11 12  4  0  0  0  0
 11 16  4  0  0  0  0
 12 13  4  0  0  0  0
 13 14  4  0  0  0  0
 14 15  4  0  0  0  0
 14 17  1  0  0  0  0
 15 16  4  0  0  0  0
 17 18  3  0  0  0  0
M  END
>  <Name_Molregno>
323987

>  <HISTAMINE H3>
6.97

$$$$
323988
  Marvin  02231216192D 0   1.00000     0.00000     0

 18 19  0  0  0  0  0  0  0  0999 V2000
   -0.1872   -0.1481    0.0000 O   0  0  0  0  0  0  0  0  0
   -0.1872   -0.9731    0.0000 C   0  0  0  0  0  0  0  0  0
    0.5272   -1.3856    0.0000 C   0  0  0  0  0  0  0  0  0
    0.5272   -2.2106    0.0000 C   0  0  0  0  0  0  0  0  0
   -0.1872   -2.6231    0.0000 N   0  0  0  0  0  0  0  0  0
   -0.9017   -2.2106    0.0000 C   0  0  0  0  0  0  0  0  0
   -0.9017   -1.3856    0.0000 C   0  0  0  0  0  0  0  0  0
   -0.1872   -3.4481    0.0000 C   0  0  0  0  0  0  0  0  0
   -0.9017   -3.8606    0.0000 C   0  0  0  0  0  0  0  0  0
    0.5272   -3.8606    0.0000 C   0  0  0  0  0  0  0  0  0
    0.5272    0.2644    0.0000 C   0  0  0  0  0  0  0  0  0
    0.5272    1.0894    0.0000 C   0  0  0  0  0  0  0  0  0
    1.2417    1.5019    0.0000 C   0  0  0  0  0  0  0  0  0
    1.9562    1.0894    0.0000 C   0  0  0  0  0  0  0  0  0
    1.9562    0.2644    0.0000 C   0  0  0  0  0  0  0  0  0
    1.2417   -0.1481    0.0000 C   0  0  0  0  0  0  0  0  0
    2.6706    1.5019    0.0000 C   0  0  0  0  0  0  0  0  0
    3.3851    1.9144    0.0000 N   0  0  0  0  0  0  0  0  0
  1  2  1  0  0  0  0
  1 11  1  0  0  0  0
  2  3  1  0  0  0  0
  2  7  1  0  0  0  0
  3  4  1  0  0  0  0
  4  5  1  0  0  0  0
  5  6  1  0  0  0  0
  5  8  1  0  0  0  0
  6  7  1  0  0  0  0
  8  9  1  0  0  0  0
  8 10  1  0  0  0  0
 11 12  4  0  0  0  0
 11 16  4  0  0  0  0
 12 13  4  0  0  0  0
 13 14  4  0  0  0  0
 14 15  4  0  0  0  0
 14 17  1  0  0  0  0
 15 16  4  0  0  0  0
 17 18  3  0  0  0  0
M  END
>  <Name_Molregno>
323988

>  <HISTAMINE H3>
7.55

$$$$
323989
  Marvin  02231216192D 0   1.00000     0.00000     0

 24 25  0  0  0  0  0  0  0  0999 V2000
   -2.6867    1.4852    0.0000 O   0  0  0  0  0  0  0  0  0
   -3.4012    1.0727    0.0000 C   0  0  0  0  0  0  0  0  0
   -3.4012    0.2477    0.0000 C   0  0  0  0  0  0  0  0  0
   -4.1156   -0.1648    0.0000 C   0  0  0  0  0  0  0  0  0
   -4.8301    0.2477    0.0000 N   0  0  0  0  0  0  0  0  0
   -4.8301    1.0727    0.0000 C   0  0  0  0  0  0  0  0  0
   -4.1156    1.4852    0.0000 C   0  0  0  0  0  0  0  0  0
   -5.5446   -0.1648    0.0000 C   0  0  0  0  0  0  0  0  0
   -6.2590    0.2477    0.0000 C   0  0  0  0  0  0  0  0  0
   -5.5446   -0.9898    0.0000 C   0  0  0  0  0  0  0  0  0
   -1.9722    1.0727    0.0000 C   0  0  0  0  0  0  0  0  0
   -1.2577    1.4852    0.0000 C   0  0  0  0  0  0  0  0  0
   -0.5433    1.0727    0.0000 C   0  0  0  0  0  0  0  0  0
   -0.5433    0.2477    0.0000 C   0  0  0  0  0  0  0  0  0
   -1.2577   -0.1648    0.0000 C   0  0  0  0  0  0  0  0  0
   -1.9722    0.2477    0.0000 C   0  0  0  0  0  0  0  0  0
    0.1712   -0.1648    0.0000 C   0  0  0  0  0  0  0  0  0
    0.8857    0.2477    0.0000 N   0  0  0  0  0  0  0  0  0
    1.6001   -0.1648    0.0000 C   0  0  0  0  0  0  0  0  0
    2.3146    0.2477    0.0000 C   0  0  0  0  0  0  0  0  0
    3.0291   -0.1648    0.0000 N   0  0  0  0  0  0  0  0  0
    3.7436    0.2477    0.0000 C   0  0  0  0  0  0  0  0  0
    3.0291   -0.9898    0.0000 C   0  0  0  0  0  0  0  0  0
    0.8857    1.0727    0.0000 C   0  0  0  0  0  0  0  0  0
  1  2  1  0  0  0  0
  1 11  1  0  0  0  0
  2  3  1  0  0  0  0
  2  7  1  0  0  0  0
  3  4  1  0  0  0  0
  4  5  1  0  0  0  0
  5  6  1  0  0  0  0
  5  8  1  0  0  0  0
  6  7  1  0  0  0  0
  8  9  1  0  0  0  0
  8 10  1  0  0  0  0
 11 12  4  0  0  0  0
 11 16  4  0  0  0  0
 12 13  4  0  0  0  0
 13 14  4  0  0  0  0
 14 15  4  0  0  0  0
 14 17  1  0  0  0  0
 15 16  4  0  0  0  0
 17 18  1  0  0  0  0
 18 19  1  0  0  0  0
 18 24  1  0  0  0  0
 19 20  1  0  0  0  0
 20 21  1  0  0  0  0
 21 22  1  0  0  0  0
 21 23  1  0  0  0  0
M  END
>  <Name_Molregno>
323989

>  <HISTAMINE H3>
9.67

$$$$
324089
  Marvin  02231216192D 0   1.00000     0.00000     0

 15 16  0  0  0  0  0  0  0  0999 V2000
   -1.8008    0.6435    0.0000 O   0  0  0  0  0  0  0  0  0
   -1.8008   -0.1815    0.0000 C   0  0  0  0  0  0  0  0  0
   -1.0864   -0.5940    0.0000 C   0  0  0  0  0  0  0  0  0
   -1.0864   -1.4190    0.0000 C   0  0  0  0  0  0  0  0  0
   -1.8008   -1.8315    0.0000 N   0  0  0  0  0  0  0  0  0
   -2.5153   -1.4190    0.0000 C   0  0  0  0  0  0  0  0  0
   -2.5153   -0.5940    0.0000 C   0  0  0  0  0  0  0  0  0
   -1.0864    1.0560    0.0000 C   0  0  0  0  0  0  0  0  0
   -1.0864    1.8810    0.0000 C   0  0  0  0  0  0  0  0  0
   -0.3719    2.2935    0.0000 C   0  0  0  0  0  0  0  0  0
    0.3426    1.8810    0.0000 C   0  0  0  0  0  0  0  0  0
    0.3426    1.0560    0.0000 C   0  0  0  0  0  0  0  0  0
   -0.3719    0.6435    0.0000 C   0  0  0  0  0  0  0  0  0
    1.0571    2.2935    0.0000 C   0  0  0  0  0  0  0  0  0
    1.7715    2.7060    0.0000 N   0  0  0  0  0  0  0  0  0
  1  2  1  0  0  0  0
  1  8  1  0  0  0  0
  2  3  1  0  0  0  0
  2  7  1  0  0  0  0
  3  4  1  0  0  0  0
  4  5  1  0  0  0  0
  5  6  1  0  0  0  0
  6  7  1  0  0  0  0
  8  9  4  0  0  0  0
  8 13  4  0  0  0  0
  9 10  4  0  0  0  0
 10 11  4  0  0  0  0
 11 12  4  0  0  0  0
 11 14  1  0  0  0  0
 12 13  4  0  0  0  0
 14 15  3  0  0  0  0
M  END
>  <Name_Molregno>
324089

>  <HISTAMINE H3>
5

$$$$
324090
  Marvin  02231216192D 0   1.00000     0.00000     0

 16 17  0  0  0  0  0  0  0  0999 V2000
   -1.5852   -0.4175    0.0000 O   0  0  0  0  0  0  0  0  0
   -1.5852   -1.2425    0.0000 C   0  0  0  0  0  0  0  0  0
   -0.8707   -1.6550    0.0000 C   0  0  0  0  0  0  0  0  0
   -0.8707   -2.4800    0.0000 C   0  0  0  0  0  0  0  0  0
   -1.5852   -2.8925    0.0000 N   0  0  0  0  0  0  0  0  0
   -2.2996   -2.4800    0.0000 C   0  0  0  0  0  0  0  0  0
   -2.2996   -1.6550    0.0000 C   0  0  0  0  0  0  0  0  0
   -1.5852   -3.7175    0.0000 C   0  0  0  0  0  0  0  0  0
   -0.8707   -0.0050    0.0000 C   0  0  0  0  0  0  0  0  0
   -0.8707    0.8200    0.0000 C   0  0  0  0  0  0  0  0  0
   -0.1562    1.2325    0.0000 C   0  0  0  0  0  0  0  0  0
    0.5583    0.8200    0.0000 C   0  0  0  0  0  0  0  0  0
    0.5583   -0.0050    0.0000 C   0  0  0  0  0  0  0  0  0
   -0.1562   -0.4175    0.0000 C   0  0  0  0  0  0  0  0  0
    1.2727    1.2325    0.0000 C   0  0  0  0  0  0  0  0  0
    1.9872    1.6450    0.0000 N   0  0  0  0  0  0  0  0  0
  1  2  1  0  0  0  0
  1  9  1  0  0  0  0
  2  3  1  0  0  0  0
  2  7  1  0  0  0  0
  3  4  1  0  0  0  0
  4  5  1  0  0  0  0
  5  6  1  0  0  0  0
  5  8  1  0  0  0  0
  6  7  1  0  0  0  0
  9 10  4  0  0  0  0
  9 14  4  0  0  0  0
 10 11  4  0  0  0  0
 11 12  4  0  0  0  0
 12 13  4  0  0  0  0
 12 15  1  0  0  0  0
 13 14  4  0  0  0  0
 15 16  3  0  0  0  0
M  END
>  <Name_Molregno>
324090

>  <HISTAMINE H3>
5.37

$$$$
324094
  Marvin  02231216192D 0   1.00000     0.00000     0

 19 20  0  0  0  0  0  0  0  0999 V2000
   -0.7719    1.8715    0.0000 O   0  0  0  0  0  0  0  0  0
   -0.7719    1.0465    0.0000 C   0  0  0  0  0  0  0  0  0
   -0.0574    0.6340    0.0000 C   0  0  0  0  0  0  0  0  0
   -0.0574   -0.1910    0.0000 C   0  0  0  0  0  0  0  0  0
   -0.7719   -0.6035    0.0000 N   0  0  0  0  0  0  0  0  0
   -1.4864   -0.1910    0.0000 C   0  0  0  0  0  0  0  0  0
   -1.4864    0.6340    0.0000 C   0  0  0  0  0  0  0  0  0
   -0.7719   -1.4285    0.0000 C   0  0  0  0  0  0  0  0  0
   -1.4864   -1.8410    0.0000 C   0  0  0  0  0  0  0  0  0
   -1.4864   -2.6660    0.0000 C   0  0  0  0  0  0  0  0  0
   -2.2008   -1.4285    0.0000 C   0  0  0  0  0  0  0  0  0
   -0.0574    2.2840    0.0000 C   0  0  0  0  0  0  0  0  0
   -0.0574    3.1090    0.0000 C   0  0  0  0  0  0  0  0  0
    0.6570    3.5215    0.0000 C   0  0  0  0  0  0  0  0  0
    1.3715    3.1090    0.0000 C   0  0  0  0  0  0  0  0  0
    1.3715    2.2840    0.0000 C   0  0  0  0  0  0  0  0  0
    0.6570    1.8715    0.0000 C   0  0  0  0  0  0  0  0  0
    2.0860    3.5215    0.0000 C   0  0  0  0  0  0  0  0  0
    2.8005    3.9340    0.0000 N   0  0  0  0  0  0  0  0  0
  1  2  1  0  0  0  0
  1 12  1  0  0  0  0
  2  3  1  0  0  0  0
  2  7  1  0  0  0  0
  3  4  1  0  0  0  0
  4  5  1  0  0  0  0
  5  6  1  0  0  0  0
  5  8  1  0  0  0  0
  6  7  1  0  0  0  0
  8  9  1  0  0  0  0
  9 10  1  0  0  0  0
  9 11  1  0  0  0  0
 12 13  4  0  0  0  0
 12 17  4  0  0  0  0
 13 14  4  0  0  0  0
 14 15  4  0  0  0  0
 15 16  4  0  0  0  0
 15 18  1  0  0  0  0
 16 17  4  0  0  0  0
 18 19  3  0  0  0  0
M  END
>  <Name_Molregno>
324094

>  <HISTAMINE H3>
7.18

$$$$
324095
  Marvin  02231216192D 0   1.00000     0.00000     0

 20 22  0  0  0  0  0  0  0  0999 V2000
    0.2839    0.3307    0.0000 O   0  0  0  0  0  0  0  0  0
    0.2839   -0.4943    0.0000 C   0  0  0  0  0  0  0  0  0
    0.9984   -0.9068    0.0000 C   0  0  0  0  0  0  0  0  0
    0.9984   -1.7318    0.0000 C   0  0  0  0  0  0  0  0  0
    0.2839   -2.1443    0.0000 N   0  0  0  0  0  0  0  0  0
   -0.4306   -1.7318    0.0000 C   0  0  0  0  0  0  0  0  0
   -0.4306   -0.9068    0.0000 C   0  0  0  0  0  0  0  0  0
    0.2839   -2.9693    0.0000 C   0  0  0  0  0  0  0  0  0
    0.9513   -3.4542    0.0000 C   0  0  0  0  0  0  0  0  0
    0.6964   -4.2388    0.0000 C   0  0  0  0  0  0  0  0  0
   -0.1286   -4.2388    0.0000 C   0  0  0  0  0  0  0  0  0
   -0.3835   -3.4542    0.0000 C   0  0  0  0  0  0  0  0  0
    0.9984    0.7432    0.0000 C   0  0  0  0  0  0  0  0  0
    0.9984    1.5682    0.0000 C   0  0  0  0  0  0  0  0  0
    1.7128    1.9807    0.0000 C   0  0  0  0  0  0  0  0  0
    2.4273    1.5682    0.0000 C   0  0  0  0  0  0  0  0  0
    2.4273    0.7432    0.0000 C   0  0  0  0  0  0  0  0  0
    1.7128    0.3307    0.0000 C   0  0  0  0  0  0  0  0  0
    3.1418    1.9807    0.0000 C   0  0  0  0  0  0  0  0  0
    3.8562    2.3932    0.0000 N   0  0  0  0  0  0  0  0  0
  1  2  1  0  0  0  0
  1 13  1  0  0  0  0
  2  3  1  0  0  0  0
  2  7  1  0  0  0  0
  3  4  1  0  0  0  0
  4  5  1  0  0  0  0
  5  6  1  0  0  0  0
  5  8  1  0  0  0  0
  6  7  1  0  0  0  0
  8  9  1  0  0  0  0
  8 12  1  0  0  0  0
  9 10  1  0  0  0  0
 10 11  1  0  0  0  0
 11 12  1  0  0  0  0
 13 14  4  0  0  0  0
 13 18  4  0  0  0  0
 14 15  4  0  0  0  0
 15 16  4  0  0  0  0
 16 17  4  0  0  0  0
 16 19  1  0  0  0  0
 17 18  4  0  0  0  0
 19 20  3  0  0  0  0
M  END
>  <Name_Molregno>
324095

>  <HISTAMINE H3>
7.89

$$$$
324123
  Marvin  02231216192D 0   1.00000     0.00000     0

 24 26  0  0  0  0  0  0  0  0999 V2000
   -3.2426   -0.8601    0.0000 O   0  0  0  0  0  0  0  0  0
   -3.2426   -1.6851    0.0000 C   0  0  0  0  0  0  0  0  0
   -2.5282   -2.0976    0.0000 C   0  0  0  0  0  0  0  0  0
   -2.5282   -2.9226    0.0000 C   0  0  0  0  0  0  0  0  0
   -3.2426   -3.3351    0.0000 N   0  0  0  0  0  0  0  0  0
   -3.9571   -2.9226    0.0000 C   0  0  0  0  0  0  0  0  0
   -3.9571   -2.0976    0.0000 C   0  0  0  0  0  0  0  0  0
   -3.2426   -4.1601    0.0000 C   0  0  0  0  0  0  0  0  0
   -3.9571   -4.5726    0.0000 C   0  0  0  0  0  0  0  0  0
   -2.5282   -4.5726    0.0000 C   0  0  0  0  0  0  0  0  0
   -2.5282   -0.4476    0.0000 C   0  0  0  0  0  0  0  0  0
   -2.5282    0.3774    0.0000 C   0  0  0  0  0  0  0  0  0
   -1.8137    0.7899    0.0000 C   0  0  0  0  0  0  0  0  0
   -1.0992    0.3774    0.0000 C   0  0  0  0  0  0  0  0  0
   -1.0992   -0.4476    0.0000 C   0  0  0  0  0  0  0  0  0
   -1.8137   -0.8601    0.0000 C   0  0  0  0  0  0  0  0  0
   -0.3848    0.7899    0.0000 C   0  0  0  0  0  0  0  0  0
   -0.3848    1.6149    0.0000 N   0  0  0  0  0  0  0  0  0
    0.3297    2.0274    0.0000 C   0  0  0  0  0  0  0  0  0
    0.3297    2.8524    0.0000 N   0  0  0  0  0  0  0  0  0
    1.0442    3.2649    0.0000 C   0  0  0  0  0  0  0  0  0
    1.7587    2.8524    0.0000 C   0  0  0  0  0  0  0  0  0
    1.7587    2.0274    0.0000 C   0  0  0  0  0  0  0  0  0
    1.0442    1.6149    0.0000 C   0  0  0  0  0  0  0  0  0
  1  2  1  0  0  0  0
  1 11  1  0  0  0  0
  2  3  1  0  0  0  0
  2  7  1  0  0  0  0
  3  4  1  0  0  0  0
  4  5  1  0  0  0  0
  5  6  1  0  0  0  0
  5  8  1  0  0  0  0
  6  7  1  0  0  0  0
  8  9  1  0  0  0  0
  8 10  1  0  0  0  0
 11 12  4  0  0  0  0
 11 16  4  0  0  0  0
 12 13  4  0  0  0  0
 13 14  4  0  0  0  0
 14 15  4  0  0  0  0
 14 17  1  0  0  0  0
 15 16  4  0  0  0  0
 17 18  1  0  0  0  0
 18 19  1  0  0  0  0
 19 20  4  0  0  0  0
 19 24  4  0  0  0  0
 20 21  4  0  0  0  0
 21 22  4  0  0  0  0
 22 23  4  0  0  0  0
 23 24  4  0  0  0  0
M  END
>  <Name_Molregno>
324123

>  <HISTAMINE H3>
9.13

$$$$
324124
  Marvin  02231216192D 0   1.00000     0.00000     0

 24 26  0  0  0  0  0  0  0  0999 V2000
   -2.7966   -0.5142    0.0000 O   0  0  0  0  0  0  0  0  0
   -2.7966   -1.3392    0.0000 C   0  0  0  0  0  0  0  0  0
   -2.0821   -1.7517    0.0000 C   0  0  0  0  0  0  0  0  0
   -2.0821   -2.5767    0.0000 C   0  0  0  0  0  0  0  0  0
   -2.7966   -2.9892    0.0000 N   0  0  0  0  0  0  0  0  0
   -3.5111   -2.5767    0.0000 C   0  0  0  0  0  0  0  0  0
   -3.5111   -1.7517    0.0000 C   0  0  0  0  0  0  0  0  0
   -2.7966   -3.8142    0.0000 C   0  0  0  0  0  0  0  0  0
   -3.5111   -4.2267    0.0000 C   0  0  0  0  0  0  0  0  0
   -2.0821   -4.2267    0.0000 C   0  0  0  0  0  0  0  0  0
   -2.0821   -0.1017    0.0000 C   0  0  0  0  0  0  0  0  0
   -2.0821    0.7233    0.0000 C   0  0  0  0  0  0  0  0  0
   -1.3676    1.1358    0.0000 C   0  0  0  0  0  0  0  0  0
   -0.6532    0.7233    0.0000 C   0  0  0  0  0  0  0  0  0
   -0.6532   -0.1017    0.0000 C   0  0  0  0  0  0  0  0  0
   -1.3676   -0.5142    0.0000 C   0  0  0  0  0  0  0  0  0
    0.0613    1.1358    0.0000 C   0  0  0  0  0  0  0  0  0
    0.7758    0.7233    0.0000 N   0  0  0  0  0  0  0  0  0
    1.4902    1.1358    0.0000 C   0  0  0  0  0  0  0  0  0
    2.2047    0.7233    0.0000 C   0  0  0  0  0  0  0  0  0
    2.2047   -0.1017    0.0000 N   0  0  0  0  0  0  0  0  0
    1.4902   -0.5142    0.0000 C   0  0  0  0  0  0  0  0  0
    0.7758   -0.1017    0.0000 C   0  0  0  0  0  0  0  0  0
    2.9192   -0.5142    0.0000 C   0  0  0  0  0  0  0  0  0
  1  2  1  0  0  0  0
  1 11  1  0  0  0  0
  2  3  1  0  0  0  0
  2  7  1  0  0  0  0
  3  4  1  0  0  0  0
  4  5  1  0  0  0  0
  5  6  1  0  0  0  0
  5  8  1  0  0  0  0
  6  7  1  0  0  0  0
  8  9  1  0  0  0  0
  8 10  1  0  0  0  0
 11 12  4  0  0  0  0
 11 16  4  0  0  0  0
 12 13  4  0  0  0  0
 13 14  4  0  0  0  0
 14 15  4  0  0  0  0
 14 17  1  0  0  0  0
 15 16  4  0  0  0  0
 17 18  1  0  0  0  0
 18 19  1  0  0  0  0
 18 23  1  0  0  0  0
 19 20  1  0  0  0  0
 20 21  1  0  0  0  0
 21 22  1  0  0  0  0
 21 24  1  0  0  0  0
 22 23  1  0  0  0  0
M  END
>  <Name_Molregno>
324124

>  <HISTAMINE H3>
9.59

$$$$
324188
  Marvin  02231216192D 0   1.00000     0.00000     0

 17 18  0  0  0  0  0  0  0  0999 V2000
   -1.3086   -0.3361    0.0000 O   0  0  0  0  0  0  0  0  0
   -1.3086   -1.1611    0.0000 C   0  0  0  0  0  0  0  0  0
   -0.5941   -1.5736    0.0000 C   0  0  0  0  0  0  0  0  0
   -0.5941   -2.3986    0.0000 C   0  0  0  0  0  0  0  0  0
   -1.3086   -2.8111    0.0000 N   0  0  0  0  0  0  0  0  0
   -2.0231   -2.3986    0.0000 C   0  0  0  0  0  0  0  0  0
   -2.0231   -1.5736    0.0000 C   0  0  0  0  0  0  0  0  0
   -1.3086   -3.6361    0.0000 C   0  0  0  0  0  0  0  0  0
   -2.0231   -4.0486    0.0000 C   0  0  0  0  0  0  0  0  0
   -0.5941    0.0764    0.0000 C   0  0  0  0  0  0  0  0  0
   -0.5941    0.9014    0.0000 C   0  0  0  0  0  0  0  0  0
    0.1204    1.3139    0.0000 C   0  0  0  0  0  0  0  0  0
    0.8348    0.9014    0.0000 C   0  0  0  0  0  0  0  0  0
    0.8348    0.0764    0.0000 C   0  0  0  0  0  0  0  0  0
    0.1204   -0.3361    0.0000 C   0  0  0  0  0  0  0  0  0
    1.5493    1.3139    0.0000 C   0  0  0  0  0  0  0  0  0
    2.2638    1.7264    0.0000 N   0  0  0  0  0  0  0  0  0
  1  2  1  0  0  0  0
  1 10  1  0  0  0  0
  2  3  1  0  0  0  0
  2  7  1  0  0  0  0
  3  4  1  0  0  0  0
  4  5  1  0  0  0  0
  5  6  1  0  0  0  0
  5  8  1  0  0  0  0
  6  7  1  0  0  0  0
  8  9  1  0  0  0  0
 10 11  4  0  0  0  0
 10 15  4  0  0  0  0
 11 12  4  0  0  0  0
 12 13  4  0  0  0  0
 13 14  4  0  0  0  0
 13 16  1  0  0  0  0
 14 15  4  0  0  0  0
 16 17  3  0  0  0  0
M  END
>  <Name_Molregno>
324188

>  <HISTAMINE H3>
7.09

$$$$
324189
  Marvin  02231216192D 0   1.00000     0.00000     0

 30 33  0  0  0  0  0  0  0  0999 V2000
   -4.7829   -0.2199    0.0000 O   0  0  0  0  0  0  0  0  0
   -4.7829   -1.0449    0.0000 C   0  0  0  0  0  0  0  0  0
   -4.0685   -1.4574    0.0000 C   0  0  0  0  0  0  0  0  0
   -4.0685   -2.2824    0.0000 C   0  0  0  0  0  0  0  0  0
   -4.7829   -2.6949    0.0000 N   0  0  0  0  0  0  0  0  0
   -5.4974   -2.2824    0.0000 C   0  0  0  0  0  0  0  0  0
   -5.4974   -1.4574    0.0000 C   0  0  0  0  0  0  0  0  0
   -4.7829   -3.5199    0.0000 C   0  0  0  0  0  0  0  0  0
   -5.4974   -3.9324    0.0000 C   0  0  0  0  0  0  0  0  0
   -4.0685   -3.9324    0.0000 C   0  0  0  0  0  0  0  0  0
   -4.0685    0.1926    0.0000 C   0  0  0  0  0  0  0  0  0
   -4.0685    1.0176    0.0000 C   0  0  0  0  0  0  0  0  0
   -3.3540    1.4301    0.0000 C   0  0  0  0  0  0  0  0  0
   -2.6395    1.0176    0.0000 C   0  0  0  0  0  0  0  0  0
   -2.6395    0.1926    0.0000 C   0  0  0  0  0  0  0  0  0
   -3.3540   -0.2199    0.0000 C   0  0  0  0  0  0  0  0  0
   -1.9251    1.4301    0.0000 C   0  0  0  0  0  0  0  0  0
   -1.2106    1.0176    0.0000 N   0  0  0  0  0  0  0  0  0
   -0.4961    1.4301    0.0000 C   0  0  0  0  0  0  0  0  0
    0.2184    1.0176    0.0000 C   0  0  0  0  0  0  0  0  0
    0.2184    0.1926    0.0000 N   0  0  0  0  0  0  0  0  0
   -0.4961   -0.2199    0.0000 C   0  0  0  0  0  0  0  0  0
   -1.2106    0.1926    0.0000 C   0  0  0  0  0  0  0  0  0
    0.9328   -0.2199    0.0000 C   0  0  0  0  0  0  0  0  0
    0.9328   -1.0449    0.0000 C   0  0  0  0  0  0  0  0  0
    1.6473   -1.4574    0.0000 C   0  0  0  0  0  0  0  0  0
    1.6473   -2.2824    0.0000 C   0  0  0  0  0  0  0  0  0
    0.9328   -2.6949    0.0000 C   0  0  0  0  0  0  0  0  0
    0.2184   -2.2824    0.0000 C   0  0  0  0  0  0  0  0  0
    0.2184   -1.4574    0.0000 C   0  0  0  0  0  0  0  0  0
  1  2  1  0  0  0  0
  1 11  1  0  0  0  0
  2  3  1  0  0  0  0
  2  7  1  0  0  0  0
  3  4  1  0  0  0  0
  4  5  1  0  0  0  0
  5  6  1  0  0  0  0
  5  8  1  0  0  0  0
  6  7  1  0  0  0  0
  8  9  1  0  0  0  0
  8 10  1  0  0  0  0
 11 12  4  0  0  0  0
 11 16  4  0  0  0  0
 12 13  4  0  0  0  0
 13 14  4  0  0  0  0
 14 15  4  0  0  0  0
 14 17  1  0  0  0  0
 15 16  4  0  0  0  0
 17 18  1  0  0  0  0
 18 19  1  0  0  0  0
 18 23  1  0  0  0  0
 19 20  1  0  0  0  0
 20 21  1  0  0  0  0
 21 22  1  0  0  0  0
 21 24  1  0  0  0  0
 22 23  1  0  0  0  0
 24 25  1  0  0  0  0
 25 26  4  0  0  0  0
 25 30  4  0  0  0  0
 26 27  4  0  0  0  0
 27 28  4  0  0  0  0
 28 29  4  0  0  0  0
 29 30  4  0  0  0  0
M  END
>  <Name_Molregno>
324189

>  <HISTAMINE H3>
9.18

$$$$
324233
  Marvin  02231216192D 0   1.00000     0.00000     0

 25 27  0  0  0  0  0  0  0  0999 V2000
   -1.9967    0.7626    0.0000 O   0  0  0  0  0  0  0  0  0
   -1.9967   -0.0624    0.0000 C   0  0  0  0  0  0  0  0  0
   -1.2822   -0.4749    0.0000 C   0  0  0  0  0  0  0  0  0
   -1.2822   -1.2999    0.0000 C   0  0  0  0  0  0  0  0  0
   -1.9967   -1.7124    0.0000 N   0  0  0  0  0  0  0  0  0
   -2.7111   -1.2999    0.0000 C   0  0  0  0  0  0  0  0  0
   -2.7111   -0.4749    0.0000 C   0  0  0  0  0  0  0  0  0
   -1.9967   -2.5374    0.0000 C   0  0  0  0  0  0  0  0  0
   -2.7111   -2.9499    0.0000 C   0  0  0  0  0  0  0  0  0
   -1.2822   -2.9499    0.0000 C   0  0  0  0  0  0  0  0  0
   -1.2822    1.1751    0.0000 C   0  0  0  0  0  0  0  0  0
   -1.2822    2.0001    0.0000 C   0  0  0  0  0  0  0  0  0
   -0.5677    2.4126    0.0000 C   0  0  0  0  0  0  0  0  0
    0.1467    2.0001    0.0000 C   0  0  0  0  0  0  0  0  0
    0.1467    1.1751    0.0000 C   0  0  0  0  0  0  0  0  0
   -0.5677    0.7626    0.0000 C   0  0  0  0  0  0  0  0  0
    0.8612    2.4126    0.0000 C   0  0  0  0  0  0  0  0  0
    0.8612    3.2376    0.0000 N   0  0  0  0  0  0  0  0  0
    0.1179    3.5956    0.0000 C   0  0  0  0  0  0  0  0  0
   -0.0657    4.3999    0.0000 C   0  0  0  0  0  0  0  0  0
    0.4487    5.0449    0.0000 C   0  0  0  0  0  0  0  0  0
    1.2737    5.0449    0.0000 N   0  0  0  0  0  0  0  0  0
    1.7881    4.3999    0.0000 C   0  0  0  0  0  0  0  0  0
    1.6045    3.5956    0.0000 C   0  0  0  0  0  0  0  0  0
    1.6317    5.7882    0.0000 C   0  0  0  0  0  0  0  0  0
  1  2  1  0  0  0  0
  1 11  1  0  0  0  0
  2  3  1  0  0  0  0
  2  7  1  0  0  0  0
  3  4  1  0  0  0  0
  4  5  1  0  0  0  0
  5  6  1  0  0  0  0
  5  8  1  0  0  0  0
  6  7  1  0  0  0  0
  8  9  1  0  0  0  0
  8 10  1  0  0  0  0
 11 12  4  0  0  0  0
 11 16  4  0  0  0  0
 12 13  4  0  0  0  0
 13 14  4  0  0  0  0
 14 15  4  0  0  0  0
 14 17  1  0  0  0  0
 15 16  4  0  0  0  0
 17 18  1  0  0  0  0
 18 19  1  0  0  0  0
 18 24  1  0  0  0  0
 19 20  1  0  0  0  0
 20 21  1  0  0  0  0
 21 22  1  0  0  0  0
 22 23  1  0  0  0  0
 22 25  1  0  0  0  0
 23 24  1  0  0  0  0
M  END
>  <Name_Molregno>
324233

>  <HISTAMINE H3>
9.49

$$$$
324313
  Marvin  02231216192D 0   1.00000     0.00000     0

 23 24  0  0  0  0  0  0  0  0999 V2000
   -2.2870    1.4928    0.0000 O   0  0  0  0  0  0  0  0  0
   -3.0015    1.0803    0.0000 C   0  0  0  0  0  0  0  0  0
   -3.0015    0.2553    0.0000 C   0  0  0  0  0  0  0  0  0
   -3.7160   -0.1572    0.0000 C   0  0  0  0  0  0  0  0  0
   -4.4304    0.2553    0.0000 N   0  0  0  0  0  0  0  0  0
   -4.4304    1.0803    0.0000 C   0  0  0  0  0  0  0  0  0
   -3.7160    1.4928    0.0000 C   0  0  0  0  0  0  0  0  0
   -5.1449   -0.1572    0.0000 C   0  0  0  0  0  0  0  0  0
   -5.8594    0.2553    0.0000 C   0  0  0  0  0  0  0  0  0
   -5.1449   -0.9822    0.0000 C   0  0  0  0  0  0  0  0  0
   -1.5726    1.0803    0.0000 C   0  0  0  0  0  0  0  0  0
   -0.8581    1.4928    0.0000 C   0  0  0  0  0  0  0  0  0
   -0.1436    1.0803    0.0000 C   0  0  0  0  0  0  0  0  0
   -0.1436    0.2553    0.0000 C   0  0  0  0  0  0  0  0  0
   -0.8581   -0.1572    0.0000 C   0  0  0  0  0  0  0  0  0
   -1.5726    0.2553    0.0000 C   0  0  0  0  0  0  0  0  0
    0.5708   -0.1572    0.0000 C   0  0  0  0  0  0  0  0  0
    1.2853    0.2553    0.0000 N   0  0  0  0  0  0  0  0  0
    1.9998   -0.1572    0.0000 C   0  0  0  0  0  0  0  0  0
    2.7143    0.2553    0.0000 C   0  0  0  0  0  0  0  0  0
    3.4287   -0.1572    0.0000 C   0  0  0  0  0  0  0  0  0
    4.1432    0.2553    0.0000 C   0  0  0  0  0  0  0  0  0
    1.2853    1.0803    0.0000 C   0  0  0  0  0  0  0  0  0
  1  2  1  0  0  0  0
  1 11  1  0  0  0  0
  2  3  1  0  0  0  0
  2  7  1  0  0  0  0
  3  4  1  0  0  0  0
  4  5  1  0  0  0  0
  5  6  1  0  0  0  0
  5  8  1  0  0  0  0
  6  7  1  0  0  0  0
  8  9  1  0  0  0  0
  8 10  1  0  0  0  0
 11 12  4  0  0  0  0
 11 16  4  0  0  0  0
 12 13  4  0  0  0  0
 13 14  4  0  0  0  0
 14 15  4  0  0  0  0
 14 17  1  0  0  0  0
 15 16  4  0  0  0  0
 17 18  1  0  0  0  0
 18 19  1  0  0  0  0
 18 23  1  0  0  0  0
 19 20  1  0  0  0  0
 20 21  1  0  0  0  0
 21 22  1  0  0  0  0
M  END
>  <Name_Molregno>
324313

>  <HISTAMINE H3>
9.47

$$$$
324314
  Marvin  02231216192D 0   1.00000     0.00000     0

 22 24  0  0  0  0  0  0  0  0999 V2000
   -0.4404    0.3520    0.0000 O   0  0  0  0  0  0  0  0  0
   -1.1549   -0.0605    0.0000 C   0  0  0  0  0  0  0  0  0
   -1.1549   -0.8855    0.0000 C   0  0  0  0  0  0  0  0  0
   -1.8693   -1.2980    0.0000 C   0  0  0  0  0  0  0  0  0
   -2.5838   -0.8855    0.0000 N   0  0  0  0  0  0  0  0  0
   -2.5838   -0.0605    0.0000 C   0  0  0  0  0  0  0  0  0
   -1.8693    0.3520    0.0000 C   0  0  0  0  0  0  0  0  0
   -3.2983   -1.2980    0.0000 C   0  0  0  0  0  0  0  0  0
   -4.0127   -0.8855    0.0000 C   0  0  0  0  0  0  0  0  0
   -3.2983   -2.1230    0.0000 C   0  0  0  0  0  0  0  0  0
    0.2741   -0.0605    0.0000 C   0  0  0  0  0  0  0  0  0
    0.9885    0.3520    0.0000 C   0  0  0  0  0  0  0  0  0
    1.7030   -0.0605    0.0000 C   0  0  0  0  0  0  0  0  0
    1.7030   -0.8855    0.0000 C   0  0  0  0  0  0  0  0  0
    0.9885   -1.2980    0.0000 C   0  0  0  0  0  0  0  0  0
    0.2741   -0.8855    0.0000 C   0  0  0  0  0  0  0  0  0
    2.4175   -1.2980    0.0000 C   0  0  0  0  0  0  0  0  0
    2.4175   -2.1230    0.0000 N   0  0  0  0  0  0  0  0  0
    3.0849   -2.6079    0.0000 C   0  0  0  0  0  0  0  0  0
    2.8300   -3.3926    0.0000 C   0  0  0  0  0  0  0  0  0
    2.0050   -3.3926    0.0000 C   0  0  0  0  0  0  0  0  0
    1.7501   -2.6079    0.0000 C   0  0  0  0  0  0  0  0  0
  1  2  1  0  0  0  0
  1 11  1  0  0  0  0
  2  3  1  0  0  0  0
  2  7  1  0  0  0  0
  3  4  1  0  0  0  0
  4  5  1  0  0  0  0
  5  6  1  0  0  0  0
  5  8  1  0  0  0  0
  6  7  1  0  0  0  0
  8  9  1  0  0  0  0
  8 10  1  0  0  0  0
 11 12  4  0  0  0  0
 11 16  4  0  0  0  0
 12 13  4  0  0  0  0
 13 14  4  0  0  0  0
 14 15  4  0  0  0  0
 14 17  1  0  0  0  0
 15 16  4  0  0  0  0
 17 18  1  0  0  0  0
 18 19  1  0  0  0  0
 18 22  1  0  0  0  0
 19 20  1  0  0  0  0
 20 21  1  0  0  0  0
 21 22  1  0  0  0  0
M  END
>  <Name_Molregno>
324314

>  <HISTAMINE H3>
9.45

$$$$
324398
  Marvin  02231216192D 0   1.00000     0.00000     0

 23 25  0  0  0  0  0  0  0  0999 V2000
    1.6648   -2.0223    0.0000 O   0  0  0  0  0  0  0  0  0
    0.9503   -1.6098    0.0000 C   0  0  0  0  0  0  0  0  0
    0.9503   -0.7848    0.0000 C   0  0  0  0  0  0  0  0  0
    1.6648   -0.3723    0.0000 N   0  0  0  0  0  0  0  0  0
    2.3793   -0.7848    0.0000 C   0  0  0  0  0  0  0  0  0
    2.3793   -1.6098    0.0000 C   0  0  0  0  0  0  0  0  0
    1.6648    0.4527    0.0000 C   0  0  0  0  0  0  0  0  0
    2.3793    0.8652    0.0000 C   0  0  0  0  0  0  0  0  0
    2.3793    1.6902    0.0000 C   0  0  0  0  0  0  0  0  0
    3.0937    2.1027    0.0000 C   0  0  0  0  0  0  0  0  0
    3.8082    1.6902    0.0000 C   0  0  0  0  0  0  0  0  0
    4.5227    2.1027    0.0000 O   0  0  0  0  0  0  0  0  0
    5.2371    1.6902    0.0000 C   0  0  0  0  0  0  0  0  0
    5.9516    2.1027    0.0000 C   0  0  0  0  0  0  0  0  0
    6.6661    1.6902    0.0000 C   0  0  0  0  0  0  0  0  0
    6.6661    0.8652    0.0000 N   0  0  0  0  0  0  0  0  0
    5.9516    0.4527    0.0000 C   0  0  0  0  0  0  0  0  0
    5.2371    0.8652    0.0000 C   0  0  0  0  0  0  0  0  0
    7.3806    0.4527    0.0000 C   0  0  0  0  0  0  0  0  0
    8.0950    0.8652    0.0000 C   0  0  0  0  0  0  0  0  0
    7.3806   -0.3723    0.0000 C   0  0  0  0  0  0  0  0  0
    3.8082    0.8652    0.0000 C   0  0  0  0  0  0  0  0  0
    3.0937    0.4527    0.0000 C   0  0  0  0  0  0  0  0  0
  1  2  1  0  0  0  0
  1  6  1  0  0  0  0
  2  3  1  0  0  0  0
  3  4  1  0  0  0  0
  4  5  1  0  0  0  0
  4  7  1  0  0  0  0
  5  6  1  0  0  0  0
  7  8  1  0  0  0  0
  8  9  4  0  0  0  0
  8 23  4  0  0  0  0
  9 10  4  0  0  0  0
 10 11  4  0  0  0  0
 11 12  1  0  0  0  0
 11 22  4  0  0  0  0
 12 13  1  0  0  0  0
 13 14  1  0  0  0  0
 13 18  1  0  0  0  0
 14 15  1  0  0  0  0
 15 16  1  0  0  0  0
 16 17  1  0  0  0  0
 16 19  1  0  0  0  0
 17 18  1  0  0  0  0
 19 20  1  0  0  0  0
 19 21  1  0  0  0  0
 22 23  4  0  0  0  0
M  END
>  <Name_Molregno>
324398

>  <HISTAMINE H3>
8.89

$$$$
324399
  Marvin  02231216192D 0   1.00000     0.00000     0

 24 26  0  0  0  0  0  0  0  0999 V2000
   -2.7966   -0.5142    0.0000 O   0  0  0  0  0  0  0  0  0
   -2.7966   -1.3392    0.0000 C   0  0  0  0  0  0  0  0  0
   -2.0821   -1.7517    0.0000 C   0  0  0  0  0  0  0  0  0
   -2.0821   -2.5767    0.0000 C   0  0  0  0  0  0  0  0  0
   -2.7966   -2.9892    0.0000 N   0  0  0  0  0  0  0  0  0
   -3.5111   -2.5767    0.0000 C   0  0  0  0  0  0  0  0  0
   -3.5111   -1.7517    0.0000 C   0  0  0  0  0  0  0  0  0
   -2.7966   -3.8142    0.0000 C   0  0  0  0  0  0  0  0  0
   -3.5111   -4.2267    0.0000 C   0  0  0  0  0  0  0  0  0
   -2.0821   -4.2267    0.0000 C   0  0  0  0  0  0  0  0  0
   -2.0821   -0.1017    0.0000 C   0  0  0  0  0  0  0  0  0
   -2.0821    0.7233    0.0000 C   0  0  0  0  0  0  0  0  0
   -1.3676    1.1358    0.0000 C   0  0  0  0  0  0  0  0  0
   -0.6532    0.7233    0.0000 C   0  0  0  0  0  0  0  0  0
   -0.6532   -0.1017    0.0000 C   0  0  0  0  0  0  0  0  0
   -1.3676   -0.5142    0.0000 C   0  0  0  0  0  0  0  0  0
    0.0613    1.1358    0.0000 C   0  0  0  0  0  0  0  0  0
    0.7758    0.7233    0.0000 N   0  0  0  0  0  0  0  0  0
    1.4902    1.1358    0.0000 C   0  0  0  0  0  0  0  0  0
    2.2047    0.7233    0.0000 C   0  0  0  0  0  0  0  0  0
    2.2047   -0.1017    0.0000 C   0  0  0  0  0  0  0  0  0
    2.9192   -0.5142    0.0000 O   0  0  0  0  0  0  0  0  0
    1.4902   -0.5142    0.0000 C   0  0  0  0  0  0  0  0  0
    0.7758   -0.1017    0.0000 C   0  0  0  0  0  0  0  0  0
  1  2  1  0  0  0  0
  1 11  1  0  0  0  0
  2  3  1  0  0  0  0
  2  7  1  0  0  0  0
  3  4  1  0  0  0  0
  4  5  1  0  0  0  0
  5  6  1  0  0  0  0
  5  8  1  0  0  0  0
  6  7  1  0  0  0  0
  8  9  1  0  0  0  0
  8 10  1  0  0  0  0
 11 12  4  0  0  0  0
 11 16  4  0  0  0  0
 12 13  4  0  0  0  0
 13 14  4  0  0  0  0
 14 15  4  0  0  0  0
 14 17  1  0  0  0  0
 15 16  4  0  0  0  0
 17 18  1  0  0  0  0
 18 19  1  0  0  0  0
 18 24  1  0  0  0  0
 19 20  1  0  0  0  0
 20 21  1  0  0  0  0
 21 22  1  0  0  0  0
 21 23  1  0  0  0  0
 23 24  1  0  0  0  0
M  END
>  <Name_Molregno>
324399

>  <HISTAMINE H3>
9.48

$$$$
324438
  Marvin  02231216192D 0   1.00000     0.00000     0

 21 23  0  0  0  0  0  0  0  0999 V2000
    0.4957    0.5498    0.0000 O   0  0  0  0  0  0  0  0  0
    0.4957   -0.2752    0.0000 C   0  0  0  0  0  0  0  0  0
    1.2101   -0.6877    0.0000 C   0  0  0  0  0  0  0  0  0
    1.2101   -1.5127    0.0000 C   0  0  0  0  0  0  0  0  0
    0.4957   -1.9252    0.0000 N   0  0  0  0  0  0  0  0  0
   -0.2188   -1.5127    0.0000 C   0  0  0  0  0  0  0  0  0
   -0.2188   -0.6877    0.0000 C   0  0  0  0  0  0  0  0  0
    0.4957   -2.7502    0.0000 C   0  0  0  0  0  0  0  0  0
    1.2101   -3.1627    0.0000 C   0  0  0  0  0  0  0  0  0
    1.2101   -3.9877    0.0000 C   0  0  0  0  0  0  0  0  0
    0.4957   -4.4002    0.0000 C   0  0  0  0  0  0  0  0  0
   -0.2188   -3.9877    0.0000 C   0  0  0  0  0  0  0  0  0
   -0.2188   -3.1627    0.0000 C   0  0  0  0  0  0  0  0  0
    1.2101    0.9623    0.0000 C   0  0  0  0  0  0  0  0  0
    1.2101    1.7873    0.0000 C   0  0  0  0  0  0  0  0  0
    1.9246    2.1998    0.0000 C   0  0  0  0  0  0  0  0  0
    2.6391    1.7873    0.0000 C   0  0  0  0  0  0  0  0  0
    2.6391    0.9623    0.0000 C   0  0  0  0  0  0  0  0  0
    1.9246    0.5498    0.0000 C   0  0  0  0  0  0  0  0  0
    3.3535    2.1998    0.0000 C   0  0  0  0  0  0  0  0  0
    4.0680    2.6123    0.0000 N   0  0  0  0  0  0  0  0  0
  1  2  1  0  0  0  0
  1 14  1  0  0  0  0
  2  3  1  0  0  0  0
  2  7  1  0  0  0  0
  3  4  1  0  0  0  0
  4  5  1  0  0  0  0
  5  6  1  0  0  0  0
  5  8  1  0  0  0  0
  6  7  1  0  0  0  0
  8  9  1  0  0  0  0
  8 13  1  0  0  0  0
  9 10  1  0  0  0  0
 10 11  1  0  0  0  0
 11 12  1  0  0  0  0
 12 13  1  0  0  0  0
 14 15  4  0  0  0  0
 14 19  4  0  0  0  0
 15 16  4  0  0  0  0
 16 17  4  0  0  0  0
 17 18  4  0  0  0  0
 17 20  1  0  0  0  0
 18 19  4  0  0  0  0
 20 21  3  0  0  0  0
M  END
>  <Name_Molregno>
324438

>  <HISTAMINE H3>
7.49

$$$$
324439
  Marvin  02231216192D 0   1.00000     0.00000     0

 22 24  0  0  0  0  0  0  0  0999 V2000
    0.1163    0.0682    0.0000 O   0  0  0  0  0  0  0  0  0
    0.1163   -0.7568    0.0000 C   0  0  0  0  0  0  0  0  0
    0.8308   -1.1693    0.0000 C   0  0  0  0  0  0  0  0  0
    0.8308   -1.9943    0.0000 C   0  0  0  0  0  0  0  0  0
    0.1163   -2.4068    0.0000 N   0  0  0  0  0  0  0  0  0
   -0.5981   -1.9943    0.0000 C   0  0  0  0  0  0  0  0  0
   -0.5981   -1.1693    0.0000 C   0  0  0  0  0  0  0  0  0
    0.1163   -3.2318    0.0000 C   0  0  0  0  0  0  0  0  0
   -0.5981   -3.6443    0.0000 C   0  0  0  0  0  0  0  0  0
   -0.5981   -4.4693    0.0000 C   0  0  0  0  0  0  0  0  0
   -1.3126   -4.8818    0.0000 C   0  0  0  0  0  0  0  0  0
   -2.0271   -4.4693    0.0000 C   0  0  0  0  0  0  0  0  0
   -2.0271   -3.6443    0.0000 C   0  0  0  0  0  0  0  0  0
   -1.3126   -3.2318    0.0000 C   0  0  0  0  0  0  0  0  0
    0.8308    0.4807    0.0000 C   0  0  0  0  0  0  0  0  0
    0.8308    1.3057    0.0000 C   0  0  0  0  0  0  0  0  0
    1.5453    1.7182    0.0000 C   0  0  0  0  0  0  0  0  0
    2.2598    1.3057    0.0000 C   0  0  0  0  0  0  0  0  0
    2.2598    0.4807    0.0000 C   0  0  0  0  0  0  0  0  0
    1.5453    0.0682    0.0000 C   0  0  0  0  0  0  0  0  0
    2.9742    1.7182    0.0000 C   0  0  0  0  0  0  0  0  0
    3.6887    2.1307    0.0000 N   0  0  0  0  0  0  0  0  0
  1  2  1  0  0  0  0
  1 15  1  0  0  0  0
  2  3  1  0  0  0  0
  2  7  1  0  0  0  0
  3  4  1  0  0  0  0
  4  5  1  0  0  0  0
  5  6  1  0  0  0  0
  5  8  1  0  0  0  0
  6  7  1  0  0  0  0
  8  9  1  0  0  0  0
  9 10  4  0  0  0  0
  9 14  4  0  0  0  0
 10 11  4  0  0  0  0
 11 12  4  0  0  0  0
 12 13  4  0  0  0  0
 13 14  4  0  0  0  0
 15 16  4  0  0  0  0
 15 20  4  0  0  0  0
 16 17  4  0  0  0  0
 17 18  4  0  0  0  0
 18 19  4  0  0  0  0
 18 21  1  0  0  0  0
 19 20  4  0  0  0  0
 21 22  3  0  0  0  0
M  END
>  <Name_Molregno>
324439

>  <HISTAMINE H3>
5.27

$$$$
324538
  Marvin  02231216192D 0   1.00000     0.00000     0

 19 21  0  0  1  0  0  0  0  0999 V2000
   -0.0307   -0.2015    0.0000 O   0  0  0  0  0  0  0  0  0
    0.7539    0.0535    0.0000 C   0  0  0  0  0  0  0  0  0
    0.7539    0.8785    0.0000 C   0  0  0  0  0  0  0  0  0
    1.4684    1.2910    0.0000 C   0  0  0  0  0  0  0  0  0
    2.1829    0.8785    0.0000 C   0  0  0  0  0  0  0  0  0
    2.1829    0.0535    0.0000 C   0  0  0  0  0  0  0  0  0
    1.4684   -0.3590    0.0000 C   0  0  0  0  0  0  0  0  0
    2.8974    1.2910    0.0000 C   0  0  0  0  0  0  0  0  0
    3.6118    1.7035    0.0000 N   0  0  0  0  0  0  0  0  0
   -0.0307    1.1334    0.0000 C   0  0  0  0  0  0  0  0  0
   -0.5156    0.4660    0.0000 C   0  0  0  0  0  0  0  0  0
   -1.3406    0.4660    0.0000 C   0  0  0  0  0  0  0  0  0
   -1.7531   -0.2485    0.0000 C   0  0  0  0  0  0  0  0  0
   -2.5781   -0.2485    0.0000 N   0  0  0  0  0  0  0  0  0
   -3.0630   -0.9159    0.0000 C   0  0  0  0  0  0  0  0  0
   -3.8476   -0.6610    0.0000 C   0  0  0  0  0  0  0  0  0
   -3.8476    0.1640    0.0000 C   0  0  0  0  0  0  0  0  0
   -3.0630    0.4189    0.0000 C   0  0  0  0  0  0  0  0  0
   -2.8081    1.2036    0.0000 C   0  0  0  0  0  0  0  0  0
  1  2  4  0  0  0  0
  1 11  4  0  0  0  0
  2  3  4  0  0  0  0
  2  7  4  0  0  0  0
  3  4  4  0  0  0  0
  3 10  4  0  0  0  0
  4  5  4  0  0  0  0
  5  6  4  0  0  0  0
  5  8  1  0  0  0  0
  6  7  4  0  0  0  0
  8  9  3  0  0  0  0
 10 11  4  0  0  0  0
 11 12  1  0  0  0  0
 12 13  1  0  0  0  0
 13 14  1  0  0  0  0
 14 15  1  0  0  0  0
 14 18  1  0  0  0  0
 15 16  1  0  0  0  0
 16 17  1  0  0  0  0
 17 18  1  0  0  0  0
 18 19  1  0  0  0  0
M  END
>  <Name_Molregno>
324538

>  <HISTAMINE H3>
9.35

$$$$
324578
  Marvin  02231216192D 0   1.00000     0.00000     0

 20 21  0  0  0  0  0  0  0  0999 V2000
   -0.8609   -0.4377    0.0000 O   0  0  0  0  0  0  0  0  0
   -0.8609   -1.2627    0.0000 C   0  0  0  0  0  0  0  0  0
   -0.1464   -1.6752    0.0000 C   0  0  0  0  0  0  0  0  0
   -0.1464   -2.5002    0.0000 C   0  0  0  0  0  0  0  0  0
   -0.8609   -2.9127    0.0000 N   0  0  0  0  0  0  0  0  0
   -1.5753   -2.5002    0.0000 C   0  0  0  0  0  0  0  0  0
   -1.5753   -1.6752    0.0000 C   0  0  0  0  0  0  0  0  0
   -0.8609   -3.7377    0.0000 C   0  0  0  0  0  0  0  0  0
   -1.5753   -4.1502    0.0000 C   0  0  0  0  0  0  0  0  0
   -0.1464   -4.1502    0.0000 C   0  0  0  0  0  0  0  0  0
   -0.1464   -0.0252    0.0000 C   0  0  0  0  0  0  0  0  0
   -0.1464    0.7998    0.0000 C   0  0  0  0  0  0  0  0  0
    0.5681    1.2123    0.0000 C   0  0  0  0  0  0  0  0  0
    1.2826    0.7998    0.0000 C   0  0  0  0  0  0  0  0  0
    1.2826   -0.0252    0.0000 C   0  0  0  0  0  0  0  0  0
    0.5681   -0.4377    0.0000 C   0  0  0  0  0  0  0  0  0
    1.9970    1.2123    0.0000 C   0  0  0  0  0  0  0  0  0
    2.7115    0.7998    0.0000 N   0  0  0  0  0  0  0  0  0
    3.4260    1.2123    0.0000 C   0  0  0  0  0  0  0  0  0
    2.7115   -0.0252    0.0000 C   0  0  0  0  0  0  0  0  0
  1  2  1  0  0  0  0
  1 11  1  0  0  0  0
  2  3  1  0  0  0  0
  2  7  1  0  0  0  0
  3  4  1  0  0  0  0
  4  5  1  0  0  0  0
  5  6  1  0  0  0  0
  5  8  1  0  0  0  0
  6  7  1  0  0  0  0
  8  9  1  0  0  0  0
  8 10  1  0  0  0  0
 11 12  4  0  0  0  0
 11 16  4  0  0  0  0
 12 13  4  0  0  0  0
 13 14  4  0  0  0  0
 14 15  4  0  0  0  0
 14 17  1  0  0  0  0
 15 16  4  0  0  0  0
 17 18  1  0  0  0  0
 18 19  1  0  0  0  0
 18 20  1  0  0  0  0
M  END
>  <Name_Molregno>
324578

>  <HISTAMINE H3>
8.93

$$$$
324579
  Marvin  02231216192D 0   1.00000     0.00000     0

 22 23  0  0  0  0  0  0  0  0999 V2000
   -1.1900   -1.2453    0.0000 O   0  0  0  0  0  0  0  0  0
   -1.1900   -2.0703    0.0000 C   0  0  0  0  0  0  0  0  0
   -0.4755   -2.4828    0.0000 C   0  0  0  0  0  0  0  0  0
   -0.4755   -3.3078    0.0000 C   0  0  0  0  0  0  0  0  0
   -1.1900   -3.7203    0.0000 N   0  0  0  0  0  0  0  0  0
   -1.9045   -3.3078    0.0000 C   0  0  0  0  0  0  0  0  0
   -1.9045   -2.4828    0.0000 C   0  0  0  0  0  0  0  0  0
   -1.1900   -4.5453    0.0000 C   0  0  0  0  0  0  0  0  0
   -1.9045   -4.9578    0.0000 C   0  0  0  0  0  0  0  0  0
   -0.4755   -4.9578    0.0000 C   0  0  0  0  0  0  0  0  0
   -0.4755   -0.8328    0.0000 C   0  0  0  0  0  0  0  0  0
   -0.4755   -0.0078    0.0000 C   0  0  0  0  0  0  0  0  0
    0.2389    0.4047    0.0000 C   0  0  0  0  0  0  0  0  0
    0.9534   -0.0078    0.0000 C   0  0  0  0  0  0  0  0  0
    0.9534   -0.8328    0.0000 C   0  0  0  0  0  0  0  0  0
    0.2389   -1.2453    0.0000 C   0  0  0  0  0  0  0  0  0
    1.6679    0.4047    0.0000 C   0  0  0  0  0  0  0  0  0
    1.6679    1.2297    0.0000 N   0  0  0  0  0  0  0  0  0
    2.3824    1.6422    0.0000 C   0  0  0  0  0  0  0  0  0
    2.3824    2.4672    0.0000 C   0  0  0  0  0  0  0  0  0
    0.9534    1.6422    0.0000 C   0  0  0  0  0  0  0  0  0
    0.9534    2.4672    0.0000 C   0  0  0  0  0  0  0  0  0
  1  2  1  0  0  0  0
  1 11  1  0  0  0  0
  2  3  1  0  0  0  0
  2  7  1  0  0  0  0
  3  4  1  0  0  0  0
  4  5  1  0  0  0  0
  5  6  1  0  0  0  0
  5  8  1  0  0  0  0
  6  7  1  0  0  0  0
  8  9  1  0  0  0  0
  8 10  1  0  0  0  0
 11 12  4  0  0  0  0
 11 16  4  0  0  0  0
 12 13  4  0  0  0  0
 13 14  4  0  0  0  0
 14 15  4  0  0  0  0
 14 17  1  0  0  0  0
 15 16  4  0  0  0  0
 17 18  1  0  0  0  0
 18 19  1  0  0  0  0
 18 21  1  0  0  0  0
 19 20  1  0  0  0  0
 21 22  1  0  0  0  0
M  END
>  <Name_Molregno>
324579

>  <HISTAMINE H3>
9.33

$$$$
324668
  Marvin  02231216192D 0   1.00000     0.00000     0

 23 25  0  0  0  0  0  0  0  0999 V2000
   -1.8547   -0.8168    0.0000 O   0  0  0  0  0  0  0  0  0
   -1.8547   -1.6418    0.0000 C   0  0  0  0  0  0  0  0  0
   -1.1402   -2.0543    0.0000 C   0  0  0  0  0  0  0  0  0
   -1.1402   -2.8793    0.0000 C   0  0  0  0  0  0  0  0  0
   -1.8547   -3.2918    0.0000 N   0  0  0  0  0  0  0  0  0
   -2.5691   -2.8793    0.0000 C   0  0  0  0  0  0  0  0  0
   -2.5691   -2.0543    0.0000 C   0  0  0  0  0  0  0  0  0
   -1.8547   -4.1168    0.0000 C   0  0  0  0  0  0  0  0  0
   -2.5691   -4.5293    0.0000 C   0  0  0  0  0  0  0  0  0
   -1.1402   -4.5293    0.0000 C   0  0  0  0  0  0  0  0  0
   -1.1402   -0.4043    0.0000 C   0  0  0  0  0  0  0  0  0
   -1.1402    0.4207    0.0000 C   0  0  0  0  0  0  0  0  0
   -0.4257    0.8332    0.0000 C   0  0  0  0  0  0  0  0  0
    0.2888    0.4207    0.0000 C   0  0  0  0  0  0  0  0  0
    0.2888   -0.4043    0.0000 C   0  0  0  0  0  0  0  0  0
   -0.4257   -0.8168    0.0000 C   0  0  0  0  0  0  0  0  0
    1.0032    0.8332    0.0000 C   0  0  0  0  0  0  0  0  0
    1.7177    0.4207    0.0000 N   0  0  0  0  0  0  0  0  0
    2.4322    0.8332    0.0000 C   0  0  0  0  0  0  0  0  0
    3.1466    0.4207    0.0000 C   0  0  0  0  0  0  0  0  0
    3.1466   -0.4043    0.0000 C   0  0  0  0  0  0  0  0  0
    2.4322   -0.8168    0.0000 C   0  0  0  0  0  0  0  0  0
    1.7177   -0.4043    0.0000 C   0  0  0  0  0  0  0  0  0
  1  2  1  0  0  0  0
  1 11  1  0  0  0  0
  2  3  1  0  0  0  0
  2  7  1  0  0  0  0
  3  4  1  0  0  0  0
  4  5  1  0  0  0  0
  5  6  1  0  0  0  0
  5  8  1  0  0  0  0
  6  7  1  0  0  0  0
  8  9  1  0  0  0  0
  8 10  1  0  0  0  0
 11 12  4  0  0  0  0
 11 16  4  0  0  0  0
 12 13  4  0  0  0  0
 13 14  4  0  0  0  0
 14 15  4  0  0  0  0
 14 17  1  0  0  0  0
 15 16  4  0  0  0  0
 17 18  1  0  0  0  0
 18 19  1  0  0  0  0
 18 23  1  0  0  0  0
 19 20  1  0  0  0  0
 20 21  1  0  0  0  0
 21 22  1  0  0  0  0
 22 23  1  0  0  0  0
M  END
>  <Name_Molregno>
324668

>  <HISTAMINE H3>
9.9

$$$$
324669
  Marvin  02231216192D 0   1.00000     0.00000     0

 24 26  0  0  0  0  0  0  0  0999 V2000
   -2.1712    1.6352    0.0000 O   0  0  0  0  0  0  0  0  0
   -2.1712    0.8102    0.0000 C   0  0  0  0  0  0  0  0  0
   -1.4567    0.3977    0.0000 C   0  0  0  0  0  0  0  0  0
   -1.4567   -0.4273    0.0000 C   0  0  0  0  0  0  0  0  0
   -2.1712   -0.8398    0.0000 N   0  0  0  0  0  0  0  0  0
   -2.8857   -0.4273    0.0000 C   0  0  0  0  0  0  0  0  0
   -2.8857    0.3977    0.0000 C   0  0  0  0  0  0  0  0  0
   -2.1712   -1.6648    0.0000 C   0  0  0  0  0  0  0  0  0
   -2.8857   -2.0773    0.0000 C   0  0  0  0  0  0  0  0  0
   -1.4567   -2.0773    0.0000 C   0  0  0  0  0  0  0  0  0
   -1.4567    2.0477    0.0000 C   0  0  0  0  0  0  0  0  0
   -1.4567    2.8727    0.0000 C   0  0  0  0  0  0  0  0  0
   -0.7423    3.2852    0.0000 C   0  0  0  0  0  0  0  0  0
   -0.0278    2.8727    0.0000 C   0  0  0  0  0  0  0  0  0
   -0.0278    2.0477    0.0000 C   0  0  0  0  0  0  0  0  0
   -0.7423    1.6352    0.0000 C   0  0  0  0  0  0  0  0  0
    0.6867    3.2852    0.0000 C   0  0  0  0  0  0  0  0  0
    1.4011    2.8727    0.0000 N   0  0  0  0  0  0  0  0  0
    2.0828    3.3375    0.0000 C   0  0  0  0  0  0  0  0  0
    2.8711    3.0943    0.0000 C   0  0  0  0  0  0  0  0  0
    3.1726    2.3263    0.0000 C   0  0  0  0  0  0  0  0  0
    2.7601    1.6119    0.0000 C   0  0  0  0  0  0  0  0  0
    1.9443    1.4889    0.0000 C   0  0  0  0  0  0  0  0  0
    1.3395    2.0500    0.0000 C   0  0  0  0  0  0  0  0  0
  1  2  1  0  0  0  0
  1 11  1  0  0  0  0
  2  3  1  0  0  0  0
  2  7  1  0  0  0  0
  3  4  1  0  0  0  0
  4  5  1  0  0  0  0
  5  6  1  0  0  0  0
  5  8  1  0  0  0  0
  6  7  1  0  0  0  0
  8  9  1  0  0  0  0
  8 10  1  0  0  0  0
 11 12  4  0  0  0  0
 11 16  4  0  0  0  0
 12 13  4  0  0  0  0
 13 14  4  0  0  0  0
 14 15  4  0  0  0  0
 14 17  1  0  0  0  0
 15 16  4  0  0  0  0
 17 18  1  0  0  0  0
 18 19  1  0  0  0  0
 18 24  1  0  0  0  0
 19 20  1  0  0  0  0
 20 21  1  0  0  0  0
 21 22  1  0  0  0  0
 22 23  1  0  0  0  0
 23 24  1  0  0  0  0
M  END
>  <Name_Molregno>
324669

>  <HISTAMINE H3>
9.76

$$$$
324749
  Marvin  02231216192D 0   1.00000     0.00000     0

 25 27  0  0  0  0  0  0  0  0999 V2000
   -3.1902    1.2234    0.0000 O   0  0  0  0  0  0  0  0  0
   -3.1902    0.3984    0.0000 C   0  0  0  0  0  0  0  0  0
   -2.4757   -0.0141    0.0000 C   0  0  0  0  0  0  0  0  0
   -2.4757   -0.8391    0.0000 C   0  0  0  0  0  0  0  0  0
   -3.1902   -1.2516    0.0000 N   0  0  0  0  0  0  0  0  0
   -3.9047   -0.8391    0.0000 C   0  0  0  0  0  0  0  0  0
   -3.9047   -0.0141    0.0000 C   0  0  0  0  0  0  0  0  0
   -3.1902   -2.0766    0.0000 C   0  0  0  0  0  0  0  0  0
   -3.9047   -2.4891    0.0000 C   0  0  0  0  0  0  0  0  0
   -2.4757   -2.4891    0.0000 C   0  0  0  0  0  0  0  0  0
   -2.4757    1.6359    0.0000 C   0  0  0  0  0  0  0  0  0
   -2.4757    2.4609    0.0000 C   0  0  0  0  0  0  0  0  0
   -1.7613    2.8734    0.0000 C   0  0  0  0  0  0  0  0  0
   -1.0468    2.4609    0.0000 C   0  0  0  0  0  0  0  0  0
   -1.0468    1.6359    0.0000 C   0  0  0  0  0  0  0  0  0
   -1.7613    1.2234    0.0000 C   0  0  0  0  0  0  0  0  0
   -0.3323    2.8734    0.0000 C   0  0  0  0  0  0  0  0  0
    0.3822    2.4609    0.0000 N   0  0  0  0  0  0  0  0  0
    1.0966    2.8734    0.0000 C   0  0  0  0  0  0  0  0  0
    1.8111    2.4609    0.0000 C   0  0  0  0  0  0  0  0  0
    1.8111    1.6359    0.0000 C   0  0  0  0  0  0  0  0  0
    1.0966    1.2234    0.0000 C   0  0  0  0  0  0  0  0  0
    0.3822    1.6359    0.0000 C   0  0  0  0  0  0  0  0  0
    2.5256    1.2234    0.0000 C   0  0  0  0  0  0  0  0  0
    3.2400    1.6359    0.0000 O   0  0  0  0  0  0  0  0  0
  1  2  1  0  0  0  0
  1 11  1  0  0  0  0
  2  3  1  0  0  0  0
  2  7  1  0  0  0  0
  3  4  1  0  0  0  0
  4  5  1  0  0  0  0
  5  6  1  0  0  0  0
  5  8  1  0  0  0  0
  6  7  1  0  0  0  0
  8  9  1  0  0  0  0
  8 10  1  0  0  0  0
 11 12  4  0  0  0  0
 11 16  4  0  0  0  0
 12 13  4  0  0  0  0
 13 14  4  0  0  0  0
 14 15  4  0  0  0  0
 14 17  1  0  0  0  0
 15 16  4  0  0  0  0
 17 18  1  0  0  0  0
 18 19  1  0  0  0  0
 18 23  1  0  0  0  0
 19 20  1  0  0  0  0
 20 21  1  0  0  0  0
 21 22  1  0  0  0  0
 21 24  1  0  0  0  0
 22 23  1  0  0  0  0
 24 25  1  0  0  0  0
M  END
>  <Name_Molregno>
324749

>  <HISTAMINE H3>
9.59

$$$$
324750
  Marvin  02231216192D 0   1.00000     0.00000     0

 30 33  0  0  0  0  0  0  0  0999 V2000
   -4.7829    1.4849    0.0000 O   0  0  0  0  0  0  0  0  0
   -4.7829    0.6599    0.0000 C   0  0  0  0  0  0  0  0  0
   -4.0685    0.2474    0.0000 C   0  0  0  0  0  0  0  0  0
   -4.0685   -0.5776    0.0000 C   0  0  0  0  0  0  0  0  0
   -4.7829   -0.9901    0.0000 N   0  0  0  0  0  0  0  0  0
   -5.4974   -0.5776    0.0000 C   0  0  0  0  0  0  0  0  0
   -5.4974    0.2474    0.0000 C   0  0  0  0  0  0  0  0  0
   -4.7829   -1.8151    0.0000 C   0  0  0  0  0  0  0  0  0
   -5.4974   -2.2276    0.0000 C   0  0  0  0  0  0  0  0  0
   -4.0685   -2.2276    0.0000 C   0  0  0  0  0  0  0  0  0
   -4.0685    1.8974    0.0000 C   0  0  0  0  0  0  0  0  0
   -4.0685    2.7224    0.0000 C   0  0  0  0  0  0  0  0  0
   -3.3540    3.1349    0.0000 C   0  0  0  0  0  0  0  0  0
   -2.6395    2.7224    0.0000 C   0  0  0  0  0  0  0  0  0
   -2.6395    1.8974    0.0000 C   0  0  0  0  0  0  0  0  0
   -3.3540    1.4849    0.0000 C   0  0  0  0  0  0  0  0  0
   -1.9251    3.1349    0.0000 C   0  0  0  0  0  0  0  0  0
   -1.2106    2.7224    0.0000 N   0  0  0  0  0  0  0  0  0
   -0.4961    3.1349    0.0000 C   0  0  0  0  0  0  0  0  0
    0.2184    2.7224    0.0000 C   0  0  0  0  0  0  0  0  0
    0.2184    1.8974    0.0000 C   0  0  0  0  0  0  0  0  0
   -0.4961    1.4849    0.0000 C   0  0  0  0  0  0  0  0  0
   -1.2106    1.8974    0.0000 C   0  0  0  0  0  0  0  0  0
    0.9328    1.4849    0.0000 C   0  0  0  0  0  0  0  0  0
    0.9328    0.6599    0.0000 C   0  0  0  0  0  0  0  0  0
    1.6473    0.2474    0.0000 C   0  0  0  0  0  0  0  0  0
    1.6473   -0.5776    0.0000 C   0  0  0  0  0  0  0  0  0
    0.9328   -0.9901    0.0000 C   0  0  0  0  0  0  0  0  0
    0.2184   -0.5776    0.0000 C   0  0  0  0  0  0  0  0  0
    0.2184    0.2474    0.0000 C   0  0  0  0  0  0  0  0  0
  1  2  1  0  0  0  0
  1 11  1  0  0  0  0
  2  3  1  0  0  0  0
  2  7  1  0  0  0  0
  3  4  1  0  0  0  0
  4  5  1  0  0  0  0
  5  6  1  0  0  0  0
  5  8  1  0  0  0  0
  6  7  1  0  0  0  0
  8  9  1  0  0  0  0
  8 10  1  0  0  0  0
 11 12  4  0  0  0  0
 11 16  4  0  0  0  0
 12 13  4  0  0  0  0
 13 14  4  0  0  0  0
 14 15  4  0  0  0  0
 14 17  1  0  0  0  0
 15 16  4  0  0  0  0
 17 18  1  0  0  0  0
 18 19  1  0  0  0  0
 18 23  1  0  0  0  0
 19 20  1  0  0  0  0
 20 21  1  0  0  0  0
 21 22  1  0  0  0  0
 21 24  1  0  0  0  0
 22 23  1  0  0  0  0
 24 25  1  0  0  0  0
 25 26  4  0  0  0  0
 25 30  4  0  0  0  0
 26 27  4  0  0  0  0
 27 28  4  0  0  0  0
 28 29  4  0  0  0  0
 29 30  4  0  0  0  0
M  END
>  <Name_Molregno>
324750

>  <HISTAMINE H3>
9.09

$$$$
324798
  Marvin  02231216192D 0   1.00000     0.00000     0

 28 31  0  0  0  0  0  0  0  0999 V2000
   -0.0101    0.0039    0.0000 O   0  0  0  0  0  0  0  0  0
    0.7043   -0.4086    0.0000 C   0  0  0  0  0  0  0  0  0
    0.7043   -1.2336    0.0000 C   0  0  0  0  0  0  0  0  0
    1.4188   -1.6461    0.0000 C   0  0  0  0  0  0  0  0  0
    1.4188   -2.4711    0.0000 C   0  0  0  0  0  0  0  0  0
    0.7043   -2.8836    0.0000 C   0  0  0  0  0  0  0  0  0
   -0.0101   -2.4711    0.0000 C   0  0  0  0  0  0  0  0  0
   -0.0101   -1.6461    0.0000 C   0  0  0  0  0  0  0  0  0
    0.7043   -3.7086    0.0000 C   0  0  0  0  0  0  0  0  0
   -0.0101   -4.1211    0.0000 N   0  0  0  0  0  0  0  0  0
   -0.0101   -4.9461    0.0000 C   0  0  0  0  0  0  0  0  0
   -0.7246   -5.3586    0.0000 C   0  0  0  0  0  0  0  0  0
   -1.4391   -4.9461    0.0000 C   0  0  0  0  0  0  0  0  0
   -1.4391   -4.1211    0.0000 C   0  0  0  0  0  0  0  0  0
   -0.7246   -3.7086    0.0000 C   0  0  0  0  0  0  0  0  0
   -0.0101    0.8289    0.0000 C   0  0  0  0  0  0  0  0  0
   -0.7246    1.2414    0.0000 C   0  0  0  0  0  0  0  0  0
   -0.7246    2.0664    0.0000 C   0  0  0  0  0  0  0  0  0
   -0.0101    2.4789    0.0000 C   0  0  0  0  0  0  0  0  0
    0.7043    2.0664    0.0000 C   0  0  0  0  0  0  0  0  0
    0.7043    1.2414    0.0000 C   0  0  0  0  0  0  0  0  0
   -0.0101    3.3039    0.0000 C   0  0  0  0  0  0  0  0  0
    0.7043    3.7164    0.0000 N   0  0  0  0  0  0  0  0  0
    0.7043    4.5414    0.0000 C   0  0  0  0  0  0  0  0  0
    1.4188    4.9539    0.0000 C   0  0  0  0  0  0  0  0  0
    2.1333    4.5414    0.0000 C   0  0  0  0  0  0  0  0  0
    2.1333    3.7164    0.0000 C   0  0  0  0  0  0  0  0  0
    1.4188    3.3039    0.0000 C   0  0  0  0  0  0  0  0  0
  1  2  1  0  0  0  0
  1 16  1  0  0  0  0
  2  3  1  0  0  0  0
  3  4  4  0  0  0  0
  3  8  4  0  0  0  0
  4  5  4  0  0  0  0
  5  6  4  0  0  0  0
  6  7  4  0  0  0  0
  6  9  1  0  0  0  0
  7  8  4  0  0  0  0
  9 10  1  0  0  0  0
 10 11  1  0  0  0  0
 10 15  1  0  0  0  0
 11 12  1  0  0  0  0
 12 13  1  0  0  0  0
 13 14  1  0  0  0  0
 14 15  1  0  0  0  0
 16 17  4  0  0  0  0
 16 21  4  0  0  0  0
 17 18  4  0  0  0  0
 18 19  4  0  0  0  0
 19 20  4  0  0  0  0
 19 22  1  0  0  0  0
 20 21  4  0  0  0  0
 22 23  1  0  0  0  0
 23 24  1  0  0  0  0
 23 28  1  0  0  0  0
 24 25  1  0  0  0  0
 25 26  1  0  0  0  0
 26 27  1  0  0  0  0
 27 28  1  0  0  0  0
M  END
>  <Name_Molregno>
324798

>  <HISTAMINE H3>
8.55

$$$$
329090
  Marvin  02231216192D 0   1.00000     0.00000     0

 23 24  0  0  1  0  0  0  0  0999 V2000
    0.1010    0.2434    0.0000 F   0  0  0  0  0  0  0  0  0
    0.8155   -0.1691    0.0000 C   0  0  0  0  0  0  0  0  0
    0.4030   -0.8835    0.0000 F   0  0  0  0  0  0  0  0  0
    1.2280    0.5454    0.0000 F   0  0  0  0  0  0  0  0  0
    1.5300   -0.5816    0.0000 C   0  0  0  0  0  0  0  0  0
    2.2444   -0.1691    0.0000 C   0  0  0  0  0  0  0  0  0
    2.9589   -0.5816    0.0000 C   0  0  0  0  0  0  0  0  0
    2.9589   -1.4066    0.0000 C   0  0  0  0  0  0  0  0  0
    3.6734   -1.8191    0.0000 O   0  0  0  0  0  0  0  0  0
    4.3878   -1.4066    0.0000 C   0  0  0  0  0  0  0  0  0
    5.1023   -1.8191    0.0000 C   0  0  0  0  0  0  0  0  0
    5.8168   -1.4066    0.0000 C   0  0  0  0  0  0  0  0  0
    6.5312   -1.8191    0.0000 N   0  0  0  0  0  0  0  0  0
    7.2457   -1.4066    0.0000 C   0  0  0  0  0  0  0  0  0
    6.5312   -2.6441    0.0000 C   0  0  0  0  0  0  0  0  0
    4.3878   -0.5816    0.0000 C   0  0  0  0  0  0  0  0  0
    3.6734   -0.1691    0.0000 C   0  0  0  0  0  0  0  0  0
    3.6734    0.6559    0.0000 C   0  0  0  0  0  0  0  0  0
    4.3878    1.0684    0.0000 C   0  0  0  0  0  0  0  0  0
    5.1023    0.6559    0.0000 C   0  0  0  0  0  0  0  0  0
    5.1023   -0.1691    0.0000 C   0  0  0  0  0  0  0  0  0
    2.2444   -1.8191    0.0000 C   0  0  0  0  0  0  0  0  0
    1.5300   -1.4066    0.0000 C   0  0  0  0  0  0  0  0  0
  1  2  1  0  0  0  0
  2  3  1  0  0  0  0
  2  4  1  0  0  0  0
  2  5  1  0  0  0  0
  5  6  4  0  0  0  0
  5 23  4  0  0  0  0
  6  7  4  0  0  0  0
  7  8  4  0  0  0  0
  8  9  1  0  0  0  0
  8 22  4  0  0  0  0
  9 10  1  0  0  0  0
 10 11  1  0  0  0  0
 10 16  1  0  0  0  0
 11 12  1  0  0  0  0
 12 13  1  0  0  0  0
 13 14  1  0  0  0  0
 13 15  1  0  0  0  0
 16 17  4  0  0  0  0
 16 21  4  0  0  0  0
 17 18  4  0  0  0  0
 18 19  4  0  0  0  0
 19 20  4  0  0  0  0
 20 21  4  0  0  0  0
 22 23  4  0  0  0  0
M  END
>  <Name_Molregno>
329090

>  <HISTAMINE H3>
5.18

>  <Serotonin transporter>
8.08

$$$$
329852
  Marvin  02231216192D 0   1.00000     0.00000     0

 27 30  0  0  1  0  0  0  0  0999 V2000
    7.2912   -0.4262    0.0000 S   0  0  0  0  0  0  0  0  0
    7.8432   -1.0393    0.0000 C   0  0  0  0  0  0  0  0  0
    8.6637   -0.9531    0.0000 N   0  3  0  0  0  0  0  0  0
    9.1486   -1.6205    0.0000 O   0  5  0  0  0  0  0  0  0
    8.9992   -0.1994    0.0000 O   0  5  0  0  0  0  0  0  0
    7.4307   -1.7538    0.0000 C   0  0  0  0  0  0  0  0  0
    6.6237   -1.5823    0.0000 N   0  0  0  0  0  0  0  0  0
    6.5375   -0.7618    0.0000 C   0  0  0  0  0  0  0  0  0
    5.8230   -0.3493    0.0000 N   0  0  0  0  0  0  0  0  0
    5.1085   -0.7618    0.0000 C   0  0  0  0  0  0  0  0  0
    4.3941   -0.3493    0.0000 C   0  0  0  0  0  0  0  0  0
    3.6796   -0.7618    0.0000 C   0  0  0  0  0  0  0  0  0
    2.9651   -0.3493    0.0000 C   0  0  0  0  0  0  0  0  0
    2.1805   -0.6042    0.0000 C   0  0  0  0  0  0  0  0  0
    1.6956    0.0632    0.0000 C   0  0  0  0  0  0  0  0  0
    2.1805    0.7306    0.0000 O   0  0  0  0  0  0  0  0  0
    2.9651    0.4757    0.0000 C   0  0  0  0  0  0  0  0  0
    3.6796    0.8882    0.0000 C   0  0  0  0  0  0  0  0  0
    4.3941    0.4757    0.0000 C   0  0  0  0  0  0  0  0  0
    0.8706    0.0632    0.0000 C   0  0  0  0  0  0  0  0  0
    0.4581   -0.6513    0.0000 C   0  0  0  0  0  0  0  0  0
   -0.3669   -0.6513    0.0000 N   0  0  0  0  0  0  0  0  0
   -0.8518   -1.3187    0.0000 C   0  0  0  0  0  0  0  0  0
   -1.6365   -1.0638    0.0000 C   0  0  0  0  0  0  0  0  0
   -1.6365   -0.2388    0.0000 C   0  0  0  0  0  0  0  0  0
   -0.8518    0.0162    0.0000 C   0  0  0  0  0  0  0  0  0
   -0.5969    0.8008    0.0000 C   0  0  0  0  0  0  0  0  0
  1  2  4  0  0  0  0
  1  8  4  0  0  0  0
  2  3  1  0  0  0  0
  2  6  4  0  0  0  0
  3  4  1  0  0  0  0
  3  5  1  0  0  0  0
  6  7  4  0  0  0  0
  7  8  4  0  0  0  0
  8  9  1  0  0  0  0
  9 10  1  0  0  0  0
 10 11  1  0  0  0  0
 11 12  4  0  0  0  0
 11 19  4  0  0  0  0
 12 13  4  0  0  0  0
 13 14  4  0  0  0  0
 13 17  4  0  0  0  0
 14 15  4  0  0  0  0
 15 16  4  0  0  0  0
 15 20  1  0  0  0  0
 16 17  4  0  0  0  0
 17 18  4  0  0  0  0
 18 19  4  0  0  0  0
 20 21  1  0  0  0  0
 21 22  1  0  0  0  0
 22 23  1  0  0  0  0
 22 26  1  0  0  0  0
 23 24  1  0  0  0  0
 24 25  1  0  0  0  0
 25 26  1  0  0  0  0
 26 27  1  0  0  0  0
M  CHG  3   3   1   4  -1   5  -1
M  END
>  <Name_Molregno>
329852

>  <HISTAMINE H3>
9.72

$$$$
329854
  Marvin  02231216192D 0   1.00000     0.00000     0

 29 32  0  0  1  0  0  0  0  0999 V2000
    0.2220   -0.9796    0.0000 O   0  0  0  0  0  0  0  0  0
    1.0066   -0.7247    0.0000 C   0  0  0  0  0  0  0  0  0
    1.0066    0.1003    0.0000 C   0  0  0  0  0  0  0  0  0
    1.7211    0.5128    0.0000 C   0  0  0  0  0  0  0  0  0
    2.4356    0.1003    0.0000 C   0  0  0  0  0  0  0  0  0
    2.4356   -0.7247    0.0000 C   0  0  0  0  0  0  0  0  0
    1.7211   -1.1372    0.0000 C   0  0  0  0  0  0  0  0  0
    3.1501    0.5128    0.0000 C   0  0  0  0  0  0  0  0  0
    3.8645    0.1003    0.0000 N   0  0  0  0  0  0  0  0  0
    4.5790    0.5128    0.0000 C   0  0  0  0  0  0  0  0  0
    4.5790    1.3378    0.0000 C   0  0  0  0  0  0  0  0  0
    5.2935    1.7503    0.0000 C   0  0  0  0  0  0  0  0  0
    6.0079    1.3378    0.0000 N   0  0  0  0  0  0  0  0  0
    6.0079    0.5128    0.0000 C   0  0  0  0  0  0  0  0  0
    5.2935    0.1003    0.0000 C   0  0  0  0  0  0  0  0  0
    6.7224    0.1003    0.0000 C   0  0  0  0  0  0  0  0  0
    7.4369   -0.3122    0.0000 N   0  0  0  0  0  0  0  0  0
    5.2935    2.5753    0.0000 C   0  0  0  0  0  0  0  0  0
    5.2935    3.4003    0.0000 N   0  0  0  0  0  0  0  0  0
    0.2220    0.3552    0.0000 C   0  0  0  0  0  0  0  0  0
   -0.2629   -0.3122    0.0000 C   0  0  0  0  0  0  0  0  0
   -1.0879   -0.3122    0.0000 C   0  0  0  0  0  0  0  0  0
   -1.5004   -1.0267    0.0000 C   0  0  0  0  0  0  0  0  0
   -2.3254   -1.0267    0.0000 N   0  0  0  0  0  0  0  0  0
   -2.8103   -1.6941    0.0000 C   0  0  0  0  0  0  0  0  0
   -3.5949   -1.4392    0.0000 C   0  0  0  0  0  0  0  0  0
   -3.5949   -0.6142    0.0000 C   0  0  0  0  0  0  0  0  0
   -2.8103   -0.3592    0.0000 C   0  0  0  0  0  0  0  0  0
   -2.5554    0.4254    0.0000 C   0  0  0  0  0  0  0  0  0
  1  2  4  0  0  0  0
  1 21  4  0  0  0  0
  2  3  4  0  0  0  0
  2  7  4  0  0  0  0
  3  4  4  0  0  0  0
  3 20  4  0  0  0  0
  4  5  4  0  0  0  0
  5  6  4  0  0  0  0
  5  8  1  0  0  0  0
  6  7  4  0  0  0  0
  8  9  1  0  0  0  0
  9 10  1  0  0  0  0
 10 11  4  0  0  0  0
 10 15  4  0  0  0  0
 11 12  4  0  0  0  0
 12 13  4  0  0  0  0
 12 18  1  0  0  0  0
 13 14  4  0  0  0  0
 14 15  4  0  0  0  0
 14 16  1  0  0  0  0
 16 17  3  0  0  0  0
 18 19  3  0  0  0  0
 20 21  4  0  0  0  0
 21 22  1  0  0  0  0
 22 23  1  0  0  0  0
 23 24  1  0  0  0  0
 24 25  1  0  0  0  0
 24 28  1  0  0  0  0
 25 26  1  0  0  0  0
 26 27  1  0  0  0  0
 27 28  1  0  0  0  0
 28 29  1  0  0  0  0
M  STY  1   1 DAT
M  SAL   1  1  13
M  SDT   1 MRV_IMPLICIT_H                                        
M  SDD   1     0.0000    0.0000    DR    ALL  0       0  
M  SED   1 IMPL_H1
M  END
>  <Name_Molregno>
329854

>  <HISTAMINE H3>
9.89

$$$$
329860
  Marvin  02231216192D 0   1.00000     0.00000     0

 31 34  0  0  1  0  0  0  0  0999 V2000
    1.2223   -0.5507    0.0000 F   0  0  0  0  0  0  0  0  0
    0.5078   -0.9632    0.0000 C   0  0  0  0  0  0  0  0  0
    0.0953   -0.2488    0.0000 F   0  0  0  0  0  0  0  0  0
    0.9203   -1.6777    0.0000 F   0  0  0  0  0  0  0  0  0
   -0.2067   -1.3757    0.0000 C   0  0  0  0  0  0  0  0  0
   -0.2067   -2.2007    0.0000 O   0  0  0  0  0  0  0  0  0
   -0.9211   -0.9632    0.0000 C   0  0  0  0  0  0  0  0  0
   -1.6356   -1.3757    0.0000 C   0  0  0  0  0  0  0  0  0
   -2.3501   -0.9632    0.0000 C   0  0  0  0  0  0  0  0  0
   -2.3501   -0.1382    0.0000 C   0  0  0  0  0  0  0  0  0
   -3.0645    0.2743    0.0000 N   0  0  0  0  0  0  0  0  0
   -3.7790   -0.1382    0.0000 C   0  0  0  0  0  0  0  0  0
   -4.4935    0.2743    0.0000 C   0  0  0  0  0  0  0  0  0
   -5.2080   -0.1382    0.0000 C   0  0  0  0  0  0  0  0  0
   -5.9224    0.2743    0.0000 C   0  0  0  0  0  0  0  0  0
   -6.7071    0.0193    0.0000 C   0  0  0  0  0  0  0  0  0
   -7.1920    0.6868    0.0000 C   0  0  0  0  0  0  0  0  0
   -6.7071    1.3542    0.0000 O   0  0  0  0  0  0  0  0  0
   -5.9224    1.0993    0.0000 C   0  0  0  0  0  0  0  0  0
   -5.2080    1.5118    0.0000 C   0  0  0  0  0  0  0  0  0
   -4.4935    1.0993    0.0000 C   0  0  0  0  0  0  0  0  0
   -8.0170    0.6868    0.0000 C   0  0  0  0  0  0  0  0  0
   -8.4295   -0.0277    0.0000 C   0  0  0  0  0  0  0  0  0
   -9.2545   -0.0277    0.0000 N   0  0  0  0  0  0  0  0  0
   -9.7394   -0.6952    0.0000 C   0  0  0  0  0  0  0  0  0
  -10.5240   -0.4402    0.0000 C   0  0  0  0  0  0  0  0  0
  -10.5240    0.3848    0.0000 C   0  0  0  0  0  0  0  0  0
   -9.7394    0.6397    0.0000 C   0  0  0  0  0  0  0  0  0
   -9.4845    1.4243    0.0000 C   0  0  0  0  0  0  0  0  0
   -1.6356    0.2743    0.0000 C   0  0  0  0  0  0  0  0  0
   -0.9211   -0.1382    0.0000 C   0  0  0  0  0  0  0  0  0
  1  2  1  0  0  0  0
  2  3  1  0  0  0  0
  2  4  1  0  0  0  0
  2  5  1  0  0  0  0
  5  6  2  0  0  0  0
  5  7  1  0  0  0  0
  7  8  4  0  0  0  0
  7 31  4  0  0  0  0
  8  9  4  0  0  0  0
  9 10  4  0  0  0  0
 10 11  1  0  0  0  0
 10 30  4  0  0  0  0
 11 12  1  0  0  0  0
 12 13  1  0  0  0  0
 13 14  4  0  0  0  0
 13 21  4  0  0  0  0
 14 15  4  0  0  0  0
 15 16  4  0  0  0  0
 15 19  4  0  0  0  0
 16 17  4  0  0  0  0
 17 18  4  0  0  0  0
 17 22  1  0  0  0  0
 18 19  4  0  0  0  0
 19 20  4  0  0  0  0
 20 21  4  0  0  0  0
 22 23  1  0  0  0  0
 23 24  1  0  0  0  0
 24 25  1  0  0  0  0
 24 28  1  0  0  0  0
 25 26  1  0  0  0  0
 26 27  1  0  0  0  0
 27 28  1  0  0  0  0
 28 29  1  0  0  0  0
 30 31  4  0  0  0  0
M  END
>  <Name_Molregno>
329860

>  <HISTAMINE H3>
9.13

$$$$
329870
  Marvin  02231216192D 0   1.00000     0.00000     0

 25 28  0  0  1  0  0  0  0  0999 V2000
    0.2154   -0.6564    0.0000 O   0  0  0  0  0  0  0  0  0
    1.0000   -0.4015    0.0000 C   0  0  0  0  0  0  0  0  0
    1.0000    0.4235    0.0000 C   0  0  0  0  0  0  0  0  0
    1.7144    0.8360    0.0000 C   0  0  0  0  0  0  0  0  0
    2.4289    0.4235    0.0000 C   0  0  0  0  0  0  0  0  0
    2.4289   -0.4015    0.0000 C   0  0  0  0  0  0  0  0  0
    1.7144   -0.8140    0.0000 C   0  0  0  0  0  0  0  0  0
    3.1434    0.8360    0.0000 C   0  0  0  0  0  0  0  0  0
    3.8579    0.4235    0.0000 N   0  0  0  0  0  0  0  0  0
    4.5723    0.8360    0.0000 C   0  0  0  0  0  0  0  0  0
    4.5723    1.6610    0.0000 C   0  0  0  0  0  0  0  0  0
    5.2868    2.0735    0.0000 N   0  0  0  0  0  0  0  0  0
    6.0013    1.6610    0.0000 C   0  0  0  0  0  0  0  0  0
    6.0013    0.8360    0.0000 N   0  0  0  0  0  0  0  0  0
    5.2868    0.4235    0.0000 C   0  0  0  0  0  0  0  0  0
    0.2154    0.6785    0.0000 C   0  0  0  0  0  0  0  0  0
   -0.2696    0.0110    0.0000 C   0  0  0  0  0  0  0  0  0
   -1.0946    0.0110    0.0000 C   0  0  0  0  0  0  0  0  0
   -1.5071   -0.7034    0.0000 C   0  0  0  0  0  0  0  0  0
   -2.3321   -0.7034    0.0000 N   0  0  0  0  0  0  0  0  0
   -2.8170   -1.3709    0.0000 C   0  0  0  0  0  0  0  0  0
   -3.6016   -1.1159    0.0000 C   0  0  0  0  0  0  0  0  0
   -3.6016   -0.2909    0.0000 C   0  0  0  0  0  0  0  0  0
   -2.8170   -0.0360    0.0000 C   0  0  0  0  0  0  0  0  0
   -2.5621    0.7486    0.0000 C   0  0  0  0  0  0  0  0  0
  1  2  4  0  0  0  0
  1 17  4  0  0  0  0
  2  3  4  0  0  0  0
  2  7  4  0  0  0  0
  3  4  4  0  0  0  0
  3 16  4  0  0  0  0
  4  5  4  0  0  0  0
  5  6  4  0  0  0  0
  5  8  1  0  0  0  0
  6  7  4  0  0  0  0
  8  9  1  0  0  0  0
  9 10  1  0  0  0  0
 10 11  4  0  0  0  0
 10 15  4  0  0  0  0
 11 12  4  0  0  0  0
 12 13  4  0  0  0  0
 13 14  4  0  0  0  0
 14 15  4  0  0  0  0
 16 17  4  0  0  0  0
 17 18  1  0  0  0  0
 18 19  1  0  0  0  0
 19 20  1  0  0  0  0
 20 21  1  0  0  0  0
 20 24  1  0  0  0  0
 21 22  1  0  0  0  0
 22 23  1  0  0  0  0
 23 24  1  0  0  0  0
 24 25  1  0  0  0  0
M  END
>  <Name_Molregno>
329870

>  <HISTAMINE H3>
9.16

$$$$
329875
  Marvin  02231216192D 0   1.00000     0.00000     0

 27 30  0  0  1  0  0  0  0  0999 V2000
   -2.7069   -0.6396    0.0000 O   0  0  0  0  0  0  0  0  0
   -1.9223   -0.3846    0.0000 C   0  0  0  0  0  0  0  0  0
   -1.9223    0.4404    0.0000 C   0  0  0  0  0  0  0  0  0
   -1.2078    0.8529    0.0000 C   0  0  0  0  0  0  0  0  0
   -0.4933    0.4404    0.0000 C   0  0  0  0  0  0  0  0  0
   -0.4933   -0.3846    0.0000 C   0  0  0  0  0  0  0  0  0
   -1.2078   -0.7971    0.0000 C   0  0  0  0  0  0  0  0  0
    0.2211    0.8529    0.0000 C   0  0  0  0  0  0  0  0  0
    0.9356    0.4404    0.0000 N   0  0  0  0  0  0  0  0  0
    1.6501    0.8529    0.0000 C   0  0  0  0  0  0  0  0  0
    1.6501    1.6779    0.0000 C   0  0  0  0  0  0  0  0  0
    2.3645    2.0904    0.0000 C   0  0  0  0  0  0  0  0  0
    3.0790    1.6779    0.0000 C   0  0  0  0  0  0  0  0  0
    3.0790    0.8529    0.0000 C   0  0  0  0  0  0  0  0  0
    2.3645    0.4404    0.0000 C   0  0  0  0  0  0  0  0  0
    2.3645    2.9154    0.0000 C   0  0  0  0  0  0  0  0  0
    2.3645    3.7404    0.0000 N   0  0  0  0  0  0  0  0  0
   -2.7069    0.6953    0.0000 C   0  0  0  0  0  0  0  0  0
   -3.1918    0.0279    0.0000 C   0  0  0  0  0  0  0  0  0
   -4.0168    0.0279    0.0000 C   0  0  0  0  0  0  0  0  0
   -4.4293   -0.6866    0.0000 C   0  0  0  0  0  0  0  0  0
   -5.2543   -0.6866    0.0000 N   0  0  0  0  0  0  0  0  0
   -5.7393   -1.3540    0.0000 C   0  0  0  0  0  0  0  0  0
   -6.5239   -1.0991    0.0000 C   0  0  0  0  0  0  0  0  0
   -6.5239   -0.2741    0.0000 C   0  0  0  0  0  0  0  0  0
   -5.7393   -0.0192    0.0000 C   0  0  0  0  0  0  0  0  0
   -5.4843    0.7655    0.0000 C   0  0  0  0  0  0  0  0  0
  1  2  4  0  0  0  0
  1 19  4  0  0  0  0
  2  3  4  0  0  0  0
  2  7  4  0  0  0  0
  3  4  4  0  0  0  0
  3 18  4  0  0  0  0
  4  5  4  0  0  0  0
  5  6  4  0  0  0  0
  5  8  1  0  0  0  0
  6  7  4  0  0  0  0
  8  9  1  0  0  0  0
  9 10  1  0  0  0  0
 10 11  4  0  0  0  0
 10 15  4  0  0  0  0
 11 12  4  0  0  0  0
 12 13  4  0  0  0  0
 12 16  1  0  0  0  0
 13 14  4  0  0  0  0
 14 15  4  0  0  0  0
 16 17  3  0  0  0  0
 18 19  4  0  0  0  0
 19 20  1  0  0  0  0
 20 21  1  0  0  0  0
 21 22  1  0  0  0  0
 22 23  1  0  0  0  0
 22 26  1  0  0  0  0
 23 24  1  0  0  0  0
 24 25  1  0  0  0  0
 25 26  1  0  0  0  0
 26 27  1  0  0  0  0
M  END
>  <Name_Molregno>
329875

>  <HISTAMINE H3>
9.4

$$$$
329892
  Marvin  02231216192D 0   1.00000     0.00000     0

 26 29  0  0  1  0  0  0  0  0999 V2000
   10.7859   -2.5080    0.0000 Cl  0  0  0  0  0  0  0  0  0
   10.0714   -2.0955    0.0000 C   0  0  0  0  0  0  0  0  0
    9.3570   -2.5080    0.0000 N   0  0  0  0  0  0  0  0  0
    8.6425   -2.0955    0.0000 N   0  0  0  0  0  0  0  0  0
    8.6425   -1.2705    0.0000 C   0  0  0  0  0  0  0  0  0
    7.9280   -0.8580    0.0000 N   0  0  0  0  0  0  0  0  0
    7.2136   -1.2705    0.0000 C   0  0  0  0  0  0  0  0  0
    6.4991   -0.8580    0.0000 C   0  0  0  0  0  0  0  0  0
    5.7846   -1.2705    0.0000 C   0  0  0  0  0  0  0  0  0
    5.0701   -0.8580    0.0000 C   0  0  0  0  0  0  0  0  0
    4.2855   -1.1129    0.0000 C   0  0  0  0  0  0  0  0  0
    3.8006   -0.4455    0.0000 C   0  0  0  0  0  0  0  0  0
    4.2855    0.2219    0.0000 O   0  0  0  0  0  0  0  0  0
    5.0701   -0.0330    0.0000 C   0  0  0  0  0  0  0  0  0
    5.7846    0.3795    0.0000 C   0  0  0  0  0  0  0  0  0
    6.4991   -0.0330    0.0000 C   0  0  0  0  0  0  0  0  0
    2.9756   -0.4455    0.0000 C   0  0  0  0  0  0  0  0  0
    2.5631   -1.1600    0.0000 C   0  0  0  0  0  0  0  0  0
    1.7381   -1.1600    0.0000 N   0  0  0  0  0  0  0  0  0
    1.2532   -1.8274    0.0000 C   0  0  0  0  0  0  0  0  0
    0.4686   -1.5725    0.0000 C   0  0  0  0  0  0  0  0  0
    0.4686   -0.7475    0.0000 C   0  0  0  0  0  0  0  0  0
    1.2532   -0.4925    0.0000 C   0  0  0  0  0  0  0  0  0
    1.5081    0.2921    0.0000 C   0  0  0  0  0  0  0  0  0
    9.3570   -0.8580    0.0000 C   0  0  0  0  0  0  0  0  0
   10.0714   -1.2705    0.0000 C   0  0  0  0  0  0  0  0  0
  1  2  1  0  0  0  0
  2  3  4  0  0  0  0
  2 26  4  0  0  0  0
  3  4  4  0  0  0  0
  4  5  4  0  0  0  0
  5  6  1  0  0  0  0
  5 25  4  0  0  0  0
  6  7  1  0  0  0  0
  7  8  1  0  0  0  0
  8  9  4  0  0  0  0
  8 16  4  0  0  0  0
  9 10  4  0  0  0  0
 10 11  4  0  0  0  0
 10 14  4  0  0  0  0
 11 12  4  0  0  0  0
 12 13  4  0  0  0  0
 12 17  1  0  0  0  0
 13 14  4  0  0  0  0
 14 15  4  0  0  0  0
 15 16  4  0  0  0  0
 17 18  1  0  0  0  0
 18 19  1  0  0  0  0
 19 20  1  0  0  0  0
 19 23  1  0  0  0  0
 20 21  1  0  0  0  0
 21 22  1  0  0  0  0
 22 23  1  0  0  0  0
 23 24  1  0  0  0  0
 25 26  4  0  0  0  0
M  END
>  <Name_Molregno>
329892

>  <HISTAMINE H3>
9.51

$$$$
329903
  Marvin  02231216192D 0   1.00000     0.00000     0

 27 30  0  0  1  0  0  0  0  0999 V2000
    0.0349   -0.2648    0.0000 O   0  0  0  0  0  0  0  0  0
    0.8195   -0.0098    0.0000 C   0  0  0  0  0  0  0  0  0
    0.8195    0.8152    0.0000 C   0  0  0  0  0  0  0  0  0
    1.5340    1.2277    0.0000 C   0  0  0  0  0  0  0  0  0
    2.2484    0.8152    0.0000 C   0  0  0  0  0  0  0  0  0
    2.2484   -0.0098    0.0000 C   0  0  0  0  0  0  0  0  0
    1.5340   -0.4223    0.0000 C   0  0  0  0  0  0  0  0  0
    2.9629    1.2277    0.0000 C   0  0  0  0  0  0  0  0  0
    3.6774    0.8152    0.0000 N   0  0  0  0  0  0  0  0  0
    4.3918    1.2277    0.0000 C   0  0  0  0  0  0  0  0  0
    4.3918    2.0527    0.0000 N   0  0  0  0  0  0  0  0  0
    5.1063    2.4652    0.0000 C   0  0  0  0  0  0  0  0  0
    5.8208    2.0527    0.0000 C   0  0  0  0  0  0  0  0  0
    5.8208    1.2277    0.0000 N   0  0  0  0  0  0  0  0  0
    5.1063    0.8152    0.0000 C   0  0  0  0  0  0  0  0  0
    5.1063   -0.0098    0.0000 C   0  0  0  0  0  0  0  0  0
    5.1063   -0.8348    0.0000 N   0  0  0  0  0  0  0  0  0
    0.0349    1.0701    0.0000 C   0  0  0  0  0  0  0  0  0
   -0.4501    0.4027    0.0000 C   0  0  0  0  0  0  0  0  0
   -1.2751    0.4027    0.0000 C   0  0  0  0  0  0  0  0  0
   -1.6876   -0.3118    0.0000 C   0  0  0  0  0  0  0  0  0
   -2.5126   -0.3118    0.0000 N   0  0  0  0  0  0  0  0  0
   -2.9975   -0.9792    0.0000 C   0  0  0  0  0  0  0  0  0
   -3.7821   -0.7243    0.0000 C   0  0  0  0  0  0  0  0  0
   -3.7821    0.1007    0.0000 C   0  0  0  0  0  0  0  0  0
   -2.9975    0.3557    0.0000 C   0  0  0  0  0  0  0  0  0
   -2.7425    1.1403    0.0000 C   0  0  0  0  0  0  0  0  0
  1  2  4  0  0  0  0
  1 19  4  0  0  0  0
  2  3  4  0  0  0  0
  2  7  4  0  0  0  0
  3  4  4  0  0  0  0
  3 18  4  0  0  0  0
  4  5  4  0  0  0  0
  5  6  4  0  0  0  0
  5  8  1  0  0  0  0
  6  7  4  0  0  0  0
  8  9  1  0  0  0  0
  9 10  1  0  0  0  0
 10 11  4  0  0  0  0
 10 15  4  0  0  0  0
 11 12  4  0  0  0  0
 12 13  4  0  0  0  0
 13 14  4  0  0  0  0
 14 15  4  0  0  0  0
 15 16  1  0  0  0  0
 16 17  3  0  0  0  0
 18 19  4  0  0  0  0
 19 20  1  0  0  0  0
 20 21  1  0  0  0  0
 21 22  1  0  0  0  0
 22 23  1  0  0  0  0
 22 26  1  0  0  0  0
 23 24  1  0  0  0  0
 24 25  1  0  0  0  0
 25 26  1  0  0  0  0
 26 27  1  0  0  0  0
M  END
>  <Name_Molregno>
329903

>  <HISTAMINE H3>
8.98

$$$$
329921
  Marvin  02231216192D 0   1.00000     0.00000     0

 27 30  0  0  1  0  0  0  0  0999 V2000
    0.1402   -0.5009    0.0000 O   0  0  0  0  0  0  0  0  0
    0.9248   -0.2460    0.0000 C   0  0  0  0  0  0  0  0  0
    0.9248    0.5790    0.0000 C   0  0  0  0  0  0  0  0  0
    1.6393    0.9915    0.0000 C   0  0  0  0  0  0  0  0  0
    2.3537    0.5790    0.0000 C   0  0  0  0  0  0  0  0  0
    2.3537   -0.2460    0.0000 C   0  0  0  0  0  0  0  0  0
    1.6393   -0.6585    0.0000 C   0  0  0  0  0  0  0  0  0
    3.0682    0.9915    0.0000 C   0  0  0  0  0  0  0  0  0
    3.7827    0.5790    0.0000 N   0  0  0  0  0  0  0  0  0
    4.4971    0.9915    0.0000 C   0  0  0  0  0  0  0  0  0
    4.4971    1.8165    0.0000 N   0  0  0  0  0  0  0  0  0
    5.2116    2.2290    0.0000 C   0  0  0  0  0  0  0  0  0
    5.9261    1.8165    0.0000 C   0  0  0  0  0  0  0  0  0
    5.9261    0.9915    0.0000 C   0  0  0  0  0  0  0  0  0
    5.2116    0.5790    0.0000 N   0  0  0  0  0  0  0  0  0
    6.6406    2.2290    0.0000 C   0  0  0  0  0  0  0  0  0
    7.3550    1.8165    0.0000 C   0  0  0  0  0  0  0  0  0
    0.1402    0.8339    0.0000 C   0  0  0  0  0  0  0  0  0
   -0.3448    0.1665    0.0000 C   0  0  0  0  0  0  0  0  0
   -1.1698    0.1665    0.0000 C   0  0  0  0  0  0  0  0  0
   -1.5823   -0.5480    0.0000 C   0  0  0  0  0  0  0  0  0
   -2.4073   -0.5480    0.0000 N   0  0  0  0  0  0  0  0  0
   -2.8922   -1.2154    0.0000 C   0  0  0  0  0  0  0  0  0
   -3.6768   -0.9605    0.0000 C   0  0  0  0  0  0  0  0  0
   -3.6768   -0.1355    0.0000 C   0  0  0  0  0  0  0  0  0
   -2.8922    0.1195    0.0000 C   0  0  0  0  0  0  0  0  0
   -2.6372    0.9041    0.0000 C   0  0  0  0  0  0  0  0  0
  1  2  4  0  0  0  0
  1 19  4  0  0  0  0
  2  3  4  0  0  0  0
  2  7  4  0  0  0  0
  3  4  4  0  0  0  0
  3 18  4  0  0  0  0
  4  5  4  0  0  0  0
  5  6  4  0  0  0  0
  5  8  1  0  0  0  0
  6  7  4  0  0  0  0
  8  9  1  0  0  0  0
  9 10  1  0  0  0  0
 10 11  4  0  0  0  0
 10 15  4  0  0  0  0
 11 12  4  0  0  0  0
 12 13  4  0  0  0  0
 13 14  4  0  0  0  0
 13 16  1  0  0  0  0
 14 15  4  0  0  0  0
 16 17  1  0  0  0  0
 18 19  4  0  0  0  0
 19 20  1  0  0  0  0
 20 21  1  0  0  0  0
 21 22  1  0  0  0  0
 22 23  1  0  0  0  0
 22 26  1  0  0  0  0
 23 24  1  0  0  0  0
 24 25  1  0  0  0  0
 25 26  1  0  0  0  0
 26 27  1  0  0  0  0
M  END
>  <Name_Molregno>
329921

>  <HISTAMINE H3>
9.48

$$$$
329923
  Marvin  02231216192D 0   1.00000     0.00000     0

 28 31  0  0  1  0  0  0  0  0999 V2000
    0.0296   -0.2774    0.0000 O   0  0  0  0  0  0  0  0  0
    0.8142   -0.0224    0.0000 C   0  0  0  0  0  0  0  0  0
    0.8142    0.8026    0.0000 C   0  0  0  0  0  0  0  0  0
    1.5287    1.2151    0.0000 C   0  0  0  0  0  0  0  0  0
    2.2431    0.8026    0.0000 C   0  0  0  0  0  0  0  0  0
    2.2431   -0.0224    0.0000 C   0  0  0  0  0  0  0  0  0
    1.5287   -0.4349    0.0000 C   0  0  0  0  0  0  0  0  0
    2.9576    1.2151    0.0000 C   0  0  0  0  0  0  0  0  0
    3.6721    0.8026    0.0000 N   0  0  0  0  0  0  0  0  0
    4.3866    1.2151    0.0000 C   0  0  0  0  0  0  0  0  0
    4.3866    2.0401    0.0000 N   0  0  0  0  0  0  0  0  0
    5.1010    2.4526    0.0000 C   0  0  0  0  0  0  0  0  0
    5.8155    2.0401    0.0000 C   0  0  0  0  0  0  0  0  0
    5.8155    1.2151    0.0000 C   0  0  0  0  0  0  0  0  0
    5.1010    0.8026    0.0000 C   0  0  0  0  0  0  0  0  0
    5.1010   -0.0224    0.0000 N   0  3  0  0  0  0  0  0  0
    5.8155   -0.4349    0.0000 O   0  5  0  0  0  0  0  0  0
    4.3866   -0.4349    0.0000 O   0  5  0  0  0  0  0  0  0
    0.0296    1.0575    0.0000 C   0  0  0  0  0  0  0  0  0
   -0.4553    0.3901    0.0000 C   0  0  0  0  0  0  0  0  0
   -1.2803    0.3901    0.0000 C   0  0  0  0  0  0  0  0  0
   -1.6928   -0.3244    0.0000 C   0  0  0  0  0  0  0  0  0
   -2.5178   -0.3244    0.0000 N   0  0  0  0  0  0  0  0  0
   -3.0028   -0.9918    0.0000 C   0  0  0  0  0  0  0  0  0
   -3.7874   -0.7369    0.0000 C   0  0  0  0  0  0  0  0  0
   -3.7874    0.0881    0.0000 C   0  0  0  0  0  0  0  0  0
   -3.0028    0.3430    0.0000 C   0  0  0  0  0  0  0  0  0
   -2.7478    1.1277    0.0000 C   0  0  0  0  0  0  0  0  0
  1  2  4  0  0  0  0
  1 20  4  0  0  0  0
  2  3  4  0  0  0  0
  2  7  4  0  0  0  0
  3  4  4  0  0  0  0
  3 19  4  0  0  0  0
  4  5  4  0  0  0  0
  5  6  4  0  0  0  0
  5  8  1  0  0  0  0
  6  7  4  0  0  0  0
  8  9  1  0  0  0  0
  9 10  1  0  0  0  0
 10 11  4  0  0  0  0
 10 15  4  0  0  0  0
 11 12  4  0  0  0  0
 12 13  4  0  0  0  0
 13 14  4  0  0  0  0
 14 15  4  0  0  0  0
 15 16  1  0  0  0  0
 16 17  1  0  0  0  0
 16 18  1  0  0  0  0
 19 20  4  0  0  0  0
 20 21  1  0  0  0  0
 21 22  1  0  0  0  0
 22 23  1  0  0  0  0
 23 24  1  0  0  0  0
 23 27  1  0  0  0  0
 24 25  1  0  0  0  0
 25 26  1  0  0  0  0
 26 27  1  0  0  0  0
 27 28  1  0  0  0  0
M  CHG  3  16   1  17  -1  18  -1
M  END
>  <Name_Molregno>
329923

>  <HISTAMINE H3>
9.37

$$$$
329929
  Marvin  02231216192D 0   1.00000     0.00000     0

 25 28  0  0  1  0  0  0  0  0999 V2000
    0.2154   -0.6564    0.0000 O   0  0  0  0  0  0  0  0  0
    1.0000   -0.4015    0.0000 C   0  0  0  0  0  0  0  0  0
    1.0000    0.4235    0.0000 C   0  0  0  0  0  0  0  0  0
    1.7144    0.8360    0.0000 C   0  0  0  0  0  0  0  0  0
    2.4289    0.4235    0.0000 C   0  0  0  0  0  0  0  0  0
    2.4289   -0.4015    0.0000 C   0  0  0  0  0  0  0  0  0
    1.7144   -0.8140    0.0000 C   0  0  0  0  0  0  0  0  0
    3.1434    0.8360    0.0000 C   0  0  0  0  0  0  0  0  0
    3.8579    0.4235    0.0000 N   0  0  0  0  0  0  0  0  0
    4.5723    0.8360    0.0000 C   0  0  0  0  0  0  0  0  0
    4.5723    1.6610    0.0000 N   0  0  0  0  0  0  0  0  0
    5.2868    2.0735    0.0000 C   0  0  0  0  0  0  0  0  0
    6.0013    1.6610    0.0000 C   0  0  0  0  0  0  0  0  0
    6.0013    0.8360    0.0000 N   0  0  0  0  0  0  0  0  0
    5.2868    0.4235    0.0000 C   0  0  0  0  0  0  0  0  0
    0.2154    0.6785    0.0000 C   0  0  0  0  0  0  0  0  0
   -0.2696    0.0110    0.0000 C   0  0  0  0  0  0  0  0  0
   -1.0946    0.0110    0.0000 C   0  0  0  0  0  0  0  0  0
   -1.5071   -0.7034    0.0000 C   0  0  0  0  0  0  0  0  0
   -2.3321   -0.7034    0.0000 N   0  0  0  0  0  0  0  0  0
   -2.8170   -1.3709    0.0000 C   0  0  0  0  0  0  0  0  0
   -3.6016   -1.1159    0.0000 C   0  0  0  0  0  0  0  0  0
   -3.6016   -0.2909    0.0000 C   0  0  0  0  0  0  0  0  0
   -2.8170   -0.0360    0.0000 C   0  0  0  0  0  0  0  0  0
   -2.5621    0.7486    0.0000 C   0  0  0  0  0  0  0  0  0
  1  2  4  0  0  0  0
  1 17  4  0  0  0  0
  2  3  4  0  0  0  0
  2  7  4  0  0  0  0
  3  4  4  0  0  0  0
  3 16  4  0  0  0  0
  4  5  4  0  0  0  0
  5  6  4  0  0  0  0
  5  8  1  0  0  0  0
  6  7  4  0  0  0  0
  8  9  1  0  0  0  0
  9 10  1  0  0  0  0
 10 11  4  0  0  0  0
 10 15  4  0  0  0  0
 11 12  4  0  0  0  0
 12 13  4  0  0  0  0
 13 14  4  0  0  0  0
 14 15  4  0  0  0  0
 16 17  4  0  0  0  0
 17 18  1  0  0  0  0
 18 19  1  0  0  0  0
 19 20  1  0  0  0  0
 20 21  1  0  0  0  0
 20 24  1  0  0  0  0
 21 22  1  0  0  0  0
 22 23  1  0  0  0  0
 23 24  1  0  0  0  0
 24 25  1  0  0  0  0
M  END
>  <Name_Molregno>
329929

>  <HISTAMINE H3>
9.54

$$$$
329969
  Marvin  02231216192D 0   1.00000     0.00000     0

 25 28  0  0  1  0  0  0  0  0999 V2000
    0.2154   -0.6564    0.0000 O   0  0  0  0  0  0  0  0  0
    1.0000   -0.4015    0.0000 C   0  0  0  0  0  0  0  0  0
    1.0000    0.4235    0.0000 C   0  0  0  0  0  0  0  0  0
    1.7144    0.8360    0.0000 C   0  0  0  0  0  0  0  0  0
    2.4289    0.4235    0.0000 C   0  0  0  0  0  0  0  0  0
    2.4289   -0.4015    0.0000 C   0  0  0  0  0  0  0  0  0
    1.7144   -0.8140    0.0000 C   0  0  0  0  0  0  0  0  0
    3.1434    0.8360    0.0000 C   0  0  0  0  0  0  0  0  0
    3.8579    0.4235    0.0000 N   0  0  0  0  0  0  0  0  0
    4.5723    0.8360    0.0000 C   0  0  0  0  0  0  0  0  0
    4.5723    1.6610    0.0000 N   0  0  0  0  0  0  0  0  0
    5.2868    2.0735    0.0000 C   0  0  0  0  0  0  0  0  0
    6.0013    1.6610    0.0000 C   0  0  0  0  0  0  0  0  0
    6.0013    0.8360    0.0000 C   0  0  0  0  0  0  0  0  0
    5.2868    0.4235    0.0000 N   0  0  0  0  0  0  0  0  0
    0.2154    0.6785    0.0000 C   0  0  0  0  0  0  0  0  0
   -0.2696    0.0110    0.0000 C   0  0  0  0  0  0  0  0  0
   -1.0946    0.0110    0.0000 C   0  0  0  0  0  0  0  0  0
   -1.5071   -0.7034    0.0000 C   0  0  0  0  0  0  0  0  0
   -2.3321   -0.7034    0.0000 N   0  0  0  0  0  0  0  0  0
   -2.8170   -1.3709    0.0000 C   0  0  0  0  0  0  0  0  0
   -3.6016   -1.1159    0.0000 C   0  0  0  0  0  0  0  0  0
   -3.6016   -0.2909    0.0000 C   0  0  0  0  0  0  0  0  0
   -2.8170   -0.0360    0.0000 C   0  0  0  0  0  0  0  0  0
   -2.5621    0.7486    0.0000 C   0  0  0  0  0  0  0  0  0
  1  2  4  0  0  0  0
  1 17  4  0  0  0  0
  2  3  4  0  0  0  0
  2  7  4  0  0  0  0
  3  4  4  0  0  0  0
  3 16  4  0  0  0  0
  4  5  4  0  0  0  0
  5  6  4  0  0  0  0
  5  8  1  0  0  0  0
  6  7  4  0  0  0  0
  8  9  1  0  0  0  0
  9 10  1  0  0  0  0
 10 11  4  0  0  0  0
 10 15  4  0  0  0  0
 11 12  4  0  0  0  0
 12 13  4  0  0  0  0
 13 14  4  0  0  0  0
 14 15  4  0  0  0  0
 16 17  4  0  0  0  0
 17 18  1  0  0  0  0
 18 19  1  0  0  0  0
 19 20  1  0  0  0  0
 20 21  1  0  0  0  0
 20 24  1  0  0  0  0
 21 22  1  0  0  0  0
 22 23  1  0  0  0  0
 23 24  1  0  0  0  0
 24 25  1  0  0  0  0
M  END
>  <Name_Molregno>
329969

>  <HISTAMINE H3>
9.08

$$$$
329981
  Marvin  02231216192D 0   1.00000     0.00000     0

 28 31  0  0  1  0  0  0  0  0999 V2000
    0.0296   -0.2774    0.0000 O   0  0  0  0  0  0  0  0  0
    0.8142   -0.0224    0.0000 C   0  0  0  0  0  0  0  0  0
    0.8142    0.8026    0.0000 C   0  0  0  0  0  0  0  0  0
    1.5287    1.2151    0.0000 C   0  0  0  0  0  0  0  0  0
    2.2431    0.8026    0.0000 C   0  0  0  0  0  0  0  0  0
    2.2431   -0.0224    0.0000 C   0  0  0  0  0  0  0  0  0
    1.5287   -0.4349    0.0000 C   0  0  0  0  0  0  0  0  0
    2.9576    1.2151    0.0000 C   0  0  0  0  0  0  0  0  0
    3.6721    0.8026    0.0000 N   0  0  0  0  0  0  0  0  0
    4.3866    1.2151    0.0000 C   0  0  0  0  0  0  0  0  0
    4.3866    2.0401    0.0000 C   0  0  0  0  0  0  0  0  0
    5.1010    2.4526    0.0000 C   0  0  0  0  0  0  0  0  0
    5.8155    2.0401    0.0000 C   0  0  0  0  0  0  0  0  0
    5.8155    1.2151    0.0000 C   0  0  0  0  0  0  0  0  0
    5.1010    0.8026    0.0000 C   0  0  0  0  0  0  0  0  0
    5.1010   -0.0224    0.0000 N   0  3  0  0  0  0  0  0  0
    5.8155   -0.4349    0.0000 O   0  5  0  0  0  0  0  0  0
    4.3866   -0.4349    0.0000 O   0  5  0  0  0  0  0  0  0
    0.0296    1.0575    0.0000 C   0  0  0  0  0  0  0  0  0
   -0.4553    0.3901    0.0000 C   0  0  0  0  0  0  0  0  0
   -1.2803    0.3901    0.0000 C   0  0  0  0  0  0  0  0  0
   -1.6928   -0.3244    0.0000 C   0  0  0  0  0  0  0  0  0
   -2.5178   -0.3244    0.0000 N   0  0  0  0  0  0  0  0  0
   -3.0028   -0.9918    0.0000 C   0  0  0  0  0  0  0  0  0
   -3.7874   -0.7369    0.0000 C   0  0  0  0  0  0  0  0  0
   -3.7874    0.0881    0.0000 C   0  0  0  0  0  0  0  0  0
   -3.0028    0.3430    0.0000 C   0  0  0  0  0  0  0  0  0
   -2.7478    1.1277    0.0000 C   0  0  0  0  0  0  0  0  0
  1  2  4  0  0  0  0
  1 20  4  0  0  0  0
  2  3  4  0  0  0  0
  2  7  4  0  0  0  0
  3  4  4  0  0  0  0
  3 19  4  0  0  0  0
  4  5  4  0  0  0  0
  5  6  4  0  0  0  0
  5  8  1  0  0  0  0
  6  7  4  0  0  0  0
  8  9  1  0  0  0  0
  9 10  1  0  0  0  0
 10 11  4  0  0  0  0
 10 15  4  0  0  0  0
 11 12  4  0  0  0  0
 12 13  4  0  0  0  0
 13 14  4  0  0  0  0
 14 15  4  0  0  0  0
 15 16  1  0  0  0  0
 16 17  1  0  0  0  0
 16 18  1  0  0  0  0
 19 20  4  0  0  0  0
 20 21  1  0  0  0  0
 21 22  1  0  0  0  0
 22 23  1  0  0  0  0
 23 24  1  0  0  0  0
 23 27  1  0  0  0  0
 24 25  1  0  0  0  0
 25 26  1  0  0  0  0
 26 27  1  0  0  0  0
 27 28  1  0  0  0  0
M  CHG  3  16   1  17  -1  18  -1
M  END
>  <Name_Molregno>
329981

>  <HISTAMINE H3>
9.51

$$$$
329993
  Marvin  02231216192D 0   1.00000     0.00000     0

 31 34  0  0  1  0  0  0  0  0999 V2000
    0.1383   -1.0975    0.0000 O   0  0  0  0  0  0  0  0  0
    0.9229   -0.8426    0.0000 C   0  0  0  0  0  0  0  0  0
    0.9229   -0.0176    0.0000 C   0  0  0  0  0  0  0  0  0
    1.6374    0.3949    0.0000 C   0  0  0  0  0  0  0  0  0
    2.3518   -0.0176    0.0000 C   0  0  0  0  0  0  0  0  0
    2.3518   -0.8426    0.0000 C   0  0  0  0  0  0  0  0  0
    1.6374   -1.2551    0.0000 C   0  0  0  0  0  0  0  0  0
    3.0663    0.3949    0.0000 C   0  0  0  0  0  0  0  0  0
    3.7808   -0.0176    0.0000 N   0  0  0  0  0  0  0  0  0
    4.4952    0.3949    0.0000 C   0  0  0  0  0  0  0  0  0
    4.4952    1.2199    0.0000 N   0  0  0  0  0  0  0  0  0
    5.2097    1.6324    0.0000 C   0  0  0  0  0  0  0  0  0
    5.9242    1.2199    0.0000 C   0  0  0  0  0  0  0  0  0
    6.6387    1.6324    0.0000 N   0  3  0  0  0  0  0  0  0
    7.3531    1.2199    0.0000 O   0  5  0  0  0  0  0  0  0
    6.6387    2.4574    0.0000 O   0  5  0  0  0  0  0  0  0
    5.9242    0.3949    0.0000 C   0  0  0  0  0  0  0  0  0
    5.2097   -0.0176    0.0000 C   0  0  0  0  0  0  0  0  0
    5.2097   -0.8426    0.0000 N   0  3  0  0  0  0  0  0  0
    5.9242   -1.2551    0.0000 O   0  5  0  0  0  0  0  0  0
    4.4952   -1.2551    0.0000 O   0  5  0  0  0  0  0  0  0
    0.1383    0.2374    0.0000 C   0  0  0  0  0  0  0  0  0
   -0.3467   -0.4301    0.0000 C   0  0  0  0  0  0  0  0  0
   -1.1717   -0.4301    0.0000 C   0  0  0  0  0  0  0  0  0
   -1.5842   -1.1446    0.0000 C   0  0  0  0  0  0  0  0  0
   -2.4092   -1.1446    0.0000 N   0  0  0  0  0  0  0  0  0
   -2.8941   -1.8120    0.0000 C   0  0  0  0  0  0  0  0  0
   -3.6787   -1.5571    0.0000 C   0  0  0  0  0  0  0  0  0
   -3.6787   -0.7321    0.0000 C   0  0  0  0  0  0  0  0  0
   -2.8941   -0.4771    0.0000 C   0  0  0  0  0  0  0  0  0
   -2.6391    0.3075    0.0000 C   0  0  0  0  0  0  0  0  0
  1  2  4  0  0  0  0
  1 23  4  0  0  0  0
  2  3  4  0  0  0  0
  2  7  4  0  0  0  0
  3  4  4  0  0  0  0
  3 22  4  0  0  0  0
  4  5  4  0  0  0  0
  5  6  4  0  0  0  0
  5  8  1  0  0  0  0
  6  7  4  0  0  0  0
  8  9  1  0  0  0  0
  9 10  1  0  0  0  0
 10 11  4  0  0  0  0
 10 18  4  0  0  0  0
 11 12  4  0  0  0  0
 12 13  4  0  0  0  0
 13 14  1  0  0  0  0
 13 17  4  0  0  0  0
 14 15  1  0  0  0  0
 14 16  1  0  0  0  0
 17 18  4  0  0  0  0
 18 19  1  0  0  0  0
 19 20  1  0  0  0  0
 19 21  1  0  0  0  0
 22 23  4  0  0  0  0
 23 24  1  0  0  0  0
 24 25  1  0  0  0  0
 25 26  1  0  0  0  0
 26 27  1  0  0  0  0
 26 30  1  0  0  0  0
 27 28  1  0  0  0  0
 28 29  1  0  0  0  0
 29 30  1  0  0  0  0
 30 31  1  0  0  0  0
M  CHG  6  14   1  15  -1  16  -1  19   1  20  -1  21  -1
M  END
>  <Name_Molregno>
329993

>  <HISTAMINE H3>
9.15

$$$$
329996
  Marvin  02231216192D 0   1.00000     0.00000     0

 26 29  0  0  1  0  0  0  0  0999 V2000
   10.7859   -2.5080    0.0000 Br  0  0  0  0  0  0  0  0  0
   10.0714   -2.0955    0.0000 C   0  0  0  0  0  0  0  0  0
    9.3570   -2.5080    0.0000 C   0  0  0  0  0  0  0  0  0
    8.6425   -2.0955    0.0000 N   0  0  0  0  0  0  0  0  0
    8.6425   -1.2705    0.0000 C   0  0  0  0  0  0  0  0  0
    9.3570   -0.8580    0.0000 N   0  0  0  0  0  0  0  0  0
   10.0714   -1.2705    0.0000 C   0  0  0  0  0  0  0  0  0
    7.9280   -0.8580    0.0000 N   0  0  0  0  0  0  0  0  0
    7.2136   -1.2705    0.0000 C   0  0  0  0  0  0  0  0  0
    6.4991   -0.8580    0.0000 C   0  0  0  0  0  0  0  0  0
    5.7846   -1.2705    0.0000 C   0  0  0  0  0  0  0  0  0
    5.0701   -0.8580    0.0000 C   0  0  0  0  0  0  0  0  0
    4.2855   -1.1129    0.0000 C   0  0  0  0  0  0  0  0  0
    3.8006   -0.4455    0.0000 C   0  0  0  0  0  0  0  0  0
    4.2855    0.2219    0.0000 O   0  0  0  0  0  0  0  0  0
    5.0701   -0.0330    0.0000 C   0  0  0  0  0  0  0  0  0
    5.7846    0.3795    0.0000 C   0  0  0  0  0  0  0  0  0
    6.4991   -0.0330    0.0000 C   0  0  0  0  0  0  0  0  0
    2.9756   -0.4455    0.0000 C   0  0  0  0  0  0  0  0  0
    2.5631   -1.1600    0.0000 C   0  0  0  0  0  0  0  0  0
    1.7381   -1.1600    0.0000 N   0  0  0  0  0  0  0  0  0
    1.2532   -1.8274    0.0000 C   0  0  0  0  0  0  0  0  0
    0.4686   -1.5725    0.0000 C   0  0  0  0  0  0  0  0  0
    0.4686   -0.7475    0.0000 C   0  0  0  0  0  0  0  0  0
    1.2532   -0.4925    0.0000 C   0  0  0  0  0  0  0  0  0
    1.5081    0.2921    0.0000 C   0  0  0  0  0  0  0  0  0
  1  2  1  0  0  0  0
  2  3  4  0  0  0  0
  2  7  4  0  0  0  0
  3  4  4  0  0  0  0
  4  5  4  0  0  0  0
  5  6  4  0  0  0  0
  5  8  1  0  0  0  0
  6  7  4  0  0  0  0
  8  9  1  0  0  0  0
  9 10  1  0  0  0  0
 10 11  4  0  0  0  0
 10 18  4  0  0  0  0
 11 12  4  0  0  0  0
 12 13  4  0  0  0  0
 12 16  4  0  0  0  0
 13 14  4  0  0  0  0
 14 15  4  0  0  0  0
 14 19  1  0  0  0  0
 15 16  4  0  0  0  0
 16 17  4  0  0  0  0
 17 18  4  0  0  0  0
 19 20  1  0  0  0  0
 20 21  1  0  0  0  0
 21 22  1  0  0  0  0
 21 25  1  0  0  0  0
 22 23  1  0  0  0  0
 23 24  1  0  0  0  0
 24 25  1  0  0  0  0
 25 26  1  0  0  0  0
M  END
>  <Name_Molregno>
329996

>  <HISTAMINE H3>
8.91

$$$$
330001
  Marvin  02231216192D 0   1.00000     0.00000     0

 28 31  0  0  1  0  0  0  0  0999 V2000
    0.2306   -0.9519    0.0000 O   0  0  0  0  0  0  0  0  0
    1.0152   -0.6970    0.0000 C   0  0  0  0  0  0  0  0  0
    1.0152    0.1280    0.0000 C   0  0  0  0  0  0  0  0  0
    1.7297    0.5405    0.0000 C   0  0  0  0  0  0  0  0  0
    2.4442    0.1280    0.0000 C   0  0  0  0  0  0  0  0  0
    2.4442   -0.6970    0.0000 C   0  0  0  0  0  0  0  0  0
    1.7297   -1.1095    0.0000 C   0  0  0  0  0  0  0  0  0
    3.1586    0.5405    0.0000 C   0  0  0  0  0  0  0  0  0
    3.8731    0.1280    0.0000 N   0  0  0  0  0  0  0  0  0
    4.5876    0.5405    0.0000 C   0  0  0  0  0  0  0  0  0
    4.5876    1.3655    0.0000 C   0  0  0  0  0  0  0  0  0
    5.3021    1.7780    0.0000 C   0  0  0  0  0  0  0  0  0
    6.0165    1.3655    0.0000 C   0  0  0  0  0  0  0  0  0
    6.7310    1.7780    0.0000 N   0  3  0  0  0  0  0  0  0
    7.4455    1.3655    0.0000 O   0  5  0  0  0  0  0  0  0
    6.7310    2.6030    0.0000 O   0  5  0  0  0  0  0  0  0
    6.0165    0.5405    0.0000 C   0  0  0  0  0  0  0  0  0
    5.3021    0.1280    0.0000 C   0  0  0  0  0  0  0  0  0
    0.2306    0.3830    0.0000 C   0  0  0  0  0  0  0  0  0
   -0.2543   -0.2845    0.0000 C   0  0  0  0  0  0  0  0  0
   -1.0793   -0.2845    0.0000 C   0  0  0  0  0  0  0  0  0
   -1.4918   -0.9989    0.0000 C   0  0  0  0  0  0  0  0  0
   -2.3168   -0.9989    0.0000 N   0  0  0  0  0  0  0  0  0
   -2.8017   -1.6664    0.0000 C   0  0  0  0  0  0  0  0  0
   -3.5864   -1.4114    0.0000 C   0  0  0  0  0  0  0  0  0
   -3.5864   -0.5864    0.0000 C   0  0  0  0  0  0  0  0  0
   -2.8017   -0.3315    0.0000 C   0  0  0  0  0  0  0  0  0
   -2.5468    0.4531    0.0000 C   0  0  0  0  0  0  0  0  0
  1  2  4  0  0  0  0
  1 20  4  0  0  0  0
  2  3  4  0  0  0  0
  2  7  4  0  0  0  0
  3  4  4  0  0  0  0
  3 19  4  0  0  0  0
  4  5  4  0  0  0  0
  5  6  4  0  0  0  0
  5  8  1  0  0  0  0
  6  7  4  0  0  0  0
  8  9  1  0  0  0  0
  9 10  1  0  0  0  0
 10 11  4  0  0  0  0
 10 18  4  0  0  0  0
 11 12  4  0  0  0  0
 12 13  4  0  0  0  0
 13 14  1  0  0  0  0
 13 17  4  0  0  0  0
 14 15  1  0  0  0  0
 14 16  1  0  0  0  0
 17 18  4  0  0  0  0
 19 20  4  0  0  0  0
 20 21  1  0  0  0  0
 21 22  1  0  0  0  0
 22 23  1  0  0  0  0
 23 24  1  0  0  0  0
 23 27  1  0  0  0  0
 24 25  1  0  0  0  0
 25 26  1  0  0  0  0
 26 27  1  0  0  0  0
 27 28  1  0  0  0  0
M  CHG  3  14   1  15  -1  16  -1
M  END
>  <Name_Molregno>
330001

>  <HISTAMINE H3>
9.13

$$$$
330022
  Marvin  02231216192D 0   1.00000     0.00000     0

 28 31  0  0  1  0  0  0  0  0999 V2000
    0.2306   -0.9519    0.0000 O   0  0  0  0  0  0  0  0  0
    1.0152   -0.6970    0.0000 C   0  0  0  0  0  0  0  0  0
    1.0152    0.1280    0.0000 C   0  0  0  0  0  0  0  0  0
    1.7297    0.5405    0.0000 C   0  0  0  0  0  0  0  0  0
    2.4442    0.1280    0.0000 C   0  0  0  0  0  0  0  0  0
    2.4442   -0.6970    0.0000 C   0  0  0  0  0  0  0  0  0
    1.7297   -1.1095    0.0000 C   0  0  0  0  0  0  0  0  0
    3.1586    0.5405    0.0000 C   0  0  0  0  0  0  0  0  0
    3.8731    0.1280    0.0000 N   0  0  0  0  0  0  0  0  0
    4.5876    0.5405    0.0000 C   0  0  0  0  0  0  0  0  0
    4.5876    1.3655    0.0000 N   0  0  0  0  0  0  0  0  0
    5.3021    1.7780    0.0000 C   0  0  0  0  0  0  0  0  0
    6.0165    1.3655    0.0000 C   0  0  0  0  0  0  0  0  0
    6.7310    1.7780    0.0000 N   0  3  0  0  0  0  0  0  0
    7.4455    1.3655    0.0000 O   0  5  0  0  0  0  0  0  0
    6.7310    2.6030    0.0000 O   0  5  0  0  0  0  0  0  0
    6.0165    0.5405    0.0000 C   0  0  0  0  0  0  0  0  0
    5.3021    0.1280    0.0000 C   0  0  0  0  0  0  0  0  0
    0.2306    0.3830    0.0000 C   0  0  0  0  0  0  0  0  0
   -0.2543   -0.2845    0.0000 C   0  0  0  0  0  0  0  0  0
   -1.0793   -0.2845    0.0000 C   0  0  0  0  0  0  0  0  0
   -1.4918   -0.9989    0.0000 C   0  0  0  0  0  0  0  0  0
   -2.3168   -0.9989    0.0000 N   0  0  0  0  0  0  0  0  0
   -2.8017   -1.6664    0.0000 C   0  0  0  0  0  0  0  0  0
   -3.5864   -1.4114    0.0000 C   0  0  0  0  0  0  0  0  0
   -3.5864   -0.5864    0.0000 C   0  0  0  0  0  0  0  0  0
   -2.8017   -0.3315    0.0000 C   0  0  0  0  0  0  0  0  0
   -2.5468    0.4531    0.0000 C   0  0  0  0  0  0  0  0  0
  1  2  4  0  0  0  0
  1 20  4  0  0  0  0
  2  3  4  0  0  0  0
  2  7  4  0  0  0  0
  3  4  4  0  0  0  0
  3 19  4  0  0  0  0
  4  5  4  0  0  0  0
  5  6  4  0  0  0  0
  5  8  1  0  0  0  0
  6  7  4  0  0  0  0
  8  9  1  0  0  0  0
  9 10  1  0  0  0  0
 10 11  4  0  0  0  0
 10 18  4  0  0  0  0
 11 12  4  0  0  0  0
 12 13  4  0  0  0  0
 13 14  1  0  0  0  0
 13 17  4  0  0  0  0
 14 15  1  0  0  0  0
 14 16  1  0  0  0  0
 17 18  4  0  0  0  0
 19 20  4  0  0  0  0
 20 21  1  0  0  0  0
 21 22  1  0  0  0  0
 22 23  1  0  0  0  0
 23 24  1  0  0  0  0
 23 27  1  0  0  0  0
 24 25  1  0  0  0  0
 25 26  1  0  0  0  0
 26 27  1  0  0  0  0
 27 28  1  0  0  0  0
M  CHG  3  14   1  15  -1  16  -1
M  END
>  <Name_Molregno>
330022

>  <HISTAMINE H3>
9.52

$$$$
330025
  Marvin  02231216192D 0   1.00000     0.00000     0

 26 29  0  0  1  0  0  0  0  0999 V2000
    0.0267   -0.2542    0.0000 O   0  0  0  0  0  0  0  0  0
    0.8113    0.0007    0.0000 C   0  0  0  0  0  0  0  0  0
    0.8113    0.8257    0.0000 C   0  0  0  0  0  0  0  0  0
    0.0267    1.0807    0.0000 C   0  0  0  0  0  0  0  0  0
   -0.4582    0.4132    0.0000 C   0  0  0  0  0  0  0  0  0
   -1.2832    0.4132    0.0000 C   0  0  0  0  0  0  0  0  0
   -1.6957   -0.3012    0.0000 C   0  0  0  0  0  0  0  0  0
   -2.5207   -0.3012    0.0000 N   0  0  0  0  0  0  0  0  0
   -3.0056   -0.9687    0.0000 C   0  0  0  0  0  0  0  0  0
   -3.7903   -0.7137    0.0000 C   0  0  0  0  0  0  0  0  0
   -3.7903    0.1113    0.0000 C   0  0  0  0  0  0  0  0  0
   -3.0056    0.3662    0.0000 C   0  0  0  0  0  0  0  0  0
   -2.7507    1.1508    0.0000 C   0  0  0  0  0  0  0  0  0
    1.5258    1.2382    0.0000 C   0  0  0  0  0  0  0  0  0
    2.2403    0.8257    0.0000 C   0  0  0  0  0  0  0  0  0
    2.9547    1.2382    0.0000 N   0  0  0  0  0  0  0  0  0
    3.6692    0.8257    0.0000 C   0  0  0  0  0  0  0  0  0
    4.3837    1.2382    0.0000 C   0  0  0  0  0  0  0  0  0
    5.0981    0.8257    0.0000 C   0  0  0  0  0  0  0  0  0
    5.0981    0.0007    0.0000 C   0  0  0  0  0  0  0  0  0
    4.3837   -0.4118    0.0000 C   0  0  0  0  0  0  0  0  0
    3.6692    0.0007    0.0000 C   0  0  0  0  0  0  0  0  0
    5.8126    1.2382    0.0000 C   0  0  0  0  0  0  0  0  0
    6.5271    1.6507    0.0000 N   0  0  0  0  0  0  0  0  0
    2.2403    0.0007    0.0000 C   0  0  0  0  0  0  0  0  0
    1.5258   -0.4118    0.0000 C   0  0  0  0  0  0  0  0  0
  1  2  4  0  0  0  0
  1  5  4  0  0  0  0
  2  3  4  0  0  0  0
  2 26  4  0  0  0  0
  3  4  4  0  0  0  0
  3 14  4  0  0  0  0
  4  5  4  0  0  0  0
  5  6  1  0  0  0  0
  6  7  1  0  0  0  0
  7  8  1  0  0  0  0
  8  9  1  0  0  0  0
  8 12  1  0  0  0  0
  9 10  1  0  0  0  0
 10 11  1  0  0  0  0
 11 12  1  0  0  0  0
 12 13  1  0  0  0  0
 14 15  4  0  0  0  0
 15 16  1  0  0  0  0
 15 25  4  0  0  0  0
 16 17  1  0  0  0  0
 17 18  4  0  0  0  0
 17 22  4  0  0  0  0
 18 19  4  0  0  0  0
 19 20  4  0  0  0  0
 19 23  1  0  0  0  0
 20 21  4  0  0  0  0
 21 22  4  0  0  0  0
 23 24  3  0  0  0  0
 25 26  4  0  0  0  0
M  END
>  <Name_Molregno>
330025

>  <HISTAMINE H3>
9.54

$$$$
330034
  Marvin  02231216192D 0   1.00000     0.00000     0

 24 27  0  0  1  0  0  0  0  0999 V2000
    0.0275   -0.2075    0.0000 O   0  0  0  0  0  0  0  0  0
    0.8121    0.0474    0.0000 C   0  0  0  0  0  0  0  0  0
    0.8121    0.8724    0.0000 C   0  0  0  0  0  0  0  0  0
    0.0275    1.1274    0.0000 C   0  0  0  0  0  0  0  0  0
   -0.4574    0.4599    0.0000 C   0  0  0  0  0  0  0  0  0
   -1.2824    0.4599    0.0000 C   0  0  0  0  0  0  0  0  0
   -1.6949   -0.2546    0.0000 C   0  0  0  0  0  0  0  0  0
   -2.5199   -0.2546    0.0000 N   0  0  0  0  0  0  0  0  0
   -3.0049   -0.9220    0.0000 C   0  0  0  0  0  0  0  0  0
   -3.7895   -0.6671    0.0000 C   0  0  0  0  0  0  0  0  0
   -3.7895    0.1579    0.0000 C   0  0  0  0  0  0  0  0  0
   -3.0049    0.4129    0.0000 C   0  0  0  0  0  0  0  0  0
   -2.7499    1.1975    0.0000 C   0  0  0  0  0  0  0  0  0
    1.5266    1.2849    0.0000 C   0  0  0  0  0  0  0  0  0
    2.2410    0.8724    0.0000 C   0  0  0  0  0  0  0  0  0
    2.9555    1.2849    0.0000 N   0  0  0  0  0  0  0  0  0
    3.6700    0.8724    0.0000 C   0  0  0  0  0  0  0  0  0
    4.3845    1.2849    0.0000 C   0  0  0  0  0  0  0  0  0
    5.0989    0.8724    0.0000 N   0  0  0  0  0  0  0  0  0
    5.0989    0.0474    0.0000 C   0  0  0  0  0  0  0  0  0
    4.3845   -0.3651    0.0000 N   0  0  0  0  0  0  0  0  0
    3.6700    0.0474    0.0000 C   0  0  0  0  0  0  0  0  0
    2.2410    0.0474    0.0000 C   0  0  0  0  0  0  0  0  0
    1.5266   -0.3651    0.0000 C   0  0  0  0  0  0  0  0  0
  1  2  4  0  0  0  0
  1  5  4  0  0  0  0
  2  3  4  0  0  0  0
  2 24  4  0  0  0  0
  3  4  4  0  0  0  0
  3 14  4  0  0  0  0
  4  5  4  0  0  0  0
  5  6  1  0  0  0  0
  6  7  1  0  0  0  0
  7  8  1  0  0  0  0
  8  9  1  0  0  0  0
  8 12  1  0  0  0  0
  9 10  1  0  0  0  0
 10 11  1  0  0  0  0
 11 12  1  0  0  0  0
 12 13  1  0  0  0  0
 14 15  4  0  0  0  0
 15 16  1  0  0  0  0
 15 23  4  0  0  0  0
 16 17  1  0  0  0  0
 17 18  4  0  0  0  0
 17 22  4  0  0  0  0
 18 19  4  0  0  0  0
 19 20  4  0  0  0  0
 20 21  4  0  0  0  0
 21 22  4  0  0  0  0
 23 24  4  0  0  0  0
M  END
>  <Name_Molregno>
330034

>  <HISTAMINE H3>
10.1

$$$$
330045
  Marvin  02231216192D 0   1.00000     0.00000     0

 24 27  0  0  1  0  0  0  0  0999 V2000
    0.0275   -0.2075    0.0000 O   0  0  0  0  0  0  0  0  0
    0.8121    0.0474    0.0000 C   0  0  0  0  0  0  0  0  0
    0.8121    0.8724    0.0000 C   0  0  0  0  0  0  0  0  0
    0.0275    1.1274    0.0000 C   0  0  0  0  0  0  0  0  0
   -0.4574    0.4599    0.0000 C   0  0  0  0  0  0  0  0  0
   -1.2824    0.4599    0.0000 C   0  0  0  0  0  0  0  0  0
   -1.6949   -0.2546    0.0000 C   0  0  0  0  0  0  0  0  0
   -2.5199   -0.2546    0.0000 N   0  0  0  0  0  0  0  0  0
   -3.0049   -0.9220    0.0000 C   0  0  0  0  0  0  0  0  0
   -3.7895   -0.6671    0.0000 C   0  0  0  0  0  0  0  0  0
   -3.7895    0.1579    0.0000 C   0  0  0  0  0  0  0  0  0
   -3.0049    0.4129    0.0000 C   0  0  0  0  0  0  0  0  0
   -2.7499    1.1975    0.0000 C   0  0  0  0  0  0  0  0  0
    1.5266    1.2849    0.0000 C   0  0  0  0  0  0  0  0  0
    2.2410    0.8724    0.0000 C   0  0  0  0  0  0  0  0  0
    2.9555    1.2849    0.0000 N   0  0  0  0  0  0  0  0  0
    3.6700    0.8724    0.0000 C   0  0  0  0  0  0  0  0  0
    4.3845    1.2849    0.0000 N   0  0  0  0  0  0  0  0  0
    5.0989    0.8724    0.0000 C   0  0  0  0  0  0  0  0  0
    5.0989    0.0474    0.0000 C   0  0  0  0  0  0  0  0  0
    4.3845   -0.3651    0.0000 N   0  0  0  0  0  0  0  0  0
    3.6700    0.0474    0.0000 C   0  0  0  0  0  0  0  0  0
    2.2410    0.0474    0.0000 C   0  0  0  0  0  0  0  0  0
    1.5266   -0.3651    0.0000 C   0  0  0  0  0  0  0  0  0
  1  2  4  0  0  0  0
  1  5  4  0  0  0  0
  2  3  4  0  0  0  0
  2 24  4  0  0  0  0
  3  4  4  0  0  0  0
  3 14  4  0  0  0  0
  4  5  4  0  0  0  0
  5  6  1  0  0  0  0
  6  7  1  0  0  0  0
  7  8  1  0  0  0  0
  8  9  1  0  0  0  0
  8 12  1  0  0  0  0
  9 10  1  0  0  0  0
 10 11  1  0  0  0  0
 11 12  1  0  0  0  0
 12 13  1  0  0  0  0
 14 15  4  0  0  0  0
 15 16  1  0  0  0  0
 15 23  4  0  0  0  0
 16 17  1  0  0  0  0
 17 18  4  0  0  0  0
 17 22  4  0  0  0  0
 18 19  4  0  0  0  0
 19 20  4  0  0  0  0
 20 21  4  0  0  0  0
 21 22  4  0  0  0  0
 23 24  4  0  0  0  0
M  END
>  <Name_Molregno>
330045

>  <HISTAMINE H3>
9.96

$$$$
330049
  Marvin  02231216192D 0   1.00000     0.00000     0

 27 30  0  0  1  0  0  0  0  0999 V2000
   -0.2768   -0.3260    0.0000 O   0  0  0  0  0  0  0  0  0
    0.5079   -0.0711    0.0000 C   0  0  0  0  0  0  0  0  0
    0.5079    0.7539    0.0000 C   0  0  0  0  0  0  0  0  0
   -0.2768    1.0089    0.0000 C   0  0  0  0  0  0  0  0  0
   -0.7617    0.3414    0.0000 C   0  0  0  0  0  0  0  0  0
   -1.5867    0.3414    0.0000 C   0  0  0  0  0  0  0  0  0
   -1.9992   -0.3730    0.0000 C   0  0  0  0  0  0  0  0  0
   -1.5867   -1.0875    0.0000 N   0  0  0  0  0  0  0  0  0
   -0.7662   -1.1737    0.0000 C   0  0  0  0  0  0  0  0  0
   -0.5947   -1.9807    0.0000 C   0  0  0  0  0  0  0  0  0
   -1.3091   -2.3932    0.0000 C   0  0  0  0  0  0  0  0  0
   -1.9222   -1.8412    0.0000 C   0  0  0  0  0  0  0  0  0
   -2.7292   -2.0127    0.0000 C   0  0  0  0  0  0  0  0  0
    1.2223    1.1664    0.0000 C   0  0  0  0  0  0  0  0  0
    1.9368    0.7539    0.0000 C   0  0  0  0  0  0  0  0  0
    2.6513    1.1664    0.0000 N   0  0  0  0  0  0  0  0  0
    3.3658    0.7539    0.0000 C   0  0  0  0  0  0  0  0  0
    3.3658   -0.0711    0.0000 N   0  0  0  0  0  0  0  0  0
    4.0802   -0.4836    0.0000 C   0  0  0  0  0  0  0  0  0
    4.7947   -0.0711    0.0000 C   0  0  0  0  0  0  0  0  0
    4.7947    0.7539    0.0000 C   0  0  0  0  0  0  0  0  0
    4.0802    1.1664    0.0000 C   0  0  0  0  0  0  0  0  0
    4.0802    1.9914    0.0000 N   0  3  0  0  0  0  0  0  0
    4.7947    2.4039    0.0000 O   0  5  0  0  0  0  0  0  0
    3.3658    2.4039    0.0000 O   0  5  0  0  0  0  0  0  0
    1.9368   -0.0711    0.0000 C   0  0  0  0  0  0  0  0  0
    1.2223   -0.4836    0.0000 C   0  0  0  0  0  0  0  0  0
  1  2  4  0  0  0  0
  1  5  4  0  0  0  0
  2  3  4  0  0  0  0
  2 27  4  0  0  0  0
  3  4  4  0  0  0  0
  3 14  4  0  0  0  0
  4  5  4  0  0  0  0
  5  6  1  0  0  0  0
  6  7  1  0  0  0  0
  7  8  1  0  0  0  0
  8  9  1  0  0  0  0
  8 12  1  0  0  0  0
  9 10  1  0  0  0  0
 10 11  1  0  0  0  0
 11 12  1  0  0  0  0
 12 13  1  0  0  0  0
 14 15  4  0  0  0  0
 15 16  1  0  0  0  0
 15 26  4  0  0  0  0
 16 17  1  0  0  0  0
 17 18  4  0  0  0  0
 17 22  4  0  0  0  0
 18 19  4  0  0  0  0
 19 20  4  0  0  0  0
 20 21  4  0  0  0  0
 21 22  4  0  0  0  0
 22 23  1  0  0  0  0
 23 24  1  0  0  0  0
 23 25  1  0  0  0  0
 26 27  4  0  0  0  0
M  CHG  3  23   1  24  -1  25  -1
M  END
>  <Name_Molregno>
330049

>  <HISTAMINE H3>
9.85

$$$$
330069
  Marvin  02231216192D 0   1.00000     0.00000     0

 27 30  0  0  1  0  0  0  0  0999 V2000
    0.0349   -0.2648    0.0000 O   0  0  0  0  0  0  0  0  0
    0.8195   -0.0098    0.0000 C   0  0  0  0  0  0  0  0  0
    0.8195    0.8152    0.0000 C   0  0  0  0  0  0  0  0  0
    1.5340    1.2277    0.0000 C   0  0  0  0  0  0  0  0  0
    2.2484    0.8152    0.0000 C   0  0  0  0  0  0  0  0  0
    2.2484   -0.0098    0.0000 C   0  0  0  0  0  0  0  0  0
    1.5340   -0.4223    0.0000 C   0  0  0  0  0  0  0  0  0
    2.9629    1.2277    0.0000 C   0  0  0  0  0  0  0  0  0
    3.6774    0.8152    0.0000 N   0  0  0  0  0  0  0  0  0
    4.3918    1.2277    0.0000 C   0  0  0  0  0  0  0  0  0
    4.3918    2.0527    0.0000 N   0  0  0  0  0  0  0  0  0
    5.1063    2.4652    0.0000 C   0  0  0  0  0  0  0  0  0
    5.8208    2.0527    0.0000 C   0  0  0  0  0  0  0  0  0
    5.8208    1.2277    0.0000 C   0  0  0  0  0  0  0  0  0
    5.1063    0.8152    0.0000 C   0  0  0  0  0  0  0  0  0
    5.1063   -0.0098    0.0000 C   0  0  0  0  0  0  0  0  0
    5.1063   -0.8348    0.0000 N   0  0  0  0  0  0  0  0  0
    0.0349    1.0701    0.0000 C   0  0  0  0  0  0  0  0  0
   -0.4501    0.4027    0.0000 C   0  0  0  0  0  0  0  0  0
   -1.2751    0.4027    0.0000 C   0  0  0  0  0  0  0  0  0
   -1.6876   -0.3118    0.0000 C   0  0  0  0  0  0  0  0  0
   -2.5126   -0.3118    0.0000 N   0  0  0  0  0  0  0  0  0
   -2.9975   -0.9792    0.0000 C   0  0  0  0  0  0  0  0  0
   -3.7821   -0.7243    0.0000 C   0  0  0  0  0  0  0  0  0
   -3.7821    0.1007    0.0000 C   0  0  0  0  0  0  0  0  0
   -2.9975    0.3557    0.0000 C   0  0  0  0  0  0  0  0  0
   -2.7425    1.1403    0.0000 C   0  0  0  0  0  0  0  0  0
  1  2  4  0  0  0  0
  1 19  4  0  0  0  0
  2  3  4  0  0  0  0
  2  7  4  0  0  0  0
  3  4  4  0  0  0  0
  3 18  4  0  0  0  0
  4  5  4  0  0  0  0
  5  6  4  0  0  0  0
  5  8  1  0  0  0  0
  6  7  4  0  0  0  0
  8  9  1  0  0  0  0
  9 10  1  0  0  0  0
 10 11  4  0  0  0  0
 10 15  4  0  0  0  0
 11 12  4  0  0  0  0
 12 13  4  0  0  0  0
 13 14  4  0  0  0  0
 14 15  4  0  0  0  0
 15 16  1  0  0  0  0
 16 17  3  0  0  0  0
 18 19  4  0  0  0  0
 19 20  1  0  0  0  0
 20 21  1  0  0  0  0
 21 22  1  0  0  0  0
 22 23  1  0  0  0  0
 22 26  1  0  0  0  0
 23 24  1  0  0  0  0
 24 25  1  0  0  0  0
 25 26  1  0  0  0  0
 26 27  1  0  0  0  0
M  END
>  <Name_Molregno>
330069

>  <HISTAMINE H3>
9.13

$$$$
330072
  Marvin  02231216192D 0   1.00000     0.00000     0

 27 30  0  0  1  0  0  0  0  0999 V2000
   -0.2768   -0.3260    0.0000 O   0  0  0  0  0  0  0  0  0
    0.5079   -0.0711    0.0000 C   0  0  0  0  0  0  0  0  0
    0.5079    0.7539    0.0000 C   0  0  0  0  0  0  0  0  0
   -0.2768    1.0089    0.0000 C   0  0  0  0  0  0  0  0  0
   -0.7617    0.3414    0.0000 C   0  0  0  0  0  0  0  0  0
   -1.5867    0.3414    0.0000 C   0  0  0  0  0  0  0  0  0
   -1.9992   -0.3730    0.0000 C   0  0  0  0  0  0  0  0  0
   -1.5867   -1.0875    0.0000 N   0  0  0  0  0  0  0  0  0
   -0.7662   -1.1737    0.0000 C   0  0  0  0  0  0  0  0  0
   -0.5947   -1.9807    0.0000 C   0  0  0  0  0  0  0  0  0
   -1.3091   -2.3932    0.0000 C   0  0  0  0  0  0  0  0  0
   -1.9222   -1.8412    0.0000 C   0  0  0  0  0  0  0  0  0
   -2.7292   -2.0127    0.0000 C   0  0  0  0  0  0  0  0  0
    1.2223    1.1664    0.0000 C   0  0  0  0  0  0  0  0  0
    1.9368    0.7539    0.0000 C   0  0  0  0  0  0  0  0  0
    2.6513    1.1664    0.0000 N   0  0  0  0  0  0  0  0  0
    3.3658    0.7539    0.0000 C   0  0  0  0  0  0  0  0  0
    3.3658   -0.0711    0.0000 C   0  0  0  0  0  0  0  0  0
    4.0802   -0.4836    0.0000 C   0  0  0  0  0  0  0  0  0
    4.7947   -0.0711    0.0000 C   0  0  0  0  0  0  0  0  0
    4.7947    0.7539    0.0000 C   0  0  0  0  0  0  0  0  0
    4.0802    1.1664    0.0000 C   0  0  0  0  0  0  0  0  0
    4.0802    1.9914    0.0000 N   0  3  0  0  0  0  0  0  0
    4.7947    2.4039    0.0000 O   0  5  0  0  0  0  0  0  0
    3.3658    2.4039    0.0000 O   0  5  0  0  0  0  0  0  0
    1.9368   -0.0711    0.0000 C   0  0  0  0  0  0  0  0  0
    1.2223   -0.4836    0.0000 C   0  0  0  0  0  0  0  0  0
  1  2  4  0  0  0  0
  1  5  4  0  0  0  0
  2  3  4  0  0  0  0
  2 27  4  0  0  0  0
  3  4  4  0  0  0  0
  3 14  4  0  0  0  0
  4  5  4  0  0  0  0
  5  6  1  0  0  0  0
  6  7  1  0  0  0  0
  7  8  1  0  0  0  0
  8  9  1  0  0  0  0
  8 12  1  0  0  0  0
  9 10  1  0  0  0  0
 10 11  1  0  0  0  0
 11 12  1  0  0  0  0
 12 13  1  0  0  0  0
 14 15  4  0  0  0  0
 15 16  1  0  0  0  0
 15 26  4  0  0  0  0
 16 17  1  0  0  0  0
 17 18  4  0  0  0  0
 17 22  4  0  0  0  0
 18 19  4  0  0  0  0
 19 20  4  0  0  0  0
 20 21  4  0  0  0  0
 21 22  4  0  0  0  0
 22 23  1  0  0  0  0
 23 24  1  0  0  0  0
 23 25  1  0  0  0  0
 26 27  4  0  0  0  0
M  CHG  3  23   1  24  -1  25  -1
M  END
>  <Name_Molregno>
330072

>  <HISTAMINE H3>
9.66

$$$$
330081
  Marvin  02231216192D 0   1.00000     0.00000     0

 26 29  0  0  1  0  0  0  0  0999 V2000
    0.0124   -0.2525    0.0000 O   0  0  0  0  0  0  0  0  0
    0.7970    0.0025    0.0000 C   0  0  0  0  0  0  0  0  0
    0.7970    0.8275    0.0000 C   0  0  0  0  0  0  0  0  0
    0.0124    1.0824    0.0000 C   0  0  0  0  0  0  0  0  0
   -0.4725    0.4150    0.0000 C   0  0  0  0  0  0  0  0  0
   -1.2975    0.4150    0.0000 C   0  0  0  0  0  0  0  0  0
   -1.7100   -0.2995    0.0000 C   0  0  0  0  0  0  0  0  0
   -2.5350   -0.2995    0.0000 N   0  0  0  0  0  0  0  0  0
   -3.0199   -0.9669    0.0000 C   0  0  0  0  0  0  0  0  0
   -3.8045   -0.7120    0.0000 C   0  0  0  0  0  0  0  0  0
   -3.8045    0.1130    0.0000 C   0  0  0  0  0  0  0  0  0
   -3.0199    0.3679    0.0000 C   0  0  0  0  0  0  0  0  0
   -2.7650    1.1526    0.0000 C   0  0  0  0  0  0  0  0  0
    1.5115    1.2400    0.0000 C   0  0  0  0  0  0  0  0  0
    2.2260    0.8275    0.0000 C   0  0  0  0  0  0  0  0  0
    2.9405    1.2400    0.0000 N   0  0  0  0  0  0  0  0  0
    3.6549    0.8275    0.0000 C   0  0  0  0  0  0  0  0  0
    4.3694    1.2400    0.0000 N   0  0  0  0  0  0  0  0  0
    5.0839    0.8275    0.0000 C   0  0  0  0  0  0  0  0  0
    5.0839    0.0025    0.0000 C   0  0  0  0  0  0  0  0  0
    4.3694   -0.4100    0.0000 C   0  0  0  0  0  0  0  0  0
    3.6549    0.0025    0.0000 N   0  0  0  0  0  0  0  0  0
    5.7983   -0.4100    0.0000 C   0  0  0  0  0  0  0  0  0
    6.5128    0.0025    0.0000 C   0  0  0  0  0  0  0  0  0
    2.2260    0.0025    0.0000 C   0  0  0  0  0  0  0  0  0
    1.5115   -0.4100    0.0000 C   0  0  0  0  0  0  0  0  0
  1  2  4  0  0  0  0
  1  5  4  0  0  0  0
  2  3  4  0  0  0  0
  2 26  4  0  0  0  0
  3  4  4  0  0  0  0
  3 14  4  0  0  0  0
  4  5  4  0  0  0  0
  5  6  1  0  0  0  0
  6  7  1  0  0  0  0
  7  8  1  0  0  0  0
  8  9  1  0  0  0  0
  8 12  1  0  0  0  0
  9 10  1  0  0  0  0
 10 11  1  0  0  0  0
 11 12  1  0  0  0  0
 12 13  1  0  0  0  0
 14 15  4  0  0  0  0
 15 16  1  0  0  0  0
 15 25  4  0  0  0  0
 16 17  1  0  0  0  0
 17 18  4  0  0  0  0
 17 22  4  0  0  0  0
 18 19  4  0  0  0  0
 19 20  4  0  0  0  0
 20 21  4  0  0  0  0
 20 23  1  0  0  0  0
 21 22  4  0  0  0  0
 23 24  1  0  0  0  0
 25 26  4  0  0  0  0
M  END
>  <Name_Molregno>
330081

>  <HISTAMINE H3>
9.21

$$$$
330095
  Marvin  02231216192D 0   1.00000     0.00000     0

 27 30  0  0  1  0  0  0  0  0999 V2000
   -0.0725    0.0024    0.0000 O   0  0  0  0  0  0  0  0  0
    0.7121    0.2573    0.0000 C   0  0  0  0  0  0  0  0  0
    0.7121    1.0823    0.0000 C   0  0  0  0  0  0  0  0  0
   -0.0725    1.3373    0.0000 C   0  0  0  0  0  0  0  0  0
   -0.5574    0.6698    0.0000 C   0  0  0  0  0  0  0  0  0
   -1.3824    0.6698    0.0000 C   0  0  0  0  0  0  0  0  0
   -1.7949   -0.0446    0.0000 C   0  0  0  0  0  0  0  0  0
   -2.6199   -0.0446    0.0000 N   0  0  0  0  0  0  0  0  0
   -3.1048   -0.7121    0.0000 C   0  0  0  0  0  0  0  0  0
   -3.8895   -0.4571    0.0000 C   0  0  0  0  0  0  0  0  0
   -3.8895    0.3679    0.0000 C   0  0  0  0  0  0  0  0  0
   -3.1048    0.6228    0.0000 C   0  0  0  0  0  0  0  0  0
   -2.8499    1.4074    0.0000 C   0  0  0  0  0  0  0  0  0
    1.4266    1.4948    0.0000 C   0  0  0  0  0  0  0  0  0
    2.1411    1.0823    0.0000 C   0  0  0  0  0  0  0  0  0
    2.8555    1.4948    0.0000 N   0  0  0  0  0  0  0  0  0
    3.5700    1.0823    0.0000 C   0  0  0  0  0  0  0  0  0
    4.2845    1.4948    0.0000 N   0  0  0  0  0  0  0  0  0
    4.9990    1.0823    0.0000 C   0  0  0  0  0  0  0  0  0
    4.9990    0.2573    0.0000 C   0  0  0  0  0  0  0  0  0
    5.7134   -0.1552    0.0000 N   0  3  0  0  0  0  0  0  0
    6.4279    0.2573    0.0000 O   0  5  0  0  0  0  0  0  0
    5.7134   -0.9802    0.0000 O   0  5  0  0  0  0  0  0  0
    4.2845   -0.1552    0.0000 C   0  0  0  0  0  0  0  0  0
    3.5700    0.2573    0.0000 C   0  0  0  0  0  0  0  0  0
    2.1411    0.2573    0.0000 C   0  0  0  0  0  0  0  0  0
    1.4266   -0.1552    0.0000 C   0  0  0  0  0  0  0  0  0
  1  2  4  0  0  0  0
  1  5  4  0  0  0  0
  2  3  4  0  0  0  0
  2 27  4  0  0  0  0
  3  4  4  0  0  0  0
  3 14  4  0  0  0  0
  4  5  4  0  0  0  0
  5  6  1  0  0  0  0
  6  7  1  0  0  0  0
  7  8  1  0  0  0  0
  8  9  1  0  0  0  0
  8 12  1  0  0  0  0
  9 10  1  0  0  0  0
 10 11  1  0  0  0  0
 11 12  1  0  0  0  0
 12 13  1  0  0  0  0
 14 15  4  0  0  0  0
 15 16  1  0  0  0  0
 15 26  4  0  0  0  0
 16 17  1  0  0  0  0
 17 18  4  0  0  0  0
 17 25  4  0  0  0  0
 18 19  4  0  0  0  0
 19 20  4  0  0  0  0
 20 21  1  0  0  0  0
 20 24  4  0  0  0  0
 21 22  1  0  0  0  0
 21 23  1  0  0  0  0
 24 25  4  0  0  0  0
 26 27  4  0  0  0  0
M  CHG  3  21   1  22  -1  23  -1
M  END
>  <Name_Molregno>
330095

>  <HISTAMINE H3>
10.3

$$$$
330103
  Marvin  02231216192D 0   1.00000     0.00000     0

 27 30  0  0  1  0  0  0  0  0999 V2000
   -2.8121   -0.2930    0.0000 O   0  0  0  0  0  0  0  0  0
   -2.0275   -0.0380    0.0000 C   0  0  0  0  0  0  0  0  0
   -2.0275    0.7870    0.0000 C   0  0  0  0  0  0  0  0  0
   -1.3130    1.1995    0.0000 C   0  0  0  0  0  0  0  0  0
   -0.5985    0.7870    0.0000 C   0  0  0  0  0  0  0  0  0
   -0.5985   -0.0380    0.0000 C   0  0  0  0  0  0  0  0  0
   -1.3130   -0.4505    0.0000 C   0  0  0  0  0  0  0  0  0
    0.1160    1.1995    0.0000 C   0  0  0  0  0  0  0  0  0
    0.8304    0.7870    0.0000 N   0  0  0  0  0  0  0  0  0
    1.5449    1.1995    0.0000 C   0  0  0  0  0  0  0  0  0
    1.5449    2.0245    0.0000 N   0  0  0  0  0  0  0  0  0
    2.2594    2.4370    0.0000 C   0  0  0  0  0  0  0  0  0
    2.9738    2.0245    0.0000 C   0  0  0  0  0  0  0  0  0
    2.9738    1.1995    0.0000 C   0  0  0  0  0  0  0  0  0
    2.2594    0.7870    0.0000 C   0  0  0  0  0  0  0  0  0
    3.6883    2.4370    0.0000 C   0  0  0  0  0  0  0  0  0
    4.4028    2.8495    0.0000 N   0  0  0  0  0  0  0  0  0
   -2.8121    1.0419    0.0000 C   0  0  0  0  0  0  0  0  0
   -3.2970    0.3745    0.0000 C   0  0  0  0  0  0  0  0  0
   -4.1220    0.3745    0.0000 C   0  0  0  0  0  0  0  0  0
   -4.5345   -0.3400    0.0000 C   0  0  0  0  0  0  0  0  0
   -5.3595   -0.3400    0.0000 N   0  0  0  0  0  0  0  0  0
   -5.8444   -1.0074    0.0000 C   0  0  0  0  0  0  0  0  0
   -6.6290   -0.7525    0.0000 C   0  0  0  0  0  0  0  0  0
   -6.6290    0.0725    0.0000 C   0  0  0  0  0  0  0  0  0
   -5.8444    0.3275    0.0000 C   0  0  0  0  0  0  0  0  0
   -5.5895    1.1121    0.0000 C   0  0  0  0  0  0  0  0  0
  1  2  4  0  0  0  0
  1 19  4  0  0  0  0
  2  3  4  0  0  0  0
  2  7  4  0  0  0  0
  3  4  4  0  0  0  0
  3 18  4  0  0  0  0
  4  5  4  0  0  0  0
  5  6  4  0  0  0  0
  5  8  1  0  0  0  0
  6  7  4  0  0  0  0
  8  9  1  0  0  0  0
  9 10  1  0  0  0  0
 10 11  4  0  0  0  0
 10 15  4  0  0  0  0
 11 12  4  0  0  0  0
 12 13  4  0  0  0  0
 13 14  4  0  0  0  0
 13 16  1  0  0  0  0
 14 15  4  0  0  0  0
 16 17  3  0  0  0  0
 18 19  4  0  0  0  0
 19 20  1  0  0  0  0
 20 21  1  0  0  0  0
 21 22  1  0  0  0  0
 22 23  1  0  0  0  0
 22 26  1  0  0  0  0
 23 24  1  0  0  0  0
 24 25  1  0  0  0  0
 25 26  1  0  0  0  0
 26 27  1  0  0  0  0
M  END
>  <Name_Molregno>
330103

>  <HISTAMINE H3>
9.47

$$$$
330110
  Marvin  02231216192D 0   1.00000     0.00000     0

 26 29  0  0  1  0  0  0  0  0999 V2000
   -0.0051   -0.1946    0.0000 O   0  0  0  0  0  0  0  0  0
    0.7795    0.0603    0.0000 C   0  0  0  0  0  0  0  0  0
    0.7795    0.8853    0.0000 C   0  0  0  0  0  0  0  0  0
   -0.0051    1.1402    0.0000 C   0  0  0  0  0  0  0  0  0
   -0.4901    0.4728    0.0000 C   0  0  0  0  0  0  0  0  0
   -1.3151    0.4728    0.0000 C   0  0  0  0  0  0  0  0  0
   -1.7276   -0.2417    0.0000 C   0  0  0  0  0  0  0  0  0
   -2.5526   -0.2417    0.0000 N   0  0  0  0  0  0  0  0  0
   -3.0375   -0.9091    0.0000 C   0  0  0  0  0  0  0  0  0
   -3.8221   -0.6542    0.0000 C   0  0  0  0  0  0  0  0  0
   -3.8221    0.1708    0.0000 C   0  0  0  0  0  0  0  0  0
   -3.0375    0.4258    0.0000 C   0  0  0  0  0  0  0  0  0
   -2.7825    1.2104    0.0000 C   0  0  0  0  0  0  0  0  0
    1.4940    1.2978    0.0000 C   0  0  0  0  0  0  0  0  0
    2.2084    0.8853    0.0000 C   0  0  0  0  0  0  0  0  0
    2.9229    1.2978    0.0000 N   0  0  0  0  0  0  0  0  0
    3.6374    0.8853    0.0000 C   0  0  0  0  0  0  0  0  0
    4.3518    1.2978    0.0000 C   0  0  0  0  0  0  0  0  0
    5.0663    0.8853    0.0000 C   0  0  0  0  0  0  0  0  0
    5.0663    0.0603    0.0000 C   0  0  0  0  0  0  0  0  0
    4.3518   -0.3522    0.0000 C   0  0  0  0  0  0  0  0  0
    3.6374    0.0603    0.0000 C   0  0  0  0  0  0  0  0  0
    5.7808   -0.3522    0.0000 C   0  0  0  0  0  0  0  0  0
    6.4953   -0.7647    0.0000 N   0  0  0  0  0  0  0  0  0
    2.2084    0.0603    0.0000 C   0  0  0  0  0  0  0  0  0
    1.4940   -0.3522    0.0000 C   0  0  0  0  0  0  0  0  0
  1  2  4  0  0  0  0
  1  5  4  0  0  0  0
  2  3  4  0  0  0  0
  2 26  4  0  0  0  0
  3  4  4  0  0  0  0
  3 14  4  0  0  0  0
  4  5  4  0  0  0  0
  5  6  1  0  0  0  0
  6  7  1  0  0  0  0
  7  8  1  0  0  0  0
  8  9  1  0  0  0  0
  8 12  1  0  0  0  0
  9 10  1  0  0  0  0
 10 11  1  0  0  0  0
 11 12  1  0  0  0  0
 12 13  1  0  0  0  0
 14 15  4  0  0  0  0
 15 16  1  0  0  0  0
 15 25  4  0  0  0  0
 16 17  1  0  0  0  0
 17 18  4  0  0  0  0
 17 22  4  0  0  0  0
 18 19  4  0  0  0  0
 19 20  4  0  0  0  0
 20 21  4  0  0  0  0
 20 23  1  0  0  0  0
 21 22  4  0  0  0  0
 23 24  3  0  0  0  0
 25 26  4  0  0  0  0
M  END
>  <Name_Molregno>
330110

>  <HISTAMINE H3>
9.57

$$$$
330121
  Marvin  02231216192D 0   1.00000     0.00000     0

 24 27  0  0  1  0  0  0  0  0999 V2000
    0.0275   -0.2075    0.0000 O   0  0  0  0  0  0  0  0  0
    0.8121    0.0474    0.0000 C   0  0  0  0  0  0  0  0  0
    0.8121    0.8724    0.0000 C   0  0  0  0  0  0  0  0  0
    0.0275    1.1274    0.0000 C   0  0  0  0  0  0  0  0  0
   -0.4574    0.4599    0.0000 C   0  0  0  0  0  0  0  0  0
   -1.2824    0.4599    0.0000 C   0  0  0  0  0  0  0  0  0
   -1.6949   -0.2546    0.0000 C   0  0  0  0  0  0  0  0  0
   -2.5199   -0.2546    0.0000 N   0  0  0  0  0  0  0  0  0
   -3.0049   -0.9220    0.0000 C   0  0  0  0  0  0  0  0  0
   -3.7895   -0.6671    0.0000 C   0  0  0  0  0  0  0  0  0
   -3.7895    0.1579    0.0000 C   0  0  0  0  0  0  0  0  0
   -3.0049    0.4129    0.0000 C   0  0  0  0  0  0  0  0  0
   -2.7499    1.1975    0.0000 C   0  0  0  0  0  0  0  0  0
    1.5266    1.2849    0.0000 C   0  0  0  0  0  0  0  0  0
    2.2410    0.8724    0.0000 C   0  0  0  0  0  0  0  0  0
    2.9555    1.2849    0.0000 N   0  0  0  0  0  0  0  0  0
    3.6700    0.8724    0.0000 C   0  0  0  0  0  0  0  0  0
    4.3845    1.2849    0.0000 N   0  0  0  0  0  0  0  0  0
    5.0989    0.8724    0.0000 C   0  0  0  0  0  0  0  0  0
    5.0989    0.0474    0.0000 C   0  0  0  0  0  0  0  0  0
    4.3845   -0.3651    0.0000 C   0  0  0  0  0  0  0  0  0
    3.6700    0.0474    0.0000 N   0  0  0  0  0  0  0  0  0
    2.2410    0.0474    0.0000 C   0  0  0  0  0  0  0  0  0
    1.5266   -0.3651    0.0000 C   0  0  0  0  0  0  0  0  0
  1  2  4  0  0  0  0
  1  5  4  0  0  0  0
  2  3  4  0  0  0  0
  2 24  4  0  0  0  0
  3  4  4  0  0  0  0
  3 14  4  0  0  0  0
  4  5  4  0  0  0  0
  5  6  1  0  0  0  0
  6  7  1  0  0  0  0
  7  8  1  0  0  0  0
  8  9  1  0  0  0  0
  8 12  1  0  0  0  0
  9 10  1  0  0  0  0
 10 11  1  0  0  0  0
 11 12  1  0  0  0  0
 12 13  1  0  0  0  0
 14 15  4  0  0  0  0
 15 16  1  0  0  0  0
 15 23  4  0  0  0  0
 16 17  1  0  0  0  0
 17 18  4  0  0  0  0
 17 22  4  0  0  0  0
 18 19  4  0  0  0  0
 19 20  4  0  0  0  0
 20 21  4  0  0  0  0
 21 22  4  0  0  0  0
 23 24  4  0  0  0  0
M  END
>  <Name_Molregno>
330121

>  <HISTAMINE H3>
9.51

$$$$
330214
  Marvin  02231216192D 0   1.00000     0.00000     0

 27 30  0  0  1  0  0  0  0  0999 V2000
    0.1053   -0.1030    0.0000 O   0  0  0  0  0  0  0  0  0
    0.8900    0.1519    0.0000 C   0  0  0  0  0  0  0  0  0
    0.8900    0.9769    0.0000 C   0  0  0  0  0  0  0  0  0
    0.1053    1.2318    0.0000 C   0  0  0  0  0  0  0  0  0
   -0.3796    0.5644    0.0000 C   0  0  0  0  0  0  0  0  0
   -1.2046    0.5644    0.0000 C   0  0  0  0  0  0  0  0  0
   -1.6171   -0.1501    0.0000 C   0  0  0  0  0  0  0  0  0
   -2.4421   -0.1501    0.0000 N   0  0  0  0  0  0  0  0  0
   -2.9270   -0.8175    0.0000 C   0  0  0  0  0  0  0  0  0
   -3.7116   -0.5626    0.0000 C   0  0  0  0  0  0  0  0  0
   -3.7116    0.2624    0.0000 C   0  0  0  0  0  0  0  0  0
   -2.9270    0.5174    0.0000 C   0  0  0  0  0  0  0  0  0
   -2.6721    1.3020    0.0000 C   0  0  0  0  0  0  0  0  0
    1.6044    1.3894    0.0000 C   0  0  0  0  0  0  0  0  0
    2.3189    0.9769    0.0000 C   0  0  0  0  0  0  0  0  0
    3.0334    1.3894    0.0000 N   0  0  0  0  0  0  0  0  0
    3.7478    0.9769    0.0000 C   0  0  0  0  0  0  0  0  0
    4.4623    1.3894    0.0000 N   0  0  0  0  0  0  0  0  0
    5.1768    0.9769    0.0000 C   0  0  0  0  0  0  0  0  0
    5.1768    0.1519    0.0000 C   0  0  0  0  0  0  0  0  0
    4.4623   -0.2606    0.0000 C   0  0  0  0  0  0  0  0  0
    3.7478    0.1519    0.0000 C   0  0  0  0  0  0  0  0  0
    3.0334   -0.2606    0.0000 C   0  0  0  0  0  0  0  0  0
    2.3189   -0.6731    0.0000 N   0  0  0  0  0  0  0  0  0
    5.8913    1.3894    0.0000 C   0  0  0  0  0  0  0  0  0
    2.3189    0.1519    0.0000 C   0  0  0  0  0  0  0  0  0
    1.6044   -0.2606    0.0000 C   0  0  0  0  0  0  0  0  0
  1  2  4  0  0  0  0
  1  5  4  0  0  0  0
  2  3  4  0  0  0  0
  2 27  4  0  0  0  0
  3  4  4  0  0  0  0
  3 14  4  0  0  0  0
  4  5  4  0  0  0  0
  5  6  1  0  0  0  0
  6  7  1  0  0  0  0
  7  8  1  0  0  0  0
  8  9  1  0  0  0  0
  8 12  1  0  0  0  0
  9 10  1  0  0  0  0
 10 11  1  0  0  0  0
 11 12  1  0  0  0  0
 12 13  1  0  0  0  0
 14 15  4  0  0  0  0
 15 16  1  0  0  0  0
 15 26  4  0  0  0  0
 16 17  1  0  0  0  0
 17 18  4  0  0  0  0
 17 22  4  0  0  0  0
 18 19  4  0  0  0  0
 19 20  4  0  0  0  0
 19 25  1  0  0  0  0
 20 21  4  0  0  0  0
 21 22  4  0  0  0  0
 22 23  1  0  0  0  0
 23 24  3  0  0  0  0
 26 27  4  0  0  0  0
M  END
>  <Name_Molregno>
330214

>  <HISTAMINE H3>
8.53

$$$$
330250
  Marvin  02231216192D 0   1.00000     0.00000     0

 28 31  0  0  1  0  0  0  0  0999 V2000
    1.1231    0.5250    0.0000 F   0  0  0  0  0  0  0  0  0
    0.4086    0.1125    0.0000 C   0  0  0  0  0  0  0  0  0
   -0.0039    0.8269    0.0000 F   0  0  0  0  0  0  0  0  0
    0.8211   -0.6020    0.0000 F   0  0  0  0  0  0  0  0  0
   -0.3058   -0.3000    0.0000 C   0  0  0  0  0  0  0  0  0
   -0.3058   -1.1250    0.0000 C   0  0  0  0  0  0  0  0  0
   -1.0203   -1.5375    0.0000 C   0  0  0  0  0  0  0  0  0
   -1.7348   -1.1250    0.0000 C   0  0  0  0  0  0  0  0  0
   -1.7348   -0.3000    0.0000 N   0  0  0  0  0  0  0  0  0
   -1.0203    0.1125    0.0000 C   0  0  0  0  0  0  0  0  0
   -2.4493   -1.5375    0.0000 N   0  0  0  0  0  0  0  0  0
   -3.1637   -1.1250    0.0000 C   0  0  0  0  0  0  0  0  0
   -3.8782   -1.5375    0.0000 C   0  0  0  0  0  0  0  0  0
   -4.5927   -1.1250    0.0000 C   0  0  0  0  0  0  0  0  0
   -5.3773   -1.3800    0.0000 C   0  0  0  0  0  0  0  0  0
   -5.8622   -0.7125    0.0000 C   0  0  0  0  0  0  0  0  0
   -5.3773   -0.0451    0.0000 O   0  0  0  0  0  0  0  0  0
   -4.5927   -0.3000    0.0000 C   0  0  0  0  0  0  0  0  0
   -3.8782    0.1125    0.0000 C   0  0  0  0  0  0  0  0  0
   -3.1637   -0.3000    0.0000 C   0  0  0  0  0  0  0  0  0
   -6.6872   -0.7125    0.0000 C   0  0  0  0  0  0  0  0  0
   -7.0997   -1.4270    0.0000 C   0  0  0  0  0  0  0  0  0
   -7.9247   -1.4270    0.0000 N   0  0  0  0  0  0  0  0  0
   -8.4096   -2.0944    0.0000 C   0  0  0  0  0  0  0  0  0
   -9.1943   -1.8395    0.0000 C   0  0  0  0  0  0  0  0  0
   -9.1943   -1.0145    0.0000 C   0  0  0  0  0  0  0  0  0
   -8.4096   -0.7596    0.0000 C   0  0  0  0  0  0  0  0  0
   -8.1547    0.0251    0.0000 C   0  0  0  0  0  0  0  0  0
  1  2  1  0  0  0  0
  2  3  1  0  0  0  0
  2  4  1  0  0  0  0
  2  5  1  0  0  0  0
  5  6  4  0  0  0  0
  5 10  4  0  0  0  0
  6  7  4  0  0  0  0
  7  8  4  0  0  0  0
  8  9  4  0  0  0  0
  8 11  1  0  0  0  0
  9 10  4  0  0  0  0
 11 12  1  0  0  0  0
 12 13  4  0  0  0  0
 12 20  4  0  0  0  0
 13 14  4  0  0  0  0
 14 15  4  0  0  0  0
 14 18  4  0  0  0  0
 15 16  4  0  0  0  0
 16 17  4  0  0  0  0
 16 21  1  0  0  0  0
 17 18  4  0  0  0  0
 18 19  4  0  0  0  0
 19 20  4  0  0  0  0
 21 22  1  0  0  0  0
 22 23  1  0  0  0  0
 23 24  1  0  0  0  0
 23 27  1  0  0  0  0
 24 25  1  0  0  0  0
 25 26  1  0  0  0  0
 26 27  1  0  0  0  0
 27 28  1  0  0  0  0
M  END
>  <Name_Molregno>
330250

>  <HISTAMINE H3>
9.27

$$$$
335094
  Marvin  02231216192D 0   1.00000     0.00000     0

 24 26  0  0  0  0  0  0  0  0999 V2000
    1.5149    2.8274    0.0000 Cl  0  0  0  0  0  0  0  0  0
    1.5149    2.0024    0.0000 C   0  0  0  0  0  0  0  0  0
    2.2294    1.5899    0.0000 C   0  0  0  0  0  0  0  0  0
    2.2294    0.7649    0.0000 C   0  0  0  0  0  0  0  0  0
    2.9438    0.3524    0.0000 N   0  0  0  0  0  0  0  0  0
    3.6583    0.7649    0.0000 C   0  0  0  0  0  0  0  0  0
    3.6583    1.5899    0.0000 O   0  0  0  0  0  0  0  0  0
    4.3728    0.3524    0.0000 C   0  0  0  0  0  0  0  0  0
    5.0872    0.7649    0.0000 C   0  0  0  0  0  0  0  0  0
    5.8017    0.3524    0.0000 N   0  0  0  0  0  0  0  0  0
    6.5162    0.7649    0.0000 C   0  0  0  0  0  0  0  0  0
    7.2307    0.3524    0.0000 C   0  0  0  0  0  0  0  0  0
    7.2307   -0.4726    0.0000 C   0  0  0  0  0  0  0  0  0
    6.5162   -0.8851    0.0000 C   0  0  0  0  0  0  0  0  0
    5.8017   -0.4726    0.0000 C   0  0  0  0  0  0  0  0  0
    7.9451   -0.8851    0.0000 C   0  0  0  0  0  0  0  0  0
    7.9451   -1.7101    0.0000 C   0  0  0  0  0  0  0  0  0
    8.6126   -2.1950    0.0000 N   0  0  0  0  0  0  0  0  0
    8.3576   -2.9796    0.0000 C   0  0  0  0  0  0  0  0  0
    7.5326   -2.9796    0.0000 N   0  0  0  0  0  0  0  0  0
    7.2777   -2.1950    0.0000 C   0  0  0  0  0  0  0  0  0
    1.5149    0.3524    0.0000 C   0  0  0  0  0  0  0  0  0
    0.8004    0.7649    0.0000 C   0  0  0  0  0  0  0  0  0
    0.8004    1.5899    0.0000 C   0  0  0  0  0  0  0  0  0
  1  2  1  0  0  0  0
  2  3  4  0  0  0  0
  2 24  4  0  0  0  0
  3  4  4  0  0  0  0
  4  5  1  0  0  0  0
  4 22  4  0  0  0  0
  5  6  1  0  0  0  0
  6  7  2  0  0  0  0
  6  8  1  0  0  0  0
  8  9  1  0  0  0  0
  9 10  1  0  0  0  0
 10 11  1  0  0  0  0
 10 15  1  0  0  0  0
 11 12  1  0  0  0  0
 12 13  1  0  0  0  0
 13 14  1  0  0  0  0
 13 16  1  0  0  0  0
 14 15  1  0  0  0  0
 16 17  1  0  0  0  0
 17 18  4  0  0  0  0
 17 21  4  0  0  0  0
 18 19  4  0  0  0  0
 19 20  4  0  0  0  0
 20 21  4  0  0  0  0
 22 23  4  0  0  0  0
 23 24  4  0  0  0  0
M  STY  1   1 DAT
M  SAL   1  1  20
M  SDT   1 MRV_IMPLICIT_H                                        
M  SDD   1     0.0000    0.0000    DR    ALL  0       0  
M  SED   1 IMPL_H1
M  END
>  <Name_Molregno>
335094

>  <HISTAMINE H3>
9.4

$$$$
335099
  Marvin  02231216192D 0   1.00000     0.00000     0

 24 26  0  0  0  0  0  0  0  0999 V2000
    1.5149    2.8274    0.0000 F   0  0  0  0  0  0  0  0  0
    1.5149    2.0024    0.0000 C   0  0  0  0  0  0  0  0  0
    2.2294    1.5899    0.0000 C   0  0  0  0  0  0  0  0  0
    2.2294    0.7649    0.0000 C   0  0  0  0  0  0  0  0  0
    2.9438    0.3524    0.0000 N   0  0  0  0  0  0  0  0  0
    3.6583    0.7649    0.0000 C   0  0  0  0  0  0  0  0  0
    3.6583    1.5899    0.0000 O   0  0  0  0  0  0  0  0  0
    4.3728    0.3524    0.0000 C   0  0  0  0  0  0  0  0  0
    5.0872    0.7649    0.0000 C   0  0  0  0  0  0  0  0  0
    5.8017    0.3524    0.0000 N   0  0  0  0  0  0  0  0  0
    6.5162    0.7649    0.0000 C   0  0  0  0  0  0  0  0  0
    7.2307    0.3524    0.0000 C   0  0  0  0  0  0  0  0  0
    7.2307   -0.4726    0.0000 C   0  0  0  0  0  0  0  0  0
    6.5162   -0.8851    0.0000 C   0  0  0  0  0  0  0  0  0
    5.8017   -0.4726    0.0000 C   0  0  0  0  0  0  0  0  0
    7.9451   -0.8851    0.0000 C   0  0  0  0  0  0  0  0  0
    7.9451   -1.7101    0.0000 C   0  0  0  0  0  0  0  0  0
    8.6126   -2.1950    0.0000 N   0  0  0  0  0  0  0  0  0
    8.3576   -2.9796    0.0000 C   0  0  0  0  0  0  0  0  0
    7.5326   -2.9796    0.0000 N   0  0  0  0  0  0  0  0  0
    7.2777   -2.1950    0.0000 C   0  0  0  0  0  0  0  0  0
    1.5149    0.3524    0.0000 C   0  0  0  0  0  0  0  0  0
    0.8004    0.7649    0.0000 C   0  0  0  0  0  0  0  0  0
    0.8004    1.5899    0.0000 C   0  0  0  0  0  0  0  0  0
  1  2  1  0  0  0  0
  2  3  4  0  0  0  0
  2 24  4  0  0  0  0
  3  4  4  0  0  0  0
  4  5  1  0  0  0  0
  4 22  4  0  0  0  0
  5  6  1  0  0  0  0
  6  7  2  0  0  0  0
  6  8  1  0  0  0  0
  8  9  1  0  0  0  0
  9 10  1  0  0  0  0
 10 11  1  0  0  0  0
 10 15  1  0  0  0  0
 11 12  1  0  0  0  0
 12 13  1  0  0  0  0
 13 14  1  0  0  0  0
 13 16  1  0  0  0  0
 14 15  1  0  0  0  0
 16 17  1  0  0  0  0
 17 18  4  0  0  0  0
 17 21  4  0  0  0  0
 18 19  4  0  0  0  0
 19 20  4  0  0  0  0
 20 21  4  0  0  0  0
 22 23  4  0  0  0  0
 23 24  4  0  0  0  0
M  STY  1   1 DAT
M  SAL   1  1  20
M  SDT   1 MRV_IMPLICIT_H                                        
M  SDD   1     0.0000    0.0000    DR    ALL  0       0  
M  SED   1 IMPL_H1
M  END
>  <Name_Molregno>
335099

>  <HISTAMINE H3>
8.72

$$$$
335154
  Marvin  02231216192D 0   1.00000     0.00000     0

 24 26  0  0  0  0  0  0  0  0999 V2000
    0.3409    1.4619    0.0000 Cl  0  0  0  0  0  0  0  0  0
    1.0554    1.0494    0.0000 C   0  0  0  0  0  0  0  0  0
    1.7698    1.4619    0.0000 C   0  0  0  0  0  0  0  0  0
    2.4843    1.0494    0.0000 C   0  0  0  0  0  0  0  0  0
    2.4843    0.2244    0.0000 C   0  0  0  0  0  0  0  0  0
    3.1988   -0.1881    0.0000 N   0  0  0  0  0  0  0  0  0
    3.9132    0.2244    0.0000 C   0  0  0  0  0  0  0  0  0
    3.9132    1.0494    0.0000 O   0  0  0  0  0  0  0  0  0
    4.6277   -0.1881    0.0000 C   0  0  0  0  0  0  0  0  0
    5.3422    0.2244    0.0000 C   0  0  0  0  0  0  0  0  0
    6.0567   -0.1881    0.0000 N   0  0  0  0  0  0  0  0  0
    6.7711    0.2244    0.0000 C   0  0  0  0  0  0  0  0  0
    7.4856   -0.1881    0.0000 C   0  0  0  0  0  0  0  0  0
    7.4856   -1.0131    0.0000 C   0  0  0  0  0  0  0  0  0
    6.7711   -1.4256    0.0000 C   0  0  0  0  0  0  0  0  0
    6.0567   -1.0131    0.0000 C   0  0  0  0  0  0  0  0  0
    8.2001   -1.4256    0.0000 C   0  0  0  0  0  0  0  0  0
    8.2001   -2.2506    0.0000 C   0  0  0  0  0  0  0  0  0
    8.8675   -2.7355    0.0000 N   0  0  0  0  0  0  0  0  0
    8.6126   -3.5201    0.0000 C   0  0  0  0  0  0  0  0  0
    7.7876   -3.5201    0.0000 N   0  0  0  0  0  0  0  0  0
    7.5326   -2.7355    0.0000 C   0  0  0  0  0  0  0  0  0
    1.7698   -0.1881    0.0000 C   0  0  0  0  0  0  0  0  0
    1.0554    0.2244    0.0000 C   0  0  0  0  0  0  0  0  0
  1  2  1  0  0  0  0
  2  3  4  0  0  0  0
  2 24  4  0  0  0  0
  3  4  4  0  0  0  0
  4  5  4  0  0  0  0
  5  6  1  0  0  0  0
  5 23  4  0  0  0  0
  6  7  1  0  0  0  0
  7  8  2  0  0  0  0
  7  9  1  0  0  0  0
  9 10  1  0  0  0  0
 10 11  1  0  0  0  0
 11 12  1  0  0  0  0
 11 16  1  0  0  0  0
 12 13  1  0  0  0  0
 13 14  1  0  0  0  0
 14 15  1  0  0  0  0
 14 17  1  0  0  0  0
 15 16  1  0  0  0  0
 17 18  1  0  0  0  0
 18 19  4  0  0  0  0
 18 22  4  0  0  0  0
 19 20  4  0  0  0  0
 20 21  4  0  0  0  0
 21 22  4  0  0  0  0
 23 24  4  0  0  0  0
M  STY  1   1 DAT
M  SAL   1  1  21
M  SDT   1 MRV_IMPLICIT_H                                        
M  SDD   1     0.0000    0.0000    DR    ALL  0       0  
M  SED   1 IMPL_H1
M  END
>  <Name_Molregno>
335154

>  <HISTAMINE H3>
8.77

$$$$
335202
  Marvin  02231216192D 0   1.00000     0.00000     0

 31 34  0  0  0  0  0  0  0  0999 V2000
   -5.3316    5.4643    0.0000 O   0  0  0  0  0  0  0  0  0
   -6.0461    5.8768    0.0000 C   0  0  0  0  0  0  0  0  0
   -4.6172    5.8768    0.0000 C   0  0  0  0  0  0  0  0  0
   -3.9027    5.4643    0.0000 C   0  0  0  0  0  0  0  0  0
   -3.1882    5.8768    0.0000 C   0  0  0  0  0  0  0  0  0
   -3.1882    6.7018    0.0000 C   0  0  0  0  0  0  0  0  0
   -3.9027    7.1143    0.0000 C   0  0  0  0  0  0  0  0  0
   -4.6172    6.7018    0.0000 C   0  0  0  0  0  0  0  0  0
   -2.4737    7.1143    0.0000 C   0  0  0  0  0  0  0  0  0
   -1.7593    6.7018    0.0000 C   0  0  0  0  0  0  0  0  0
   -1.7593    5.8768    0.0000 C   0  0  0  0  0  0  0  0  0
   -2.4737    5.4643    0.0000 C   0  0  0  0  0  0  0  0  0
   -2.4737    4.6393    0.0000 N   0  0  0  0  0  0  0  0  0
   -1.7593    4.2268    0.0000 C   0  0  0  0  0  0  0  0  0
   -1.7593    3.4018    0.0000 C   0  0  0  0  0  0  0  0  0
   -2.4737    2.9893    0.0000 N   0  0  0  0  0  0  0  0  0
   -3.1882    3.4018    0.0000 C   0  0  0  0  0  0  0  0  0
   -3.1882    4.2268    0.0000 C   0  0  0  0  0  0  0  0  0
   -2.4737    2.1643    0.0000 C   0  0  0  0  0  0  0  0  0
   -1.7593    1.7518    0.0000 C   0  0  0  0  0  0  0  0  0
   -1.7593    0.9268    0.0000 C   0  0  0  0  0  0  0  0  0
   -1.0448    0.5143    0.0000 C   0  0  0  0  0  0  0  0  0
   -1.0448   -0.3107    0.0000 N   0  0  0  0  0  0  0  0  0
   -0.3303   -0.7232    0.0000 N   0  0  0  0  0  0  0  0  0
   -0.3303   -1.5482    0.0000 C   0  0  0  0  0  0  0  0  0
   -1.0448   -1.9607    0.0000 C   0  0  0  0  0  0  0  0  0
   -1.0448   -2.7857    0.0000 O   0  0  0  0  0  0  0  0  0
   -1.7593   -1.5482    0.0000 N   0  0  0  0  0  0  0  0  0
   -2.4737   -1.9607    0.0000 C   0  0  0  0  0  0  0  0  0
   -1.7593   -0.7232    0.0000 C   0  0  0  0  0  0  0  0  0
   -2.4737   -0.3107    0.0000 O   0  0  0  0  0  0  0  0  0
  1  2  1  0  0  0  0
  1  3  1  0  0  0  0
  3  4  4  0  0  0  0
  3  8  4  0  0  0  0
  4  5  4  0  0  0  0
  5  6  4  0  0  0  0
  5 12  4  0  0  0  0
  6  7  4  0  0  0  0
  6  9  4  0  0  0  0
  7  8  4  0  0  0  0
  9 10  4  0  0  0  0
 10 11  4  0  0  0  0
 11 12  4  0  0  0  0
 12 13  1  0  0  0  0
 13 14  1  0  0  0  0
 13 18  1  0  0  0  0
 14 15  1  0  0  0  0
 15 16  1  0  0  0  0
 16 17  1  0  0  0  0
 16 19  1  0  0  0  0
 17 18  1  0  0  0  0
 19 20  1  0  0  0  0
 20 21  1  0  0  0  0
 21 22  1  0  0  0  0
 22 23  1  0  0  0  0
 23 24  1  0  0  0  0
 23 30  1  0  0  0  0
 24 25  2  0  0  0  0
 25 26  1  0  0  0  0
 26 27  2  0  0  0  0
 26 28  1  0  0  0  0
 28 29  1  0  0  0  0
 28 30  1  0  0  0  0
 30 31  2  0  0  0  0
M  END
>  <Name_Molregno>
335202

>  <5-HT1A>
8.87

>  <5-HT2A>
7.38

>  <5-HT2C>
7

>  <5-HT3>
5

>  <5-HT5>
6.64

>  <5-HT6>
6.92

>  <5-HT7>
8.04

>  <Alpha-2A>
5.99

>  <Alpha-2B>
6.5

>  <Alpha-2C>
7.63

>  <Beta-1>
6.32

>  <Beta-2>
7.22

>  <DOPAMINE D1>
5.13

>  <DOPAMINE D2>
7.66

>  <DOPAMINE D3>
7.2

>  <DOPAMINE D4>
8.07

>  <DOPAMINE D5>
5

>  <Dopamine transporter>
6.39

>  <HISTAMINE H1>
6.82

>  <HISTAMINE H2>
6.52

>  <HISTAMINE H3>
5

>  <HISTAMINE H4>
5

>  <Norepinephrine transporter>
5.16

>  <Serotonin transporter>
5.21

$$$$
339003
  Marvin  02231216192D 0   1.00000     0.00000     0

 25 27  0  0  0  0  0  0  0  0999 V2000
   -0.4225   -2.4470    0.0000 Br  0  0  0  0  0  0  0  0  0
   -0.4225   -1.6220    0.0000 C   0  0  0  0  0  0  0  0  0
   -1.1370   -1.2095    0.0000 C   0  0  0  0  0  0  0  0  0
   -1.1370   -0.3845    0.0000 C   0  0  0  0  0  0  0  0  0
   -0.4225    0.0280    0.0000 C   0  0  0  0  0  0  0  0  0
    0.2919   -0.3845    0.0000 C   0  0  0  0  0  0  0  0  0
    1.0064    0.0280    0.0000 Br  0  0  0  0  0  0  0  0  0
    0.2919   -1.2095    0.0000 C   0  0  0  0  0  0  0  0  0
    1.0064   -1.6220    0.0000 O   0  0  0  0  0  0  0  0  0
    1.7209   -1.2095    0.0000 C   0  0  0  0  0  0  0  0  0
    2.4353   -1.6220    0.0000 C   0  0  0  0  0  0  0  0  0
    3.1498   -1.2095    0.0000 C   0  0  0  0  0  0  0  0  0
    3.8643   -1.6220    0.0000 N   0  0  0  0  0  0  0  0  0
    4.5788   -1.2095    0.0000 C   0  0  0  0  0  0  0  0  0
    5.2932   -1.6220    0.0000 C   0  0  0  0  0  0  0  0  0
    5.2932   -2.4470    0.0000 C   0  0  0  0  0  0  0  0  0
    4.5788   -2.8595    0.0000 C   0  0  0  0  0  0  0  0  0
    3.8643   -2.4470    0.0000 C   0  0  0  0  0  0  0  0  0
   -1.8515    0.0280    0.0000 C   0  0  0  0  0  0  0  0  0
   -2.5660   -0.3845    0.0000 N   0  0  0  0  0  0  0  0  0
   -2.5660   -1.2095    0.0000 C   0  0  0  0  0  0  0  0  0
   -3.2804   -1.6220    0.0000 C   0  0  0  0  0  0  0  0  0
   -3.9949   -1.2095    0.0000 C   0  0  0  0  0  0  0  0  0
   -3.9949   -0.3845    0.0000 C   0  0  0  0  0  0  0  0  0
   -3.2804    0.0280    0.0000 C   0  0  0  0  0  0  0  0  0
  1  2  1  0  0  0  0
  2  3  4  0  0  0  0
  2  8  4  0  0  0  0
  3  4  4  0  0  0  0
  4  5  4  0  0  0  0
  4 19  1  0  0  0  0
  5  6  4  0  0  0  0
  6  7  1  0  0  0  0
  6  8  4  0  0  0  0
  8  9  1  0  0  0  0
  9 10  1  0  0  0  0
 10 11  1  0  0  0  0
 11 12  1  0  0  0  0
 12 13  1  0  0  0  0
 13 14  1  0  0  0  0
 13 18  1  0  0  0  0
 14 15  1  0  0  0  0
 15 16  1  0  0  0  0
 16 17  1  0  0  0  0
 17 18  1  0  0  0  0
 19 20  1  0  0  0  0
 20 21  1  0  0  0  0
 20 25  1  0  0  0  0
 21 22  1  0  0  0  0
 22 23  1  0  0  0  0
 23 24  1  0  0  0  0
 24 25  1  0  0  0  0
M  END
>  <Name_Molregno>
339003

>  <HISTAMINE H3>
8.1

$$$$
339073
  Marvin  02231216192D 0   1.00000     0.00000     0

 20 20  0  0  0  0  0  0  0  0999 V2000
   -1.1909   -3.0566    0.0000 Br  0  0  0  0  0  0  0  0  0
   -1.1909   -2.2316    0.0000 C   0  0  0  0  0  0  0  0  0
   -1.9054   -1.8191    0.0000 C   0  0  0  0  0  0  0  0  0
   -1.9054   -0.9941    0.0000 C   0  0  0  0  0  0  0  0  0
   -1.1909   -0.5816    0.0000 C   0  0  0  0  0  0  0  0  0
   -0.4765   -0.9941    0.0000 C   0  0  0  0  0  0  0  0  0
    0.2380   -0.5816    0.0000 Br  0  0  0  0  0  0  0  0  0
   -0.4765   -1.8191    0.0000 C   0  0  0  0  0  0  0  0  0
    0.2380   -2.2316    0.0000 O   0  0  0  0  0  0  0  0  0
    0.9525   -1.8191    0.0000 C   0  0  0  0  0  0  0  0  0
    1.6669   -2.2316    0.0000 C   0  0  0  0  0  0  0  0  0
    2.3814   -1.8191    0.0000 C   0  0  0  0  0  0  0  0  0
    3.0959   -2.2316    0.0000 N   0  0  0  0  0  0  0  0  0
    3.8104   -1.8191    0.0000 C   0  0  0  0  0  0  0  0  0
    3.0959   -3.0566    0.0000 C   0  0  0  0  0  0  0  0  0
   -2.6199   -0.5816    0.0000 C   0  0  0  0  0  0  0  0  0
   -3.3343   -0.9941    0.0000 C   0  0  0  0  0  0  0  0  0
   -4.0488   -0.5816    0.0000 N   0  0  0  0  0  0  0  0  0
   -4.7633   -0.9941    0.0000 C   0  0  0  0  0  0  0  0  0
   -4.0488    0.2434    0.0000 C   0  0  0  0  0  0  0  0  0
  1  2  1  0  0  0  0
  2  3  4  0  0  0  0
  2  8  4  0  0  0  0
  3  4  4  0  0  0  0
  4  5  4  0  0  0  0
  4 16  1  0  0  0  0
  5  6  4  0  0  0  0
  6  7  1  0  0  0  0
  6  8  4  0  0  0  0
  8  9  1  0  0  0  0
  9 10  1  0  0  0  0
 10 11  1  0  0  0  0
 11 12  1  0  0  0  0
 12 13  1  0  0  0  0
 13 14  1  0  0  0  0
 13 15  1  0  0  0  0
 16 17  1  0  0  0  0
 17 18  1  0  0  0  0
 18 19  1  0  0  0  0
 18 20  1  0  0  0  0
M  END
>  <Name_Molregno>
339073

>  <HISTAMINE H3>
7.52

$$$$
339074
  Marvin  02231216192D 0   1.00000     0.00000     0

 19 19  0  0  0  0  0  0  0  0999 V2000
   -1.8662   -3.0410    0.0000 Br  0  0  0  0  0  0  0  0  0
   -1.8662   -2.2160    0.0000 C   0  0  0  0  0  0  0  0  0
   -2.5807   -1.8035    0.0000 C   0  0  0  0  0  0  0  0  0
   -2.5807   -0.9785    0.0000 C   0  0  0  0  0  0  0  0  0
   -1.8662   -0.5660    0.0000 C   0  0  0  0  0  0  0  0  0
   -1.1517   -0.9785    0.0000 C   0  0  0  0  0  0  0  0  0
   -0.4372   -0.5660    0.0000 Br  0  0  0  0  0  0  0  0  0
   -1.1517   -1.8035    0.0000 C   0  0  0  0  0  0  0  0  0
   -0.4372   -2.2160    0.0000 O   0  0  0  0  0  0  0  0  0
    0.2772   -1.8035    0.0000 C   0  0  0  0  0  0  0  0  0
    0.9917   -2.2160    0.0000 C   0  0  0  0  0  0  0  0  0
    1.7062   -1.8035    0.0000 C   0  0  0  0  0  0  0  0  0
    2.4206   -2.2160    0.0000 N   0  0  0  0  0  0  0  0  0
    3.1351   -1.8035    0.0000 C   0  0  0  0  0  0  0  0  0
    2.4206   -3.0410    0.0000 C   0  0  0  0  0  0  0  0  0
   -3.2951   -0.5660    0.0000 C   0  0  0  0  0  0  0  0  0
   -3.2951    0.2590    0.0000 N   0  0  0  0  0  0  0  0  0
   -4.0096    0.6715    0.0000 C   0  0  0  0  0  0  0  0  0
   -2.5807    0.6715    0.0000 C   0  0  0  0  0  0  0  0  0
  1  2  1  0  0  0  0
  2  3  4  0  0  0  0
  2  8  4  0  0  0  0
  3  4  4  0  0  0  0
  4  5  4  0  0  0  0
  4 16  1  0  0  0  0
  5  6  4  0  0  0  0
  6  7  1  0  0  0  0
  6  8  4  0  0  0  0
  8  9  1  0  0  0  0
  9 10  1  0  0  0  0
 10 11  1  0  0  0  0
 11 12  1  0  0  0  0
 12 13  1  0  0  0  0
 13 14  1  0  0  0  0
 13 15  1  0  0  0  0
 16 17  1  0  0  0  0
 17 18  1  0  0  0  0
 17 19  1  0  0  0  0
M  END
>  <Name_Molregno>
339074

>  <HISTAMINE H3>
7.44

$$$$
339075
  Marvin  02231216192D 0   1.00000     0.00000     0

 17 17  0  0  0  0  0  0  0  0999 V2000
   -0.1584   -0.3109    0.0000 O   0  0  0  0  0  0  0  0  0
    0.5561    0.1016    0.0000 C   0  0  0  0  0  0  0  0  0
    1.2706   -0.3109    0.0000 C   0  0  0  0  0  0  0  0  0
    1.9850    0.1016    0.0000 C   0  0  0  0  0  0  0  0  0
    2.6995   -0.3109    0.0000 N   0  0  0  0  0  0  0  0  0
    3.4140    0.1016    0.0000 C   0  0  0  0  0  0  0  0  0
    2.6995   -1.1359    0.0000 C   0  0  0  0  0  0  0  0  0
   -0.8728    0.1016    0.0000 C   0  0  0  0  0  0  0  0  0
   -1.5873   -0.3109    0.0000 C   0  0  0  0  0  0  0  0  0
   -2.3018    0.1016    0.0000 C   0  0  0  0  0  0  0  0  0
   -2.3018    0.9266    0.0000 C   0  0  0  0  0  0  0  0  0
   -1.5873    1.3391    0.0000 C   0  0  0  0  0  0  0  0  0
   -0.8728    0.9266    0.0000 C   0  0  0  0  0  0  0  0  0
   -3.0163    1.3391    0.0000 C   0  0  0  0  0  0  0  0  0
   -3.0163    2.1641    0.0000 N   0  0  0  0  0  0  0  0  0
   -3.7307    2.5766    0.0000 C   0  0  0  0  0  0  0  0  0
   -2.3018    2.5766    0.0000 C   0  0  0  0  0  0  0  0  0
  1  2  1  0  0  0  0
  1  8  1  0  0  0  0
  2  3  1  0  0  0  0
  3  4  1  0  0  0  0
  4  5  1  0  0  0  0
  5  6  1  0  0  0  0
  5  7  1  0  0  0  0
  8  9  4  0  0  0  0
  8 13  4  0  0  0  0
  9 10  4  0  0  0  0
 10 11  4  0  0  0  0
 11 12  4  0  0  0  0
 11 14  1  0  0  0  0
 12 13  4  0  0  0  0
 14 15  1  0  0  0  0
 15 16  1  0  0  0  0
 15 17  1  0  0  0  0
M  END
>  <Name_Molregno>
339075

>  <HISTAMINE H3>
7.74

$$$$
339086
  Marvin  02231216192D 0   1.00000     0.00000     0

 20 21  0  0  0  0  0  0  0  0999 V2000
    0.0332   -0.0106    0.0000 O   0  0  0  0  0  0  0  0  0
    0.7476    0.4019    0.0000 C   0  0  0  0  0  0  0  0  0
    1.4621   -0.0106    0.0000 C   0  0  0  0  0  0  0  0  0
    2.1766    0.4019    0.0000 C   0  0  0  0  0  0  0  0  0
    2.8911   -0.0106    0.0000 N   0  0  0  0  0  0  0  0  0
    3.6055    0.4019    0.0000 C   0  0  0  0  0  0  0  0  0
    2.8911   -0.8356    0.0000 C   0  0  0  0  0  0  0  0  0
   -0.6813    0.4019    0.0000 C   0  0  0  0  0  0  0  0  0
   -1.3958   -0.0106    0.0000 C   0  0  0  0  0  0  0  0  0
   -2.1102    0.4019    0.0000 C   0  0  0  0  0  0  0  0  0
   -2.1102    1.2269    0.0000 C   0  0  0  0  0  0  0  0  0
   -1.3958    1.6394    0.0000 C   0  0  0  0  0  0  0  0  0
   -0.6813    1.2269    0.0000 C   0  0  0  0  0  0  0  0  0
   -2.8247    1.6394    0.0000 C   0  0  0  0  0  0  0  0  0
   -3.5392    1.2269    0.0000 N   0  0  0  0  0  0  0  0  0
   -3.5392    0.4019    0.0000 C   0  0  0  0  0  0  0  0  0
   -4.2537   -0.0106    0.0000 C   0  0  0  0  0  0  0  0  0
   -4.9681    0.4019    0.0000 C   0  0  0  0  0  0  0  0  0
   -4.9681    1.2269    0.0000 C   0  0  0  0  0  0  0  0  0
   -4.2537    1.6394    0.0000 C   0  0  0  0  0  0  0  0  0
  1  2  1  0  0  0  0
  1  8  1  0  0  0  0
  2  3  1  0  0  0  0
  3  4  1  0  0  0  0
  4  5  1  0  0  0  0
  5  6  1  0  0  0  0
  5  7  1  0  0  0  0
  8  9  4  0  0  0  0
  8 13  4  0  0  0  0
  9 10  4  0  0  0  0
 10 11  4  0  0  0  0
 11 12  4  0  0  0  0
 11 14  1  0  0  0  0
 12 13  4  0  0  0  0
 14 15  1  0  0  0  0
 15 16  1  0  0  0  0
 15 20  1  0  0  0  0
 16 17  1  0  0  0  0
 17 18  1  0  0  0  0
 18 19  1  0  0  0  0
 19 20  1  0  0  0  0
M  END
>  <Name_Molregno>
339086

>  <HISTAMINE H3>
8.52

$$$$
339236
  Marvin  02231216192D 0   1.00000     0.00000     0

 18 18  0  0  0  0  0  0  0  0999 V2000
   -0.2370   -0.5200    0.0000 O   0  0  0  0  0  0  0  0  0
    0.4775   -0.1075    0.0000 C   0  0  0  0  0  0  0  0  0
    1.1920   -0.5200    0.0000 C   0  0  0  0  0  0  0  0  0
    1.9065   -0.1075    0.0000 C   0  0  0  0  0  0  0  0  0
    2.6209   -0.5200    0.0000 N   0  0  0  0  0  0  0  0  0
    3.3354   -0.1075    0.0000 C   0  0  0  0  0  0  0  0  0
    2.6209   -1.3450    0.0000 C   0  0  0  0  0  0  0  0  0
   -0.9514   -0.1075    0.0000 C   0  0  0  0  0  0  0  0  0
   -1.6659   -0.5200    0.0000 C   0  0  0  0  0  0  0  0  0
   -2.3804   -0.1075    0.0000 C   0  0  0  0  0  0  0  0  0
   -2.3804    0.7175    0.0000 C   0  0  0  0  0  0  0  0  0
   -1.6659    1.1300    0.0000 C   0  0  0  0  0  0  0  0  0
   -0.9514    0.7175    0.0000 C   0  0  0  0  0  0  0  0  0
   -3.0948    1.1300    0.0000 C   0  0  0  0  0  0  0  0  0
   -3.8093    0.7175    0.0000 C   0  0  0  0  0  0  0  0  0
   -4.5238    1.1300    0.0000 N   0  0  0  0  0  0  0  0  0
   -5.2383    0.7175    0.0000 C   0  0  0  0  0  0  0  0  0
   -4.5238    1.9550    0.0000 C   0  0  0  0  0  0  0  0  0
  1  2  1  0  0  0  0
  1  8  1  0  0  0  0
  2  3  1  0  0  0  0
  3  4  1  0  0  0  0
  4  5  1  0  0  0  0
  5  6  1  0  0  0  0
  5  7  1  0  0  0  0
  8  9  4  0  0  0  0
  8 13  4  0  0  0  0
  9 10  4  0  0  0  0
 10 11  4  0  0  0  0
 11 12  4  0  0  0  0
 11 14  1  0  0  0  0
 12 13  4  0  0  0  0
 14 15  1  0  0  0  0
 15 16  1  0  0  0  0
 16 17  1  0  0  0  0
 16 18  1  0  0  0  0
M  END
>  <Name_Molregno>
339236

>  <HISTAMINE H3>
8.22

$$$$
339244
  Marvin  02231216192D 0   1.00000     0.00000     0

 17 17  0  0  0  0  0  0  0  0999 V2000
   -0.2592   -1.1055    0.0000 O   0  0  0  0  0  0  0  0  0
    0.4553   -0.6930    0.0000 C   0  0  0  0  0  0  0  0  0
    1.1697   -1.1055    0.0000 C   0  0  0  0  0  0  0  0  0
    1.8842   -0.6930    0.0000 N   0  0  0  0  0  0  0  0  0
    2.5987   -1.1055    0.0000 C   0  0  0  0  0  0  0  0  0
    1.8842    0.1320    0.0000 C   0  0  0  0  0  0  0  0  0
   -0.9737   -0.6930    0.0000 C   0  0  0  0  0  0  0  0  0
   -1.6882   -1.1055    0.0000 C   0  0  0  0  0  0  0  0  0
   -2.4026   -0.6930    0.0000 C   0  0  0  0  0  0  0  0  0
   -2.4026    0.1320    0.0000 C   0  0  0  0  0  0  0  0  0
   -1.6882    0.5445    0.0000 C   0  0  0  0  0  0  0  0  0
   -0.9737    0.1320    0.0000 C   0  0  0  0  0  0  0  0  0
   -3.1171    0.5445    0.0000 C   0  0  0  0  0  0  0  0  0
   -3.8316    0.1320    0.0000 C   0  0  0  0  0  0  0  0  0
   -4.5460    0.5445    0.0000 N   0  0  0  0  0  0  0  0  0
   -5.2605    0.1320    0.0000 C   0  0  0  0  0  0  0  0  0
   -4.5460    1.3695    0.0000 C   0  0  0  0  0  0  0  0  0
  1  2  1  0  0  0  0
  1  7  1  0  0  0  0
  2  3  1  0  0  0  0
  3  4  1  0  0  0  0
  4  5  1  0  0  0  0
  4  6  1  0  0  0  0
  7  8  4  0  0  0  0
  7 12  4  0  0  0  0
  8  9  4  0  0  0  0
  9 10  4  0  0  0  0
 10 11  4  0  0  0  0
 10 13  1  0  0  0  0
 11 12  4  0  0  0  0
 13 14  1  0  0  0  0
 14 15  1  0  0  0  0
 15 16  1  0  0  0  0
 15 17  1  0  0  0  0
M  END
>  <Name_Molregno>
339244

>  <HISTAMINE H3>
7.4

$$$$
339472
  Marvin  02231216192D 0   1.00000     0.00000     0

 20 21  0  0  0  0  0  0  0  0999 V2000
   -1.8797    0.6185    0.0000 O   0  0  0  0  0  0  0  0  0
   -1.8797   -0.2065    0.0000 C   0  0  0  0  0  0  0  0  0
   -2.5942   -0.6190    0.0000 C   0  0  0  0  0  0  0  0  0
   -2.5942   -1.4440    0.0000 N   0  0  0  0  0  0  0  0  0
   -1.8797   -1.8565    0.0000 C   0  0  0  0  0  0  0  0  0
   -1.8797   -2.6815    0.0000 C   0  0  0  0  0  0  0  0  0
   -2.5942   -3.0940    0.0000 C   0  0  0  0  0  0  0  0  0
   -3.3087   -2.6815    0.0000 C   0  0  0  0  0  0  0  0  0
   -3.3087   -1.8565    0.0000 C   0  0  0  0  0  0  0  0  0
   -1.1653    1.0310    0.0000 C   0  0  0  0  0  0  0  0  0
   -1.1653    1.8560    0.0000 C   0  0  0  0  0  0  0  0  0
   -0.4508    2.2685    0.0000 C   0  0  0  0  0  0  0  0  0
    0.2637    1.8560    0.0000 C   0  0  0  0  0  0  0  0  0
    0.2637    1.0310    0.0000 C   0  0  0  0  0  0  0  0  0
   -0.4508    0.6185    0.0000 C   0  0  0  0  0  0  0  0  0
    0.9782    2.2685    0.0000 C   0  0  0  0  0  0  0  0  0
    0.9782    3.0935    0.0000 C   0  0  0  0  0  0  0  0  0
    1.6926    3.5060    0.0000 N   0  0  0  0  0  0  0  0  0
    1.6926    4.3310    0.0000 C   0  0  0  0  0  0  0  0  0
    2.4071    3.0935    0.0000 C   0  0  0  0  0  0  0  0  0
  1  2  1  0  0  0  0
  1 10  1  0  0  0  0
  2  3  1  0  0  0  0
  3  4  1  0  0  0  0
  4  5  1  0  0  0  0
  4  9  1  0  0  0  0
  5  6  1  0  0  0  0
  6  7  1  0  0  0  0
  7  8  1  0  0  0  0
  8  9  1  0  0  0  0
 10 11  4  0  0  0  0
 10 15  4  0  0  0  0
 11 12  4  0  0  0  0
 12 13  4  0  0  0  0
 13 14  4  0  0  0  0
 13 16  1  0  0  0  0
 14 15  4  0  0  0  0
 16 17  1  0  0  0  0
 17 18  1  0  0  0  0
 18 19  1  0  0  0  0
 18 20  1  0  0  0  0
M  END
>  <Name_Molregno>
339472

>  <HISTAMINE H3>
7.85

$$$$
339481
  Marvin  02231216192D 0   1.00000     0.00000     0

 21 22  0  0  0  0  0  0  0  0999 V2000
   -0.2441   -0.1500    0.0000 O   0  0  0  0  0  0  0  0  0
    0.4704    0.2625    0.0000 C   0  0  0  0  0  0  0  0  0
    1.1848   -0.1500    0.0000 C   0  0  0  0  0  0  0  0  0
    1.8993    0.2625    0.0000 C   0  0  0  0  0  0  0  0  0
    2.6138   -0.1500    0.0000 N   0  0  0  0  0  0  0  0  0
    3.3282    0.2625    0.0000 C   0  0  0  0  0  0  0  0  0
    4.0427   -0.1500    0.0000 C   0  0  0  0  0  0  0  0  0
    4.0427   -0.9750    0.0000 C   0  0  0  0  0  0  0  0  0
    3.3282   -1.3875    0.0000 C   0  0  0  0  0  0  0  0  0
    2.6138   -0.9750    0.0000 C   0  0  0  0  0  0  0  0  0
   -0.9586    0.2625    0.0000 C   0  0  0  0  0  0  0  0  0
   -1.6731   -0.1500    0.0000 C   0  0  0  0  0  0  0  0  0
   -2.3875    0.2625    0.0000 C   0  0  0  0  0  0  0  0  0
   -2.3875    1.0875    0.0000 C   0  0  0  0  0  0  0  0  0
   -1.6731    1.5000    0.0000 C   0  0  0  0  0  0  0  0  0
   -0.9586    1.0875    0.0000 C   0  0  0  0  0  0  0  0  0
   -3.1020    1.5000    0.0000 C   0  0  0  0  0  0  0  0  0
   -3.8165    1.0875    0.0000 C   0  0  0  0  0  0  0  0  0
   -4.5309    1.5000    0.0000 N   0  0  0  0  0  0  0  0  0
   -5.2454    1.0875    0.0000 C   0  0  0  0  0  0  0  0  0
   -4.5309    2.3250    0.0000 C   0  0  0  0  0  0  0  0  0
  1  2  1  0  0  0  0
  1 11  1  0  0  0  0
  2  3  1  0  0  0  0
  3  4  1  0  0  0  0
  4  5  1  0  0  0  0
  5  6  1  0  0  0  0
  5 10  1  0  0  0  0
  6  7  1  0  0  0  0
  7  8  1  0  0  0  0
  8  9  1  0  0  0  0
  9 10  1  0  0  0  0
 11 12  4  0  0  0  0
 11 16  4  0  0  0  0
 12 13  4  0  0  0  0
 13 14  4  0  0  0  0
 14 15  4  0  0  0  0
 14 17  1  0  0  0  0
 15 16  4  0  0  0  0
 17 18  1  0  0  0  0
 18 19  1  0  0  0  0
 19 20  1  0  0  0  0
 19 21  1  0  0  0  0
M  END
>  <Name_Molregno>
339481

>  <HISTAMINE H3>
9.3

$$$$
342906
  Marvin  02231216192D 0   1.00000     0.00000     0

 15 15  0  0  0  0  0  0  0  0999 V2000
   -0.0708   -0.4440    0.0000 N   0  0  0  0  0  0  0  0  0
    0.4812    0.1691    0.0000 C   0  0  0  0  0  0  0  0  0
    1.2349   -0.1664    0.0000 C   0  0  0  0  0  0  0  0  0
    1.1486   -0.9869    0.0000 N   0  0  0  0  0  0  0  0  0
    0.3417   -1.1584    0.0000 C   0  0  0  0  0  0  0  0  0
    1.9493    0.2461    0.0000 C   0  0  0  0  0  0  0  0  0
    2.6638   -0.1664    0.0000 C   0  0  0  0  0  0  0  0  0
    3.3783    0.2461    0.0000 C   0  0  0  0  0  0  0  0  0
    4.0928   -0.1664    0.0000 C   0  0  0  0  0  0  0  0  0
    4.8072    0.2461    0.0000 C   0  0  0  0  0  0  0  0  0
    5.5217   -0.1664    0.0000 N   0  0  0  0  0  0  0  0  0
    6.2362    0.2461    0.0000 C   0  0  0  0  0  0  0  0  0
    6.9506    0.6586    0.0000 C   0  0  0  0  0  0  0  0  0
    6.6487   -0.4684    0.0000 C   0  0  0  0  0  0  0  0  0
    5.8237    0.9605    0.0000 C   0  0  0  0  0  0  0  0  0
  1  2  4  0  0  0  0
  1  5  4  0  0  0  0
  2  3  4  0  0  0  0
  3  4  4  0  0  0  0
  3  6  1  0  0  0  0
  4  5  4  0  0  0  0
  6  7  1  0  0  0  0
  7  8  1  0  0  0  0
  8  9  1  0  0  0  0
  9 10  1  0  0  0  0
 10 11  1  0  0  0  0
 11 12  1  0  0  0  0
 12 13  1  0  0  0  0
 12 14  1  0  0  0  0
 12 15  1  0  0  0  0
M  STY  1   1 DAT
M  SAL   1  1   1
M  SDT   1 MRV_IMPLICIT_H                                        
M  SDD   1     0.0000    0.0000    DR    ALL  0       0  
M  SED   1 IMPL_H1
M  END
>  <Name_Molregno>
342906

>  <HISTAMINE H3>
7.4

>  <HISTAMINE H4>
7.2

$$$$
342907
  Marvin  02231216192D 0   1.00000     0.00000     0

 16 17  0  0  0  0  0  0  0  0999 V2000
    0.3428    1.2703    0.0000 N   0  0  0  0  0  0  0  0  0
    1.1498    1.0988    0.0000 C   0  0  0  0  0  0  0  0  0
    1.2360    0.2783    0.0000 C   0  0  0  0  0  0  0  0  0
    0.4823   -0.0573    0.0000 N   0  0  0  0  0  0  0  0  0
   -0.0697    0.5558    0.0000 C   0  0  0  0  0  0  0  0  0
    1.9505   -0.1342    0.0000 C   0  0  0  0  0  0  0  0  0
    2.6649    0.2783    0.0000 C   0  0  0  0  0  0  0  0  0
    3.3794   -0.1342    0.0000 C   0  0  0  0  0  0  0  0  0
    4.0939    0.2783    0.0000 C   0  0  0  0  0  0  0  0  0
    4.8083   -0.1342    0.0000 C   0  0  0  0  0  0  0  0  0
    5.5228    0.2783    0.0000 N   0  0  0  0  0  0  0  0  0
    6.2373   -0.1342    0.0000 C   0  0  0  0  0  0  0  0  0
    6.9910    0.2014    0.0000 C   0  0  0  0  0  0  0  0  0
    7.5430   -0.4117    0.0000 C   0  0  0  0  0  0  0  0  0
    7.1305   -1.1262    0.0000 C   0  0  0  0  0  0  0  0  0
    6.3235   -0.9547    0.0000 C   0  0  0  0  0  0  0  0  0
  1  2  4  0  0  0  0
  1  5  4  0  0  0  0
  2  3  4  0  0  0  0
  3  4  4  0  0  0  0
  3  6  1  0  0  0  0
  4  5  4  0  0  0  0
  6  7  1  0  0  0  0
  7  8  1  0  0  0  0
  8  9  1  0  0  0  0
  9 10  1  0  0  0  0
 10 11  1  0  0  0  0
 11 12  1  0  0  0  0
 12 13  1  0  0  0  0
 12 16  1  0  0  0  0
 13 14  1  0  0  0  0
 14 15  1  0  0  0  0
 15 16  1  0  0  0  0
M  STY  1   1 DAT
M  SAL   1  1   1
M  SDT   1 MRV_IMPLICIT_H                                        
M  SDD   1     0.0000    0.0000    DR    ALL  0       0  
M  SED   1 IMPL_H1
M  END
>  <Name_Molregno>
342907

>  <HISTAMINE H3>
8.4

>  <HISTAMINE H4>
7.4

$$$$
342995
  Marvin  02231216192D 0   1.00000     0.00000     0

 16 17  0  0  0  0  0  0  0  0999 V2000
   -6.8107   -0.9314    0.0000 N   0  0  0  0  0  0  0  0  0
   -6.2586   -0.3183    0.0000 C   0  0  0  0  0  0  0  0  0
   -5.5050   -0.6538    0.0000 C   0  0  0  0  0  0  0  0  0
   -5.5912   -1.4743    0.0000 N   0  0  0  0  0  0  0  0  0
   -6.3982   -1.6458    0.0000 C   0  0  0  0  0  0  0  0  0
   -4.7905   -0.2413    0.0000 C   0  0  0  0  0  0  0  0  0
   -4.0760   -0.6538    0.0000 C   0  0  0  0  0  0  0  0  0
   -3.3616   -0.2413    0.0000 C   0  0  0  0  0  0  0  0  0
   -2.6471   -0.6538    0.0000 C   0  0  0  0  0  0  0  0  0
   -1.9326   -0.2413    0.0000 C   0  0  0  0  0  0  0  0  0
   -1.2181   -0.6538    0.0000 N   0  0  0  0  0  0  0  0  0
   -0.5037   -0.2413    0.0000 C   0  0  0  0  0  0  0  0  0
    0.2108   -0.6538    0.0000 C   0  0  0  0  0  0  0  0  0
    0.2108   -1.4788    0.0000 C   0  0  0  0  0  0  0  0  0
   -0.5037   -1.8913    0.0000 C   0  0  0  0  0  0  0  0  0
   -1.2181   -1.4788    0.0000 C   0  0  0  0  0  0  0  0  0
  1  2  4  0  0  0  0
  1  5  4  0  0  0  0
  2  3  4  0  0  0  0
  3  4  4  0  0  0  0
  3  6  1  0  0  0  0
  4  5  4  0  0  0  0
  6  7  1  0  0  0  0
  7  8  1  0  0  0  0
  8  9  1  0  0  0  0
  9 10  1  0  0  0  0
 10 11  1  0  0  0  0
 11 12  1  0  0  0  0
 11 16  1  0  0  0  0
 12 13  1  0  0  0  0
 13 14  1  0  0  0  0
 14 15  1  0  0  0  0
 15 16  1  0  0  0  0
M  STY  1   1 DAT
M  SAL   1  1   1
M  SDT   1 MRV_IMPLICIT_H                                        
M  SDD   1     0.0000    0.0000    DR    ALL  0       0  
M  SED   1 IMPL_H1
M  END
>  <Name_Molregno>
342995

>  <HISTAMINE H3>
8.1

>  <HISTAMINE H4>
6.5

$$$$
342996
  Marvin  02231216192D 0   1.00000     0.00000     0

 17 18  0  0  0  0  0  0  0  0999 V2000
   -7.1934    0.8102    0.0000 N   0  0  0  0  0  0  0  0  0
   -6.6413    1.4233    0.0000 C   0  0  0  0  0  0  0  0  0
   -5.8876    1.0877    0.0000 C   0  0  0  0  0  0  0  0  0
   -5.9739    0.2673    0.0000 N   0  0  0  0  0  0  0  0  0
   -6.7809    0.0957    0.0000 C   0  0  0  0  0  0  0  0  0
   -5.1732    1.5002    0.0000 C   0  0  0  0  0  0  0  0  0
   -4.4587    1.0877    0.0000 C   0  0  0  0  0  0  0  0  0
   -3.7442    1.5002    0.0000 C   0  0  0  0  0  0  0  0  0
   -3.0298    1.0877    0.0000 C   0  0  0  0  0  0  0  0  0
   -2.3153    1.5002    0.0000 C   0  0  0  0  0  0  0  0  0
   -1.6008    1.0877    0.0000 N   0  0  0  0  0  0  0  0  0
   -0.9192    1.5525    0.0000 C   0  0  0  0  0  0  0  0  0
   -0.1308    1.3093    0.0000 C   0  0  0  0  0  0  0  0  0
    0.1706    0.5413    0.0000 C   0  0  0  0  0  0  0  0  0
   -0.2419   -0.1731    0.0000 C   0  0  0  0  0  0  0  0  0
   -1.0577   -0.2961    0.0000 C   0  0  0  0  0  0  0  0  0
   -1.6625    0.2650    0.0000 C   0  0  0  0  0  0  0  0  0
  1  2  4  0  0  0  0
  1  5  4  0  0  0  0
  2  3  4  0  0  0  0
  3  4  4  0  0  0  0
  3  6  1  0  0  0  0
  4  5  4  0  0  0  0
  6  7  1  0  0  0  0
  7  8  1  0  0  0  0
  8  9  1  0  0  0  0
  9 10  1  0  0  0  0
 10 11  1  0  0  0  0
 11 12  1  0  0  0  0
 11 17  1  0  0  0  0
 12 13  1  0  0  0  0
 13 14  1  0  0  0  0
 14 15  1  0  0  0  0
 15 16  1  0  0  0  0
 16 17  1  0  0  0  0
M  STY  1   1 DAT
M  SAL   1  1   1
M  SDT   1 MRV_IMPLICIT_H                                        
M  SDD   1     0.0000    0.0000    DR    ALL  0       0  
M  SED   1 IMPL_H1
M  END
>  <Name_Molregno>
342996

>  <HISTAMINE H3>
7.8

>  <HISTAMINE H4>
6.8

$$$$
343039
  Marvin  02231216192D 0   1.00000     0.00000     0

 17 18  0  0  0  0  0  0  0  0999 V2000
   -7.2994    0.7019    0.0000 N   0  0  0  0  0  0  0  0  0
   -6.4924    0.5303    0.0000 C   0  0  0  0  0  0  0  0  0
   -6.4062   -0.2901    0.0000 C   0  0  0  0  0  0  0  0  0
   -7.1599   -0.6257    0.0000 N   0  0  0  0  0  0  0  0  0
   -7.7119   -0.0126    0.0000 C   0  0  0  0  0  0  0  0  0
   -5.6917   -0.7026    0.0000 C   0  0  0  0  0  0  0  0  0
   -4.9772   -0.2901    0.0000 C   0  0  0  0  0  0  0  0  0
   -4.2628   -0.7026    0.0000 C   0  0  0  0  0  0  0  0  0
   -3.5483   -0.2901    0.0000 C   0  0  0  0  0  0  0  0  0
   -2.8338   -0.7026    0.0000 C   0  0  0  0  0  0  0  0  0
   -2.1194   -0.2901    0.0000 N   0  0  0  0  0  0  0  0  0
   -1.4049   -0.7026    0.0000 C   0  0  0  0  0  0  0  0  0
   -0.6904   -0.2901    0.0000 C   0  0  0  0  0  0  0  0  0
    0.0241   -0.7026    0.0000 C   0  0  0  0  0  0  0  0  0
    0.0241   -1.5276    0.0000 C   0  0  0  0  0  0  0  0  0
   -0.6904   -1.9401    0.0000 C   0  0  0  0  0  0  0  0  0
   -1.4049   -1.5276    0.0000 C   0  0  0  0  0  0  0  0  0
  1  2  4  0  0  0  0
  1  5  4  0  0  0  0
  2  3  4  0  0  0  0
  3  4  4  0  0  0  0
  3  6  1  0  0  0  0
  4  5  4  0  0  0  0
  6  7  1  0  0  0  0
  7  8  1  0  0  0  0
  8  9  1  0  0  0  0
  9 10  1  0  0  0  0
 10 11  1  0  0  0  0
 11 12  1  0  0  0  0
 12 13  1  0  0  0  0
 12 17  1  0  0  0  0
 13 14  1  0  0  0  0
 14 15  1  0  0  0  0
 15 16  1  0  0  0  0
 16 17  1  0  0  0  0
M  STY  1   1 DAT
M  SAL   1  1   1
M  SDT   1 MRV_IMPLICIT_H                                        
M  SDD   1     0.0000    0.0000    DR    ALL  0       0  
M  SED   1 IMPL_H1
M  END
>  <Name_Molregno>
343039

>  <HISTAMINE H3>
8

>  <HISTAMINE H4>
7.4

$$$$
343040
  Marvin  02231216192D 0   1.00000     0.00000     0

 18 19  0  0  0  0  0  0  0  0999 V2000
   -7.9654    0.8660    0.0000 N   0  0  0  0  0  0  0  0  0
   -7.1584    0.6944    0.0000 C   0  0  0  0  0  0  0  0  0
   -7.0722   -0.1260    0.0000 C   0  0  0  0  0  0  0  0  0
   -7.8258   -0.4616    0.0000 N   0  0  0  0  0  0  0  0  0
   -8.3779    0.1515    0.0000 C   0  0  0  0  0  0  0  0  0
   -6.3577   -0.5385    0.0000 C   0  0  0  0  0  0  0  0  0
   -5.6432   -0.1260    0.0000 C   0  0  0  0  0  0  0  0  0
   -4.9287   -0.5385    0.0000 C   0  0  0  0  0  0  0  0  0
   -4.2143   -0.1260    0.0000 C   0  0  0  0  0  0  0  0  0
   -3.4998   -0.5385    0.0000 C   0  0  0  0  0  0  0  0  0
   -2.7853   -0.1260    0.0000 N   0  0  0  0  0  0  0  0  0
   -2.0709   -0.5385    0.0000 C   0  0  0  0  0  0  0  0  0
   -1.3892   -0.0738    0.0000 C   0  0  0  0  0  0  0  0  0
   -0.6009   -0.3170    0.0000 C   0  0  0  0  0  0  0  0  0
   -0.2995   -1.0849    0.0000 C   0  0  0  0  0  0  0  0  0
   -0.7120   -1.7994    0.0000 C   0  0  0  0  0  0  0  0  0
   -1.5277   -1.9224    0.0000 C   0  0  0  0  0  0  0  0  0
   -2.1325   -1.3612    0.0000 C   0  0  0  0  0  0  0  0  0
  1  2  4  0  0  0  0
  1  5  4  0  0  0  0
  2  3  4  0  0  0  0
  3  4  4  0  0  0  0
  3  6  1  0  0  0  0
  4  5  4  0  0  0  0
  6  7  1  0  0  0  0
  7  8  1  0  0  0  0
  8  9  1  0  0  0  0
  9 10  1  0  0  0  0
 10 11  1  0  0  0  0
 11 12  1  0  0  0  0
 12 13  1  0  0  0  0
 12 18  1  0  0  0  0
 13 14  1  0  0  0  0
 14 15  1  0  0  0  0
 15 16  1  0  0  0  0
 16 17  1  0  0  0  0
 17 18  1  0  0  0  0
M  STY  1   1 DAT
M  SAL   1  1   1
M  SDT   1 MRV_IMPLICIT_H                                        
M  SDD   1     0.0000    0.0000    DR    ALL  0       0  
M  SED   1 IMPL_H1
M  END
>  <Name_Molregno>
343040

>  <HISTAMINE H3>
8.5

>  <HISTAMINE H4>
7.3

$$$$
343045
  Marvin  02231216192D 0   1.00000     0.00000     0

 19 20  0  0  0  0  0  0  0  0999 V2000
   -0.0075   -1.2334    0.0000 Cl  0  0  0  0  0  0  0  0  0
    0.7069   -0.8209    0.0000 C   0  0  0  0  0  0  0  0  0
    0.7069    0.0041    0.0000 C   0  0  0  0  0  0  0  0  0
    1.4214    0.4166    0.0000 C   0  0  0  0  0  0  0  0  0
    2.1359    0.0041    0.0000 C   0  0  0  0  0  0  0  0  0
    2.1359   -0.8209    0.0000 C   0  0  0  0  0  0  0  0  0
    1.4214   -1.2334    0.0000 C   0  0  0  0  0  0  0  0  0
    2.8503    0.4166    0.0000 C   0  0  0  0  0  0  0  0  0
    3.5648    0.0041    0.0000 N   0  0  0  0  0  0  0  0  0
    4.2793    0.4166    0.0000 C   0  0  0  0  0  0  0  0  0
    4.9938    0.0041    0.0000 C   0  0  0  0  0  0  0  0  0
    5.7082    0.4166    0.0000 C   0  0  0  0  0  0  0  0  0
    6.4227    0.0041    0.0000 C   0  0  0  0  0  0  0  0  0
    7.1372    0.4166    0.0000 C   0  0  0  0  0  0  0  0  0
    7.8516    0.0041    0.0000 C   0  0  0  0  0  0  0  0  0
    8.6053    0.3397    0.0000 N   0  0  0  0  0  0  0  0  0
    9.1574   -0.2734    0.0000 C   0  0  0  0  0  0  0  0  0
    8.7449   -0.9879    0.0000 N   0  0  0  0  0  0  0  0  0
    7.9379   -0.8163    0.0000 C   0  0  0  0  0  0  0  0  0
  1  2  1  0  0  0  0
  2  3  4  0  0  0  0
  2  7  4  0  0  0  0
  3  4  4  0  0  0  0
  4  5  4  0  0  0  0
  5  6  4  0  0  0  0
  5  8  1  0  0  0  0
  6  7  4  0  0  0  0
  8  9  1  0  0  0  0
  9 10  1  0  0  0  0
 10 11  1  0  0  0  0
 11 12  1  0  0  0  0
 12 13  1  0  0  0  0
 13 14  1  0  0  0  0
 14 15  1  0  0  0  0
 15 16  4  0  0  0  0
 15 19  4  0  0  0  0
 16 17  4  0  0  0  0
 17 18  4  0  0  0  0
 18 19  4  0  0  0  0
M  STY  1   1 DAT
M  SAL   1  1  18
M  SDT   1 MRV_IMPLICIT_H                                        
M  SDD   1     0.0000    0.0000    DR    ALL  0       0  
M  SED   1 IMPL_H1
M  END
>  <Name_Molregno>
343045

>  <HISTAMINE H3>
8.6

>  <HISTAMINE H4>
7.2

$$$$
343046
  Marvin  02231216192D 0   1.00000     0.00000     0

 13 13  0  0  0  0  0  0  0  0999 V2000
   -5.4582   -0.9333    0.0000 N   0  0  0  0  0  0  0  0  0
   -4.9062   -0.3202    0.0000 C   0  0  0  0  0  0  0  0  0
   -4.1525   -0.6558    0.0000 C   0  0  0  0  0  0  0  0  0
   -4.2387   -1.4762    0.0000 N   0  0  0  0  0  0  0  0  0
   -5.0457   -1.6478    0.0000 C   0  0  0  0  0  0  0  0  0
   -3.4380   -0.2433    0.0000 C   0  0  0  0  0  0  0  0  0
   -2.7236   -0.6558    0.0000 C   0  0  0  0  0  0  0  0  0
   -2.0091   -0.2433    0.0000 C   0  0  0  0  0  0  0  0  0
   -1.2946   -0.6558    0.0000 C   0  0  0  0  0  0  0  0  0
   -0.5802   -0.2433    0.0000 C   0  0  0  0  0  0  0  0  0
    0.1343   -0.6558    0.0000 N   0  0  0  0  0  0  0  0  0
    0.8488   -0.2433    0.0000 C   0  0  0  0  0  0  0  0  0
    0.1343   -1.4808    0.0000 C   0  0  0  0  0  0  0  0  0
  1  2  4  0  0  0  0
  1  5  4  0  0  0  0
  2  3  4  0  0  0  0
  3  4  4  0  0  0  0
  3  6  1  0  0  0  0
  4  5  4  0  0  0  0
  6  7  1  0  0  0  0
  7  8  1  0  0  0  0
  8  9  1  0  0  0  0
  9 10  1  0  0  0  0
 10 11  1  0  0  0  0
 11 12  1  0  0  0  0
 11 13  1  0  0  0  0
M  STY  1   1 DAT
M  SAL   1  1   1
M  SDT   1 MRV_IMPLICIT_H                                        
M  SDD   1     0.0000    0.0000    DR    ALL  0       0  
M  SED   1 IMPL_H1
M  END
>  <Name_Molregno>
343046

>  <HISTAMINE H3>
7.8

>  <HISTAMINE H4>
6.3

$$$$
343047
  Marvin  02231216192D 0   1.00000     0.00000     0

 15 15  0  0  0  0  0  0  0  0999 V2000
   -5.5958    2.1601    0.0000 N   0  0  0  0  0  0  0  0  0
   -4.8895    1.7339    0.0000 C   0  0  0  0  0  0  0  0  0
   -5.0765    0.9304    0.0000 C   0  0  0  0  0  0  0  0  0
   -5.8985    0.8600    0.0000 N   0  0  0  0  0  0  0  0  0
   -6.2195    1.6200    0.0000 C   0  0  0  0  0  0  0  0  0
   -4.5365    0.3067    0.0000 C   0  0  0  0  0  0  0  0  0
   -3.7263    0.4626    0.0000 C   0  0  0  0  0  0  0  0  0
   -3.1862   -0.1610    0.0000 C   0  0  0  0  0  0  0  0  0
   -2.3761   -0.0051    0.0000 C   0  0  0  0  0  0  0  0  0
   -1.8360   -0.6287    0.0000 C   0  0  0  0  0  0  0  0  0
   -1.0259   -0.4728    0.0000 N   0  0  0  0  0  0  0  0  0
   -0.4858   -1.0965    0.0000 C   0  0  0  0  0  0  0  0  0
    0.3243   -0.9406    0.0000 C   0  0  0  0  0  0  0  0  0
   -0.7558    0.3067    0.0000 C   0  0  0  0  0  0  0  0  0
    0.0543    0.4626    0.0000 C   0  0  0  0  0  0  0  0  0
  1  2  4  0  0  0  0
  1  5  4  0  0  0  0
  2  3  4  0  0  0  0
  3  4  4  0  0  0  0
  3  6  1  0  0  0  0
  4  5  4  0  0  0  0
  6  7  1  0  0  0  0
  7  8  1  0  0  0  0
  8  9  1  0  0  0  0
  9 10  1  0  0  0  0
 10 11  1  0  0  0  0
 11 12  1  0  0  0  0
 11 14  1  0  0  0  0
 12 13  1  0  0  0  0
 14 15  1  0  0  0  0
M  STY  1   1 DAT
M  SAL   1  1   1
M  SDT   1 MRV_IMPLICIT_H                                        
M  SDD   1     0.0000    0.0000    DR    ALL  0       0  
M  SED   1 IMPL_H1
M  END
>  <Name_Molregno>
343047

>  <HISTAMINE H3>
7.2

>  <HISTAMINE H4>
6.2

$$$$
343048
  Marvin  02231216192D 0   1.00000     0.00000     0

 15 15  0  0  0  0  0  0  0  0999 V2000
   -6.8790   -0.5670    0.0000 N   0  0  0  0  0  0  0  0  0
   -6.3270    0.0461    0.0000 C   0  0  0  0  0  0  0  0  0
   -5.5733   -0.2895    0.0000 C   0  0  0  0  0  0  0  0  0
   -5.6595   -1.1099    0.0000 N   0  0  0  0  0  0  0  0  0
   -6.4665   -1.2815    0.0000 C   0  0  0  0  0  0  0  0  0
   -4.8588    0.1230    0.0000 C   0  0  0  0  0  0  0  0  0
   -4.1444   -0.2895    0.0000 C   0  0  0  0  0  0  0  0  0
   -3.4299    0.1230    0.0000 C   0  0  0  0  0  0  0  0  0
   -2.7154   -0.2895    0.0000 C   0  0  0  0  0  0  0  0  0
   -2.0009    0.1230    0.0000 C   0  0  0  0  0  0  0  0  0
   -1.2865   -0.2895    0.0000 N   0  0  0  0  0  0  0  0  0
   -0.5720    0.1230    0.0000 C   0  0  0  0  0  0  0  0  0
    0.1425   -0.2895    0.0000 C   0  0  0  0  0  0  0  0  0
    0.8569    0.1230    0.0000 C   0  0  0  0  0  0  0  0  0
    0.1425   -1.1145    0.0000 C   0  0  0  0  0  0  0  0  0
  1  2  4  0  0  0  0
  1  5  4  0  0  0  0
  2  3  4  0  0  0  0
  3  4  4  0  0  0  0
  3  6  1  0  0  0  0
  4  5  4  0  0  0  0
  6  7  1  0  0  0  0
  7  8  1  0  0  0  0
  8  9  1  0  0  0  0
  9 10  1  0  0  0  0
 10 11  1  0  0  0  0
 11 12  1  0  0  0  0
 12 13  1  0  0  0  0
 13 14  1  0  0  0  0
 13 15  1  0  0  0  0
M  STY  1   1 DAT
M  SAL   1  1   1
M  SDT   1 MRV_IMPLICIT_H                                        
M  SDD   1     0.0000    0.0000    DR    ALL  0       0  
M  SED   1 IMPL_H1
M  END
>  <Name_Molregno>
343048

>  <HISTAMINE H3>
8.8

>  <HISTAMINE H4>
6.9

$$$$
343055
  Marvin  02231216192D 0   1.00000     0.00000     0

 15 16  0  0  0  0  0  0  0  0999 V2000
   -0.0896   -0.0031    0.0000 N   0  0  0  0  0  0  0  0  0
    0.4624    0.6100    0.0000 C   0  0  0  0  0  0  0  0  0
    1.2161    0.2744    0.0000 C   0  0  0  0  0  0  0  0  0
    1.1299   -0.5461    0.0000 N   0  0  0  0  0  0  0  0  0
    0.3229   -0.7176    0.0000 C   0  0  0  0  0  0  0  0  0
    1.9306    0.6869    0.0000 C   0  0  0  0  0  0  0  0  0
    2.6450    0.2744    0.0000 C   0  0  0  0  0  0  0  0  0
    3.3595    0.6869    0.0000 C   0  0  0  0  0  0  0  0  0
    4.0740    0.2744    0.0000 C   0  0  0  0  0  0  0  0  0
    4.7884    0.6869    0.0000 C   0  0  0  0  0  0  0  0  0
    5.5029    0.2744    0.0000 N   0  0  0  0  0  0  0  0  0
    6.2566    0.6100    0.0000 C   0  0  0  0  0  0  0  0  0
    6.8086   -0.0031    0.0000 C   0  0  0  0  0  0  0  0  0
    6.3961   -0.7176    0.0000 C   0  0  0  0  0  0  0  0  0
    5.5891   -0.5461    0.0000 C   0  0  0  0  0  0  0  0  0
  1  2  4  0  0  0  0
  1  5  4  0  0  0  0
  2  3  4  0  0  0  0
  3  4  4  0  0  0  0
  3  6  1  0  0  0  0
  4  5  4  0  0  0  0
  6  7  1  0  0  0  0
  7  8  1  0  0  0  0
  8  9  1  0  0  0  0
  9 10  1  0  0  0  0
 10 11  1  0  0  0  0
 11 12  1  0  0  0  0
 11 15  1  0  0  0  0
 12 13  1  0  0  0  0
 13 14  1  0  0  0  0
 14 15  1  0  0  0  0
M  STY  1   1 DAT
M  SAL   1  1   1
M  SDT   1 MRV_IMPLICIT_H                                        
M  SDD   1     0.0000    0.0000    DR    ALL  0       0  
M  SED   1 IMPL_H1
M  END
>  <Name_Molregno>
343055

>  <HISTAMINE H3>
7.5

>  <HISTAMINE H4>
6.1

$$$$
343078
  Marvin  02231216192D 0   1.00000     0.00000     0

 12 12  0  0  0  0  0  0  0  0999 V2000
   -5.0659   -0.9482    0.0000 N   0  0  0  0  0  0  0  0  0
   -4.5138   -0.3351    0.0000 C   0  0  0  0  0  0  0  0  0
   -3.7602   -0.6707    0.0000 C   0  0  0  0  0  0  0  0  0
   -3.8464   -1.4911    0.0000 N   0  0  0  0  0  0  0  0  0
   -4.6534   -1.6627    0.0000 C   0  0  0  0  0  0  0  0  0
   -3.0457   -0.2582    0.0000 C   0  0  0  0  0  0  0  0  0
   -2.3312   -0.6707    0.0000 C   0  0  0  0  0  0  0  0  0
   -1.6167   -0.2582    0.0000 C   0  0  0  0  0  0  0  0  0
   -0.9023   -0.6707    0.0000 C   0  0  0  0  0  0  0  0  0
   -0.1878   -0.2582    0.0000 N   0  0  0  0  0  0  0  0  0
    0.5267   -0.6707    0.0000 C   0  0  0  0  0  0  0  0  0
    1.2411   -0.2582    0.0000 C   0  0  0  0  0  0  0  0  0
  1  2  4  0  0  0  0
  1  5  4  0  0  0  0
  2  3  4  0  0  0  0
  3  4  4  0  0  0  0
  3  6  1  0  0  0  0
  4  5  4  0  0  0  0
  6  7  1  0  0  0  0
  7  8  1  0  0  0  0
  8  9  1  0  0  0  0
  9 10  1  0  0  0  0
 10 11  1  0  0  0  0
 11 12  1  0  0  0  0
M  STY  1   1 DAT
M  SAL   1  1   1
M  SDT   1 MRV_IMPLICIT_H                                        
M  SDD   1     0.0000    0.0000    DR    ALL  0       0  
M  SED   1 IMPL_H1
M  END
>  <Name_Molregno>
343078

>  <HISTAMINE H3>
7.6

>  <HISTAMINE H4>
7

$$$$
343079
  Marvin  02231216192D 0   1.00000     0.00000     0

 13 13  0  0  0  0  0  0  0  0999 V2000
   -5.2836    0.2619    0.0000 N   0  0  0  0  0  0  0  0  0
   -4.4767    0.0904    0.0000 C   0  0  0  0  0  0  0  0  0
   -4.3904   -0.7301    0.0000 C   0  0  0  0  0  0  0  0  0
   -5.1441   -1.0657    0.0000 N   0  0  0  0  0  0  0  0  0
   -5.6961   -0.4526    0.0000 C   0  0  0  0  0  0  0  0  0
   -3.6760   -1.1426    0.0000 C   0  0  0  0  0  0  0  0  0
   -2.9615   -0.7301    0.0000 C   0  0  0  0  0  0  0  0  0
   -2.2470   -1.1426    0.0000 C   0  0  0  0  0  0  0  0  0
   -1.5325   -0.7301    0.0000 C   0  0  0  0  0  0  0  0  0
   -0.8181   -1.1426    0.0000 N   0  0  0  0  0  0  0  0  0
   -0.1036   -0.7301    0.0000 C   0  0  0  0  0  0  0  0  0
    0.6109   -1.1426    0.0000 C   0  0  0  0  0  0  0  0  0
    1.3253   -0.7301    0.0000 C   0  0  0  0  0  0  0  0  0
  1  2  4  0  0  0  0
  1  5  4  0  0  0  0
  2  3  4  0  0  0  0
  3  4  4  0  0  0  0
  3  6  1  0  0  0  0
  4  5  4  0  0  0  0
  6  7  1  0  0  0  0
  7  8  1  0  0  0  0
  8  9  1  0  0  0  0
  9 10  1  0  0  0  0
 10 11  1  0  0  0  0
 11 12  1  0  0  0  0
 12 13  1  0  0  0  0
M  STY  1   1 DAT
M  SAL   1  1   1
M  SDT   1 MRV_IMPLICIT_H                                        
M  SDD   1     0.0000    0.0000    DR    ALL  0       0  
M  SED   1 IMPL_H1
M  END
>  <Name_Molregno>
343079

>  <HISTAMINE H3>
8.1

>  <HISTAMINE H4>
7.3

$$$$
343080
  Marvin  02231216192D 0   1.00000     0.00000     0

 13 13  0  0  0  0  0  0  0  0999 V2000
   -5.4582   -0.9333    0.0000 N   0  0  0  0  0  0  0  0  0
   -4.9062   -0.3202    0.0000 C   0  0  0  0  0  0  0  0  0
   -4.1525   -0.6558    0.0000 C   0  0  0  0  0  0  0  0  0
   -4.2387   -1.4762    0.0000 N   0  0  0  0  0  0  0  0  0
   -5.0457   -1.6478    0.0000 C   0  0  0  0  0  0  0  0  0
   -3.4380   -0.2433    0.0000 C   0  0  0  0  0  0  0  0  0
   -2.7236   -0.6558    0.0000 C   0  0  0  0  0  0  0  0  0
   -2.0091   -0.2433    0.0000 C   0  0  0  0  0  0  0  0  0
   -1.2946   -0.6558    0.0000 C   0  0  0  0  0  0  0  0  0
   -0.5802   -0.2433    0.0000 N   0  0  0  0  0  0  0  0  0
    0.1343   -0.6558    0.0000 C   0  0  0  0  0  0  0  0  0
    0.8488   -0.2433    0.0000 C   0  0  0  0  0  0  0  0  0
    0.1343   -1.4808    0.0000 C   0  0  0  0  0  0  0  0  0
  1  2  4  0  0  0  0
  1  5  4  0  0  0  0
  2  3  4  0  0  0  0
  3  4  4  0  0  0  0
  3  6  1  0  0  0  0
  4  5  4  0  0  0  0
  6  7  1  0  0  0  0
  7  8  1  0  0  0  0
  8  9  1  0  0  0  0
  9 10  1  0  0  0  0
 10 11  1  0  0  0  0
 11 12  1  0  0  0  0
 11 13  1  0  0  0  0
M  STY  1   1 DAT
M  SAL   1  1   1
M  SDT   1 MRV_IMPLICIT_H                                        
M  SDD   1     0.0000    0.0000    DR    ALL  0       0  
M  SED   1 IMPL_H1
M  END
>  <Name_Molregno>
343080

>  <HISTAMINE H3>
7.1

>  <HISTAMINE H4>
6.7

$$$$
343260
  Marvin  02231216192D 0   1.00000     0.00000     0

 14 14  0  0  0  0  0  0  0  0999 V2000
   -0.0751   -0.3064    0.0000 N   0  0  0  0  0  0  0  0  0
    0.4770    0.3067    0.0000 C   0  0  0  0  0  0  0  0  0
    1.2306   -0.0289    0.0000 C   0  0  0  0  0  0  0  0  0
    1.1444   -0.8493    0.0000 N   0  0  0  0  0  0  0  0  0
    0.3374   -1.0209    0.0000 C   0  0  0  0  0  0  0  0  0
    1.9451    0.3836    0.0000 C   0  0  0  0  0  0  0  0  0
    2.6596   -0.0289    0.0000 C   0  0  0  0  0  0  0  0  0
    3.3741    0.3836    0.0000 C   0  0  0  0  0  0  0  0  0
    4.0885   -0.0289    0.0000 C   0  0  0  0  0  0  0  0  0
    4.8030    0.3836    0.0000 N   0  0  0  0  0  0  0  0  0
    5.5175   -0.0289    0.0000 C   0  0  0  0  0  0  0  0  0
    6.2319    0.3836    0.0000 C   0  0  0  0  0  0  0  0  0
    6.9464   -0.0289    0.0000 C   0  0  0  0  0  0  0  0  0
    7.6609    0.3836    0.0000 C   0  0  0  0  0  0  0  0  0
  1  2  4  0  0  0  0
  1  5  4  0  0  0  0
  2  3  4  0  0  0  0
  3  4  4  0  0  0  0
  3  6  1  0  0  0  0
  4  5  4  0  0  0  0
  6  7  1  0  0  0  0
  7  8  1  0  0  0  0
  8  9  1  0  0  0  0
  9 10  1  0  0  0  0
 10 11  1  0  0  0  0
 11 12  1  0  0  0  0
 12 13  1  0  0  0  0
 13 14  1  0  0  0  0
M  STY  1   1 DAT
M  SAL   1  1   1
M  SDT   1 MRV_IMPLICIT_H                                        
M  SDD   1     0.0000    0.0000    DR    ALL  0       0  
M  SED   1 IMPL_H1
M  END
>  <Name_Molregno>
343260

>  <HISTAMINE H3>
8.2

>  <HISTAMINE H4>
7.2

$$$$
343261
  Marvin  02231216192D 0   1.00000     0.00000     0

 14 14  0  0  0  0  0  0  0  0999 V2000
   -5.8486    1.2769    0.0000 N   0  0  0  0  0  0  0  0  0
   -5.0416    1.1054    0.0000 C   0  0  0  0  0  0  0  0  0
   -4.9553    0.2849    0.0000 C   0  0  0  0  0  0  0  0  0
   -5.7090   -0.0507    0.0000 N   0  0  0  0  0  0  0  0  0
   -6.2611    0.5624    0.0000 C   0  0  0  0  0  0  0  0  0
   -4.2409   -0.1276    0.0000 C   0  0  0  0  0  0  0  0  0
   -3.5264    0.2849    0.0000 C   0  0  0  0  0  0  0  0  0
   -2.8119   -0.1276    0.0000 C   0  0  0  0  0  0  0  0  0
   -2.0975    0.2849    0.0000 C   0  0  0  0  0  0  0  0  0
   -1.3830   -0.1276    0.0000 N   0  0  0  0  0  0  0  0  0
   -0.6685    0.2849    0.0000 C   0  0  0  0  0  0  0  0  0
    0.0460   -0.1276    0.0000 C   0  0  0  0  0  0  0  0  0
    0.7604    0.2849    0.0000 C   0  0  0  0  0  0  0  0  0
    0.0460   -0.9526    0.0000 C   0  0  0  0  0  0  0  0  0
  1  2  4  0  0  0  0
  1  5  4  0  0  0  0
  2  3  4  0  0  0  0
  3  4  4  0  0  0  0
  3  6  1  0  0  0  0
  4  5  4  0  0  0  0
  6  7  1  0  0  0  0
  7  8  1  0  0  0  0
  8  9  1  0  0  0  0
  9 10  1  0  0  0  0
 10 11  1  0  0  0  0
 11 12  1  0  0  0  0
 12 13  1  0  0  0  0
 12 14  1  0  0  0  0
M  STY  1   1 DAT
M  SAL   1  1   1
M  SDT   1 MRV_IMPLICIT_H                                        
M  SDD   1     0.0000    0.0000    DR    ALL  0       0  
M  SED   1 IMPL_H1
M  END
>  <Name_Molregno>
343261

>  <HISTAMINE H3>
8.5

>  <HISTAMINE H4>
7.1

$$$$
343262
  Marvin  02231216192D 0   1.00000     0.00000     0

 14 14  0  0  0  0  0  0  0  0999 V2000
   -5.4164    0.1943    0.0000 N   0  0  0  0  0  0  0  0  0
   -4.6094    0.0228    0.0000 C   0  0  0  0  0  0  0  0  0
   -4.5232   -0.7977    0.0000 C   0  0  0  0  0  0  0  0  0
   -5.2769   -1.1333    0.0000 N   0  0  0  0  0  0  0  0  0
   -5.8289   -0.5202    0.0000 C   0  0  0  0  0  0  0  0  0
   -3.8087   -1.2102    0.0000 C   0  0  0  0  0  0  0  0  0
   -3.0942   -0.7977    0.0000 C   0  0  0  0  0  0  0  0  0
   -2.3798   -1.2102    0.0000 C   0  0  0  0  0  0  0  0  0
   -1.6653   -0.7977    0.0000 C   0  0  0  0  0  0  0  0  0
   -0.9508   -1.2102    0.0000 N   0  0  0  0  0  0  0  0  0
   -0.2364   -0.7977    0.0000 C   0  0  0  0  0  0  0  0  0
    0.4781   -0.3852    0.0000 C   0  0  0  0  0  0  0  0  0
    0.1761   -1.5122    0.0000 C   0  0  0  0  0  0  0  0  0
   -0.6489   -0.0832    0.0000 C   0  0  0  0  0  0  0  0  0
  1  2  4  0  0  0  0
  1  5  4  0  0  0  0
  2  3  4  0  0  0  0
  3  4  4  0  0  0  0
  3  6  1  0  0  0  0
  4  5  4  0  0  0  0
  6  7  1  0  0  0  0
  7  8  1  0  0  0  0
  8  9  1  0  0  0  0
  9 10  1  0  0  0  0
 10 11  1  0  0  0  0
 11 12  1  0  0  0  0
 11 13  1  0  0  0  0
 11 14  1  0  0  0  0
M  STY  1   1 DAT
M  SAL   1  1   1
M  SDT   1 MRV_IMPLICIT_H                                        
M  SDD   1     0.0000    0.0000    DR    ALL  0       0  
M  SED   1 IMPL_H1
M  END
>  <Name_Molregno>
343262

>  <HISTAMINE H3>
6.2

>  <HISTAMINE H4>
6.1

$$$$
343263
  Marvin  02231216192D 0   1.00000     0.00000     0

 15 16  0  0  0  0  0  0  0  0999 V2000
   -0.0896   -0.0031    0.0000 N   0  0  0  0  0  0  0  0  0
    0.4624    0.6100    0.0000 C   0  0  0  0  0  0  0  0  0
    1.2161    0.2744    0.0000 C   0  0  0  0  0  0  0  0  0
    1.1299   -0.5461    0.0000 N   0  0  0  0  0  0  0  0  0
    0.3229   -0.7176    0.0000 C   0  0  0  0  0  0  0  0  0
    1.9306    0.6869    0.0000 C   0  0  0  0  0  0  0  0  0
    2.6450    0.2744    0.0000 C   0  0  0  0  0  0  0  0  0
    3.3595    0.6869    0.0000 C   0  0  0  0  0  0  0  0  0
    4.0740    0.2744    0.0000 C   0  0  0  0  0  0  0  0  0
    4.7884    0.6869    0.0000 N   0  0  0  0  0  0  0  0  0
    5.5029    0.2744    0.0000 C   0  0  0  0  0  0  0  0  0
    6.2566    0.6100    0.0000 C   0  0  0  0  0  0  0  0  0
    6.8086   -0.0031    0.0000 C   0  0  0  0  0  0  0  0  0
    6.3961   -0.7176    0.0000 C   0  0  0  0  0  0  0  0  0
    5.5891   -0.5461    0.0000 C   0  0  0  0  0  0  0  0  0
  1  2  4  0  0  0  0
  1  5  4  0  0  0  0
  2  3  4  0  0  0  0
  3  4  4  0  0  0  0
  3  6  1  0  0  0  0
  4  5  4  0  0  0  0
  6  7  1  0  0  0  0
  7  8  1  0  0  0  0
  8  9  1  0  0  0  0
  9 10  1  0  0  0  0
 10 11  1  0  0  0  0
 11 12  1  0  0  0  0
 11 15  1  0  0  0  0
 12 13  1  0  0  0  0
 13 14  1  0  0  0  0
 14 15  1  0  0  0  0
M  STY  1   1 DAT
M  SAL   1  1   1
M  SDT   1 MRV_IMPLICIT_H                                        
M  SDD   1     0.0000    0.0000    DR    ALL  0       0  
M  SED   1 IMPL_H1
M  END
>  <Name_Molregno>
343263

>  <HISTAMINE H3>
7.4

>  <HISTAMINE H4>
7.4

$$$$
343274
  Marvin  02231216192D 0   1.00000     0.00000     0

 16 17  0  0  0  0  0  0  0  0999 V2000
   -6.8107   -0.9314    0.0000 N   0  0  0  0  0  0  0  0  0
   -6.2586   -0.3183    0.0000 C   0  0  0  0  0  0  0  0  0
   -5.5050   -0.6538    0.0000 C   0  0  0  0  0  0  0  0  0
   -5.5912   -1.4743    0.0000 N   0  0  0  0  0  0  0  0  0
   -6.3982   -1.6458    0.0000 C   0  0  0  0  0  0  0  0  0
   -4.7905   -0.2413    0.0000 C   0  0  0  0  0  0  0  0  0
   -4.0760   -0.6538    0.0000 C   0  0  0  0  0  0  0  0  0
   -3.3616   -0.2413    0.0000 C   0  0  0  0  0  0  0  0  0
   -2.6471   -0.6538    0.0000 C   0  0  0  0  0  0  0  0  0
   -1.9326   -0.2413    0.0000 N   0  0  0  0  0  0  0  0  0
   -1.2181   -0.6538    0.0000 C   0  0  0  0  0  0  0  0  0
   -0.5037   -0.2413    0.0000 C   0  0  0  0  0  0  0  0  0
    0.2108   -0.6538    0.0000 C   0  0  0  0  0  0  0  0  0
    0.2108   -1.4788    0.0000 C   0  0  0  0  0  0  0  0  0
   -0.5037   -1.8913    0.0000 C   0  0  0  0  0  0  0  0  0
   -1.2181   -1.4788    0.0000 C   0  0  0  0  0  0  0  0  0
  1  2  4  0  0  0  0
  1  5  4  0  0  0  0
  2  3  4  0  0  0  0
  3  4  4  0  0  0  0
  3  6  1  0  0  0  0
  4  5  4  0  0  0  0
  6  7  1  0  0  0  0
  7  8  1  0  0  0  0
  8  9  1  0  0  0  0
  9 10  1  0  0  0  0
 10 11  1  0  0  0  0
 11 12  1  0  0  0  0
 11 16  1  0  0  0  0
 12 13  1  0  0  0  0
 13 14  1  0  0  0  0
 14 15  1  0  0  0  0
 15 16  1  0  0  0  0
M  STY  1   1 DAT
M  SAL   1  1   1
M  SDT   1 MRV_IMPLICIT_H                                        
M  SDD   1     0.0000    0.0000    DR    ALL  0       0  
M  SED   1 IMPL_H1
M  END
>  <Name_Molregno>
343274

>  <HISTAMINE H3>
7.5

>  <HISTAMINE H4>
7

$$$$
343379
  Marvin  02231216192D 0   1.00000     0.00000     0

 17 18  0  0  0  0  0  0  0  0999 V2000
   -7.1934    0.8102    0.0000 N   0  0  0  0  0  0  0  0  0
   -6.6413    1.4233    0.0000 C   0  0  0  0  0  0  0  0  0
   -5.8876    1.0877    0.0000 C   0  0  0  0  0  0  0  0  0
   -5.9739    0.2673    0.0000 N   0  0  0  0  0  0  0  0  0
   -6.7809    0.0957    0.0000 C   0  0  0  0  0  0  0  0  0
   -5.1732    1.5002    0.0000 C   0  0  0  0  0  0  0  0  0
   -4.4587    1.0877    0.0000 C   0  0  0  0  0  0  0  0  0
   -3.7442    1.5002    0.0000 C   0  0  0  0  0  0  0  0  0
   -3.0298    1.0877    0.0000 C   0  0  0  0  0  0  0  0  0
   -2.3153    1.5002    0.0000 N   0  0  0  0  0  0  0  0  0
   -1.6008    1.0877    0.0000 C   0  0  0  0  0  0  0  0  0
   -0.9192    1.5525    0.0000 C   0  0  0  0  0  0  0  0  0
   -0.1308    1.3093    0.0000 C   0  0  0  0  0  0  0  0  0
    0.1706    0.5413    0.0000 C   0  0  0  0  0  0  0  0  0
   -0.2419   -0.1731    0.0000 C   0  0  0  0  0  0  0  0  0
   -1.0577   -0.2961    0.0000 C   0  0  0  0  0  0  0  0  0
   -1.6625    0.2650    0.0000 C   0  0  0  0  0  0  0  0  0
  1  2  4  0  0  0  0
  1  5  4  0  0  0  0
  2  3  4  0  0  0  0
  3  4  4  0  0  0  0
  3  6  1  0  0  0  0
  4  5  4  0  0  0  0
  6  7  1  0  0  0  0
  7  8  1  0  0  0  0
  8  9  1  0  0  0  0
  9 10  1  0  0  0  0
 10 11  1  0  0  0  0
 11 12  1  0  0  0  0
 11 17  1  0  0  0  0
 12 13  1  0  0  0  0
 13 14  1  0  0  0  0
 14 15  1  0  0  0  0
 15 16  1  0  0  0  0
 16 17  1  0  0  0  0
M  STY  1   1 DAT
M  SAL   1  1   1
M  SDT   1 MRV_IMPLICIT_H                                        
M  SDD   1     0.0000    0.0000    DR    ALL  0       0  
M  SED   1 IMPL_H1
M  END
>  <Name_Molregno>
343379

>  <HISTAMINE H3>
7.4

>  <HISTAMINE H4>
7.3

$$$$
343468
  Marvin  02231216192D 0   1.00000     0.00000     0

 13 13  0  0  0  0  0  0  0  0999 V2000
   -5.2836    0.2619    0.0000 N   0  0  0  0  0  0  0  0  0
   -4.4767    0.0904    0.0000 C   0  0  0  0  0  0  0  0  0
   -4.3904   -0.7301    0.0000 C   0  0  0  0  0  0  0  0  0
   -5.1441   -1.0657    0.0000 N   0  0  0  0  0  0  0  0  0
   -5.6961   -0.4526    0.0000 C   0  0  0  0  0  0  0  0  0
   -3.6760   -1.1426    0.0000 C   0  0  0  0  0  0  0  0  0
   -2.9615   -0.7301    0.0000 C   0  0  0  0  0  0  0  0  0
   -2.2470   -1.1426    0.0000 C   0  0  0  0  0  0  0  0  0
   -1.5325   -0.7301    0.0000 C   0  0  0  0  0  0  0  0  0
   -0.8181   -1.1426    0.0000 C   0  0  0  0  0  0  0  0  0
   -0.1036   -0.7301    0.0000 N   0  0  0  0  0  0  0  0  0
    0.6109   -1.1426    0.0000 C   0  0  0  0  0  0  0  0  0
    1.3253   -0.7301    0.0000 C   0  0  0  0  0  0  0  0  0
  1  2  4  0  0  0  0
  1  5  4  0  0  0  0
  2  3  4  0  0  0  0
  3  4  4  0  0  0  0
  3  6  1  0  0  0  0
  4  5  4  0  0  0  0
  6  7  1  0  0  0  0
  7  8  1  0  0  0  0
  8  9  1  0  0  0  0
  9 10  1  0  0  0  0
 10 11  1  0  0  0  0
 11 12  1  0  0  0  0
 12 13  1  0  0  0  0
M  STY  1   1 DAT
M  SAL   1  1   1
M  SDT   1 MRV_IMPLICIT_H                                        
M  SDD   1     0.0000    0.0000    DR    ALL  0       0  
M  SED   1 IMPL_H1
M  END
>  <Name_Molregno>
343468

>  <HISTAMINE H3>
8.1

>  <HISTAMINE H4>
6.5

$$$$
343469
  Marvin  02231216192D 0   1.00000     0.00000     0

 14 14  0  0  0  0  0  0  0  0999 V2000
   -6.4172   -0.7073    0.0000 N   0  0  0  0  0  0  0  0  0
   -5.8651   -0.0942    0.0000 C   0  0  0  0  0  0  0  0  0
   -5.1114   -0.4298    0.0000 C   0  0  0  0  0  0  0  0  0
   -5.1977   -1.2503    0.0000 N   0  0  0  0  0  0  0  0  0
   -6.0047   -1.4218    0.0000 C   0  0  0  0  0  0  0  0  0
   -4.3970   -0.0173    0.0000 C   0  0  0  0  0  0  0  0  0
   -3.6825   -0.4298    0.0000 C   0  0  0  0  0  0  0  0  0
   -2.9680   -0.0173    0.0000 C   0  0  0  0  0  0  0  0  0
   -2.2536   -0.4298    0.0000 C   0  0  0  0  0  0  0  0  0
   -1.5391   -0.0173    0.0000 C   0  0  0  0  0  0  0  0  0
   -0.8246   -0.4298    0.0000 N   0  0  0  0  0  0  0  0  0
   -0.1101   -0.0173    0.0000 C   0  0  0  0  0  0  0  0  0
    0.6043   -0.4298    0.0000 C   0  0  0  0  0  0  0  0  0
    1.3188   -0.0173    0.0000 C   0  0  0  0  0  0  0  0  0
  1  2  4  0  0  0  0
  1  5  4  0  0  0  0
  2  3  4  0  0  0  0
  3  4  4  0  0  0  0
  3  6  1  0  0  0  0
  4  5  4  0  0  0  0
  6  7  1  0  0  0  0
  7  8  1  0  0  0  0
  8  9  1  0  0  0  0
  9 10  1  0  0  0  0
 10 11  1  0  0  0  0
 11 12  1  0  0  0  0
 12 13  1  0  0  0  0
 13 14  1  0  0  0  0
M  STY  1   1 DAT
M  SAL   1  1   1
M  SDT   1 MRV_IMPLICIT_H                                        
M  SDD   1     0.0000    0.0000    DR    ALL  0       0  
M  SED   1 IMPL_H1
M  END
>  <Name_Molregno>
343469

>  <HISTAMINE H3>
8.3

>  <HISTAMINE H4>
6.8

$$$$
343470
  Marvin  02231216192D 0   1.00000     0.00000     0

 14 14  0  0  0  0  0  0  0  0999 V2000
   -5.8486    1.2769    0.0000 N   0  0  0  0  0  0  0  0  0
   -5.0416    1.1054    0.0000 C   0  0  0  0  0  0  0  0  0
   -4.9553    0.2849    0.0000 C   0  0  0  0  0  0  0  0  0
   -5.7090   -0.0507    0.0000 N   0  0  0  0  0  0  0  0  0
   -6.2611    0.5624    0.0000 C   0  0  0  0  0  0  0  0  0
   -4.2409   -0.1276    0.0000 C   0  0  0  0  0  0  0  0  0
   -3.5264    0.2849    0.0000 C   0  0  0  0  0  0  0  0  0
   -2.8119   -0.1276    0.0000 C   0  0  0  0  0  0  0  0  0
   -2.0975    0.2849    0.0000 C   0  0  0  0  0  0  0  0  0
   -1.3830   -0.1276    0.0000 C   0  0  0  0  0  0  0  0  0
   -0.6685    0.2849    0.0000 N   0  0  0  0  0  0  0  0  0
    0.0460   -0.1276    0.0000 C   0  0  0  0  0  0  0  0  0
    0.7604    0.2849    0.0000 C   0  0  0  0  0  0  0  0  0
    0.0460   -0.9526    0.0000 C   0  0  0  0  0  0  0  0  0
  1  2  4  0  0  0  0
  1  5  4  0  0  0  0
  2  3  4  0  0  0  0
  3  4  4  0  0  0  0
  3  6  1  0  0  0  0
  4  5  4  0  0  0  0
  6  7  1  0  0  0  0
  7  8  1  0  0  0  0
  8  9  1  0  0  0  0
  9 10  1  0  0  0  0
 10 11  1  0  0  0  0
 11 12  1  0  0  0  0
 12 13  1  0  0  0  0
 12 14  1  0  0  0  0
M  STY  1   1 DAT
M  SAL   1  1   1
M  SDT   1 MRV_IMPLICIT_H                                        
M  SDD   1     0.0000    0.0000    DR    ALL  0       0  
M  SED   1 IMPL_H1
M  END
>  <Name_Molregno>
343470

>  <HISTAMINE H3>
7.9

>  <HISTAMINE H4>
6.9

$$$$
343479
  Marvin  02231216192D 0   1.00000     0.00000     0

 15 15  0  0  0  0  0  0  0  0999 V2000
   -6.6637    0.6599    0.0000 N   0  0  0  0  0  0  0  0  0
   -5.8567    0.4884    0.0000 C   0  0  0  0  0  0  0  0  0
   -5.7705   -0.3321    0.0000 C   0  0  0  0  0  0  0  0  0
   -6.5242   -0.6676    0.0000 N   0  0  0  0  0  0  0  0  0
   -7.0762   -0.0545    0.0000 C   0  0  0  0  0  0  0  0  0
   -5.0560   -0.7446    0.0000 C   0  0  0  0  0  0  0  0  0
   -4.3416   -0.3321    0.0000 C   0  0  0  0  0  0  0  0  0
   -3.6271   -0.7446    0.0000 C   0  0  0  0  0  0  0  0  0
   -2.9126   -0.3321    0.0000 C   0  0  0  0  0  0  0  0  0
   -2.1981   -0.7446    0.0000 C   0  0  0  0  0  0  0  0  0
   -1.4837   -0.3321    0.0000 N   0  0  0  0  0  0  0  0  0
   -0.7692   -0.7446    0.0000 C   0  0  0  0  0  0  0  0  0
   -0.0547   -0.3321    0.0000 C   0  0  0  0  0  0  0  0  0
    0.6597   -0.7446    0.0000 C   0  0  0  0  0  0  0  0  0
    1.3742   -0.3321    0.0000 C   0  0  0  0  0  0  0  0  0
  1  2  4  0  0  0  0
  1  5  4  0  0  0  0
  2  3  4  0  0  0  0
  3  4  4  0  0  0  0
  3  6  1  0  0  0  0
  4  5  4  0  0  0  0
  6  7  1  0  0  0  0
  7  8  1  0  0  0  0
  8  9  1  0  0  0  0
  9 10  1  0  0  0  0
 10 11  1  0  0  0  0
 11 12  1  0  0  0  0
 12 13  1  0  0  0  0
 13 14  1  0  0  0  0
 14 15  1  0  0  0  0
M  STY  1   1 DAT
M  SAL   1  1   1
M  SDT   1 MRV_IMPLICIT_H                                        
M  SDD   1     0.0000    0.0000    DR    ALL  0       0  
M  SED   1 IMPL_H1
M  END
>  <Name_Molregno>
343479

>  <HISTAMINE H3>
8.4

>  <HISTAMINE H4>
6.7

$$$$
343530
  Marvin  02231216192D 0   1.00000     0.00000     0

 18 19  0  0  0  0  0  0  0  0999 V2000
    0.0583    0.8140    0.0000 Cl  0  0  0  0  0  0  0  0  0
    0.7728    0.4015    0.0000 C   0  0  0  0  0  0  0  0  0
    1.4872    0.8140    0.0000 C   0  0  0  0  0  0  0  0  0
    2.2017    0.4015    0.0000 C   0  0  0  0  0  0  0  0  0
    2.2017   -0.4235    0.0000 C   0  0  0  0  0  0  0  0  0
    1.4872   -0.8360    0.0000 C   0  0  0  0  0  0  0  0  0
    0.7728   -0.4235    0.0000 C   0  0  0  0  0  0  0  0  0
    2.9162   -0.8360    0.0000 C   0  0  0  0  0  0  0  0  0
    3.6307   -0.4235    0.0000 N   0  0  0  0  0  0  0  0  0
    4.3451   -0.8360    0.0000 C   0  0  0  0  0  0  0  0  0
    5.0596   -0.4235    0.0000 C   0  0  0  0  0  0  0  0  0
    5.7741   -0.8360    0.0000 C   0  0  0  0  0  0  0  0  0
    6.4885   -0.4235    0.0000 C   0  0  0  0  0  0  0  0  0
    7.2030   -0.8360    0.0000 C   0  0  0  0  0  0  0  0  0
    7.9567   -0.5005    0.0000 N   0  0  0  0  0  0  0  0  0
    8.5087   -1.1136    0.0000 C   0  0  0  0  0  0  0  0  0
    8.0962   -1.8280    0.0000 N   0  0  0  0  0  0  0  0  0
    7.2892   -1.6565    0.0000 C   0  0  0  0  0  0  0  0  0
  1  2  1  0  0  0  0
  2  3  4  0  0  0  0
  2  7  4  0  0  0  0
  3  4  4  0  0  0  0
  4  5  4  0  0  0  0
  5  6  4  0  0  0  0
  5  8  1  0  0  0  0
  6  7  4  0  0  0  0
  8  9  1  0  0  0  0
  9 10  1  0  0  0  0
 10 11  1  0  0  0  0
 11 12  1  0  0  0  0
 12 13  1  0  0  0  0
 13 14  1  0  0  0  0
 14 15  4  0  0  0  0
 14 18  4  0  0  0  0
 15 16  4  0  0  0  0
 16 17  4  0  0  0  0
 17 18  4  0  0  0  0
M  STY  1   1 DAT
M  SAL   1  1  17
M  SDT   1 MRV_IMPLICIT_H                                        
M  SDD   1     0.0000    0.0000    DR    ALL  0       0  
M  SED   1 IMPL_H1
M  END
>  <Name_Molregno>
343530

>  <HISTAMINE H3>
7.8

>  <HISTAMINE H4>
7.7

$$$$
343531
  Marvin  02231216192D 0   1.00000     0.00000     0

 12 12  0  0  0  0  0  0  0  0999 V2000
   -4.4680    0.4251    0.0000 N   0  0  0  0  0  0  0  0  0
   -3.6611    0.2536    0.0000 C   0  0  0  0  0  0  0  0  0
   -3.5748   -0.5669    0.0000 C   0  0  0  0  0  0  0  0  0
   -4.3285   -0.9025    0.0000 N   0  0  0  0  0  0  0  0  0
   -4.8805   -0.2894    0.0000 C   0  0  0  0  0  0  0  0  0
   -2.8604   -0.9794    0.0000 C   0  0  0  0  0  0  0  0  0
   -2.1459   -0.5669    0.0000 C   0  0  0  0  0  0  0  0  0
   -1.4314   -0.9794    0.0000 C   0  0  0  0  0  0  0  0  0
   -0.7169   -0.5669    0.0000 C   0  0  0  0  0  0  0  0  0
   -0.0025   -0.9794    0.0000 N   0  0  0  0  0  0  0  0  0
    0.7120   -0.5669    0.0000 C   0  0  0  0  0  0  0  0  0
   -0.0025   -1.8044    0.0000 C   0  0  0  0  0  0  0  0  0
  1  2  4  0  0  0  0
  1  5  4  0  0  0  0
  2  3  4  0  0  0  0
  3  4  4  0  0  0  0
  3  6  1  0  0  0  0
  4  5  4  0  0  0  0
  6  7  1  0  0  0  0
  7  8  1  0  0  0  0
  8  9  1  0  0  0  0
  9 10  1  0  0  0  0
 10 11  1  0  0  0  0
 10 12  1  0  0  0  0
M  STY  1   1 DAT
M  SAL   1  1   1
M  SDT   1 MRV_IMPLICIT_H                                        
M  SDD   1     0.0000    0.0000    DR    ALL  0       0  
M  SED   1 IMPL_H1
M  END
>  <Name_Molregno>
343531

>  <HISTAMINE H3>
8.5

>  <HISTAMINE H4>
6.1

$$$$
343532
  Marvin  02231216192D 0   1.00000     0.00000     0

 14 14  0  0  0  0  0  0  0  0999 V2000
    0.0086    0.5321    0.0000 N   0  0  0  0  0  0  0  0  0
    0.7933    0.7871    0.0000 C   0  0  0  0  0  0  0  0  0
    1.2782    0.1196    0.0000 C   0  0  0  0  0  0  0  0  0
    0.7933   -0.5478    0.0000 N   0  0  0  0  0  0  0  0  0
    0.0086   -0.2929    0.0000 C   0  0  0  0  0  0  0  0  0
    2.1032    0.1196    0.0000 C   0  0  0  0  0  0  0  0  0
    2.5157   -0.5948    0.0000 C   0  0  0  0  0  0  0  0  0
    3.3407   -0.5948    0.0000 C   0  0  0  0  0  0  0  0  0
    3.7532   -1.3093    0.0000 C   0  0  0  0  0  0  0  0  0
    4.5782   -1.3093    0.0000 N   0  0  0  0  0  0  0  0  0
    4.9907   -2.0238    0.0000 C   0  0  0  0  0  0  0  0  0
    5.8157   -2.0238    0.0000 C   0  0  0  0  0  0  0  0  0
    4.9907   -0.5948    0.0000 C   0  0  0  0  0  0  0  0  0
    5.8157   -0.5948    0.0000 C   0  0  0  0  0  0  0  0  0
  1  2  4  0  0  0  0
  1  5  4  0  0  0  0
  2  3  4  0  0  0  0
  3  4  4  0  0  0  0
  3  6  1  0  0  0  0
  4  5  4  0  0  0  0
  6  7  1  0  0  0  0
  7  8  1  0  0  0  0
  8  9  1  0  0  0  0
  9 10  1  0  0  0  0
 10 11  1  0  0  0  0
 10 13  1  0  0  0  0
 11 12  1  0  0  0  0
 13 14  1  0  0  0  0
M  STY  1   1 DAT
M  SAL   1  1   1
M  SDT   1 MRV_IMPLICIT_H                                        
M  SDD   1     0.0000    0.0000    DR    ALL  0       0  
M  SED   1 IMPL_H1
M  END
>  <Name_Molregno>
343532

>  <HISTAMINE H3>
7

>  <HISTAMINE H4>
6.5

$$$$
343533
  Marvin  02231216192D 0   1.00000     0.00000     0

 14 15  0  0  0  0  0  0  0  0999 V2000
    0.3632    1.0132    0.0000 N   0  0  0  0  0  0  0  0  0
    1.1702    0.8416    0.0000 C   0  0  0  0  0  0  0  0  0
    1.2564    0.0212    0.0000 C   0  0  0  0  0  0  0  0  0
    0.5027   -0.3144    0.0000 N   0  0  0  0  0  0  0  0  0
   -0.0493    0.2987    0.0000 C   0  0  0  0  0  0  0  0  0
    1.9709   -0.3913    0.0000 C   0  0  0  0  0  0  0  0  0
    2.6854    0.0212    0.0000 C   0  0  0  0  0  0  0  0  0
    3.3998   -0.3913    0.0000 C   0  0  0  0  0  0  0  0  0
    4.1143    0.0212    0.0000 C   0  0  0  0  0  0  0  0  0
    4.8288   -0.3913    0.0000 N   0  0  0  0  0  0  0  0  0
    5.5824   -0.0558    0.0000 C   0  0  0  0  0  0  0  0  0
    6.1345   -0.6689    0.0000 C   0  0  0  0  0  0  0  0  0
    5.7220   -1.3833    0.0000 C   0  0  0  0  0  0  0  0  0
    4.9150   -1.2118    0.0000 C   0  0  0  0  0  0  0  0  0
  1  2  4  0  0  0  0
  1  5  4  0  0  0  0
  2  3  4  0  0  0  0
  3  4  4  0  0  0  0
  3  6  1  0  0  0  0
  4  5  4  0  0  0  0
  6  7  1  0  0  0  0
  7  8  1  0  0  0  0
  8  9  1  0  0  0  0
  9 10  1  0  0  0  0
 10 11  1  0  0  0  0
 10 14  1  0  0  0  0
 11 12  1  0  0  0  0
 12 13  1  0  0  0  0
 13 14  1  0  0  0  0
M  STY  1   1 DAT
M  SAL   1  1   1
M  SDT   1 MRV_IMPLICIT_H                                        
M  SDD   1     0.0000    0.0000    DR    ALL  0       0  
M  SED   1 IMPL_H1
M  END
>  <Name_Molregno>
343533

>  <HISTAMINE H3>
7.4

>  <HISTAMINE H4>
6.3

$$$$
343539
  Marvin  02231216192D 0   1.00000     0.00000     0

 15 16  0  0  0  0  0  0  0  0999 V2000
   -5.9401    1.4341    0.0000 N   0  0  0  0  0  0  0  0  0
   -5.1331    1.2626    0.0000 C   0  0  0  0  0  0  0  0  0
   -5.0469    0.4421    0.0000 C   0  0  0  0  0  0  0  0  0
   -5.8006    0.1065    0.0000 N   0  0  0  0  0  0  0  0  0
   -6.3526    0.7196    0.0000 C   0  0  0  0  0  0  0  0  0
   -4.3324    0.0296    0.0000 C   0  0  0  0  0  0  0  0  0
   -3.6179    0.4421    0.0000 C   0  0  0  0  0  0  0  0  0
   -2.9035    0.0296    0.0000 C   0  0  0  0  0  0  0  0  0
   -2.1890    0.4421    0.0000 C   0  0  0  0  0  0  0  0  0
   -1.4745    0.0296    0.0000 N   0  0  0  0  0  0  0  0  0
   -0.7601    0.4421    0.0000 C   0  0  0  0  0  0  0  0  0
   -0.0456    0.0296    0.0000 C   0  0  0  0  0  0  0  0  0
   -0.0456   -0.7954    0.0000 C   0  0  0  0  0  0  0  0  0
   -0.7601   -1.2079    0.0000 C   0  0  0  0  0  0  0  0  0
   -1.4745   -0.7954    0.0000 C   0  0  0  0  0  0  0  0  0
  1  2  4  0  0  0  0
  1  5  4  0  0  0  0
  2  3  4  0  0  0  0
  3  4  4  0  0  0  0
  3  6  1  0  0  0  0
  4  5  4  0  0  0  0
  6  7  1  0  0  0  0
  7  8  1  0  0  0  0
  8  9  1  0  0  0  0
  9 10  1  0  0  0  0
 10 11  1  0  0  0  0
 10 15  1  0  0  0  0
 11 12  1  0  0  0  0
 12 13  1  0  0  0  0
 13 14  1  0  0  0  0
 14 15  1  0  0  0  0
M  STY  1   1 DAT
M  SAL   1  1   1
M  SDT   1 MRV_IMPLICIT_H                                        
M  SDD   1     0.0000    0.0000    DR    ALL  0       0  
M  SED   1 IMPL_H1
M  END
>  <Name_Molregno>
343539

>  <HISTAMINE H3>
7.7

>  <HISTAMINE H4>
6.4

$$$$
343540
  Marvin  02231216192D 0   1.00000     0.00000     0

 16 17  0  0  0  0  0  0  0  0999 V2000
   -6.4899    0.8745    0.0000 N   0  0  0  0  0  0  0  0  0
   -5.6829    0.7030    0.0000 C   0  0  0  0  0  0  0  0  0
   -5.5967   -0.1175    0.0000 C   0  0  0  0  0  0  0  0  0
   -6.3504   -0.4531    0.0000 N   0  0  0  0  0  0  0  0  0
   -6.9024    0.1600    0.0000 C   0  0  0  0  0  0  0  0  0
   -4.8822   -0.5300    0.0000 C   0  0  0  0  0  0  0  0  0
   -4.1677   -0.1175    0.0000 C   0  0  0  0  0  0  0  0  0
   -3.4533   -0.5300    0.0000 C   0  0  0  0  0  0  0  0  0
   -2.7388   -0.1175    0.0000 C   0  0  0  0  0  0  0  0  0
   -2.0243   -0.5300    0.0000 N   0  0  0  0  0  0  0  0  0
   -1.3427   -0.0653    0.0000 C   0  0  0  0  0  0  0  0  0
   -0.5543   -0.3084    0.0000 C   0  0  0  0  0  0  0  0  0
   -0.2529   -1.0764    0.0000 C   0  0  0  0  0  0  0  0  0
   -0.6654   -1.7909    0.0000 C   0  0  0  0  0  0  0  0  0
   -1.4812   -1.9138    0.0000 C   0  0  0  0  0  0  0  0  0
   -2.0860   -1.3527    0.0000 C   0  0  0  0  0  0  0  0  0
  1  2  4  0  0  0  0
  1  5  4  0  0  0  0
  2  3  4  0  0  0  0
  3  4  4  0  0  0  0
  3  6  1  0  0  0  0
  4  5  4  0  0  0  0
  6  7  1  0  0  0  0
  7  8  1  0  0  0  0
  8  9  1  0  0  0  0
  9 10  1  0  0  0  0
 10 11  1  0  0  0  0
 10 16  1  0  0  0  0
 11 12  1  0  0  0  0
 12 13  1  0  0  0  0
 13 14  1  0  0  0  0
 14 15  1  0  0  0  0
 15 16  1  0  0  0  0
M  STY  1   1 DAT
M  SAL   1  1   1
M  SDT   1 MRV_IMPLICIT_H                                        
M  SDD   1     0.0000    0.0000    DR    ALL  0       0  
M  SED   1 IMPL_H1
M  END
>  <Name_Molregno>
343540

>  <HISTAMINE H3>
7.4

>  <HISTAMINE H4>
6.3

$$$$
344135
  Marvin  02231216192D 0   1.00000     0.00000     0

 20 22  0  0  0  0  0  0  0  0999 V2000
   -0.1944   -1.1376    0.0000 N   0  0  0  0  0  0  0  0  0
    0.2905   -1.8051    0.0000 C   0  0  0  0  0  0  0  0  0
    1.0752   -1.5501    0.0000 C   0  0  0  0  0  0  0  0  0
    1.0752   -0.7251    0.0000 C   0  0  0  0  0  0  0  0  0
    1.7896   -0.3126    0.0000 C   0  0  0  0  0  0  0  0  0
    2.5041   -0.7251    0.0000 C   0  0  0  0  0  0  0  0  0
    2.5041   -1.5501    0.0000 C   0  0  0  0  0  0  0  0  0
    1.7896   -1.9626    0.0000 C   0  0  0  0  0  0  0  0  0
    0.2905   -0.4702    0.0000 C   0  0  0  0  0  0  0  0  0
    0.0356    0.3144    0.0000 C   0  0  0  0  0  0  0  0  0
   -0.2193    1.0991    0.0000 N   0  0  0  0  0  0  0  0  0
   -1.0194   -1.1376    0.0000 C   0  0  0  0  0  0  0  0  0
   -1.4319   -0.4232    0.0000 C   0  0  0  0  0  0  0  0  0
   -2.2569   -0.4232    0.0000 C   0  0  0  0  0  0  0  0  0
   -2.6694    0.2913    0.0000 N   0  0  0  0  0  0  0  0  0
   -3.4944    0.2913    0.0000 C   0  0  0  0  0  0  0  0  0
   -3.9069    1.0058    0.0000 C   0  0  0  0  0  0  0  0  0
   -3.4944    1.7203    0.0000 C   0  0  0  0  0  0  0  0  0
   -2.6694    1.7203    0.0000 C   0  0  0  0  0  0  0  0  0
   -2.2569    1.0058    0.0000 C   0  0  0  0  0  0  0  0  0
  1  2  4  0  0  0  0
  1  9  4  0  0  0  0
  1 12  1  0  0  0  0
  2  3  4  0  0  0  0
  3  4  4  0  0  0  0
  3  8  4  0  0  0  0
  4  5  4  0  0  0  0
  4  9  4  0  0  0  0
  5  6  4  0  0  0  0
  6  7  4  0  0  0  0
  7  8  4  0  0  0  0
  9 10  1  0  0  0  0
 10 11  3  0  0  0  0
 12 13  1  0  0  0  0
 13 14  1  0  0  0  0
 14 15  1  0  0  0  0
 15 16  1  0  0  0  0
 15 20  1  0  0  0  0
 16 17  1  0  0  0  0
 17 18  1  0  0  0  0
 18 19  1  0  0  0  0
 19 20  1  0  0  0  0
M  END
>  <Name_Molregno>
344135

>  <HISTAMINE H3>
6.45

$$$$
344230
  Marvin  02231216192D 0   1.00000     0.00000     0

 21 23  0  0  0  0  0  0  0  0999 V2000
   -0.0245    0.2300    0.0000 N   0  0  0  0  0  0  0  0  0
   -0.1108    1.0504    0.0000 C   0  0  0  0  0  0  0  0  0
   -0.9177    1.2220    0.0000 C   0  0  0  0  0  0  0  0  0
   -1.3302    0.5075    0.0000 C   0  0  0  0  0  0  0  0  0
   -2.1552    0.5075    0.0000 C   0  0  0  0  0  0  0  0  0
   -2.5677    1.2220    0.0000 C   0  0  0  0  0  0  0  0  0
   -2.1552    1.9364    0.0000 C   0  0  0  0  0  0  0  0  0
   -1.3302    1.9364    0.0000 C   0  0  0  0  0  0  0  0  0
   -0.7782   -0.1056    0.0000 C   0  0  0  0  0  0  0  0  0
   -0.9497   -0.9126    0.0000 C   0  0  0  0  0  0  0  0  0
   -1.1212   -1.7195    0.0000 N   0  0  0  0  0  0  0  0  0
    0.6900   -0.1825    0.0000 C   0  0  0  0  0  0  0  0  0
    1.4044    0.2300    0.0000 C   0  0  0  0  0  0  0  0  0
    2.1189   -0.1825    0.0000 C   0  0  0  0  0  0  0  0  0
    2.8334    0.2300    0.0000 C   0  0  0  0  0  0  0  0  0
    3.5478   -0.1825    0.0000 N   0  0  0  0  0  0  0  0  0
    4.2623    0.2300    0.0000 C   0  0  0  0  0  0  0  0  0
    4.9768   -0.1825    0.0000 C   0  0  0  0  0  0  0  0  0
    4.9768   -1.0075    0.0000 C   0  0  0  0  0  0  0  0  0
    4.2623   -1.4200    0.0000 C   0  0  0  0  0  0  0  0  0
    3.5478   -1.0075    0.0000 C   0  0  0  0  0  0  0  0  0
  1  2  4  0  0  0  0
  1  9  4  0  0  0  0
  1 12  1  0  0  0  0
  2  3  4  0  0  0  0
  3  4  4  0  0  0  0
  3  8  4  0  0  0  0
  4  5  4  0  0  0  0
  4  9  4  0  0  0  0
  5  6  4  0  0  0  0
  6  7  4  0  0  0  0
  7  8  4  0  0  0  0
  9 10  1  0  0  0  0
 10 11  3  0  0  0  0
 12 13  1  0  0  0  0
 13 14  1  0  0  0  0
 14 15  1  0  0  0  0
 15 16  1  0  0  0  0
 16 17  1  0  0  0  0
 16 21  1  0  0  0  0
 17 18  1  0  0  0  0
 18 19  1  0  0  0  0
 19 20  1  0  0  0  0
 20 21  1  0  0  0  0
M  END
>  <Name_Molregno>
344230

>  <HISTAMINE H3>
6.75

$$$$
344231
  Marvin  02231216192D 0   1.00000     0.00000     0

 22 24  0  0  0  0  0  0  0  0999 V2000
   -2.6397    0.2941    0.0000 N   0  0  0  0  0  0  0  0  0
   -3.3934    0.6296    0.0000 C   0  0  0  0  0  0  0  0  0
   -3.9454    0.0166    0.0000 C   0  0  0  0  0  0  0  0  0
   -3.5329   -0.6979    0.0000 C   0  0  0  0  0  0  0  0  0
   -3.9454   -1.4124    0.0000 C   0  0  0  0  0  0  0  0  0
   -4.7704   -1.4124    0.0000 C   0  0  0  0  0  0  0  0  0
   -5.1829   -0.6979    0.0000 C   0  0  0  0  0  0  0  0  0
   -4.7704    0.0166    0.0000 C   0  0  0  0  0  0  0  0  0
   -2.7259   -0.5264    0.0000 C   0  0  0  0  0  0  0  0  0
   -2.1128   -1.0784    0.0000 C   0  0  0  0  0  0  0  0  0
   -1.4997   -1.6305    0.0000 N   0  0  0  0  0  0  0  0  0
   -1.9252    0.7066    0.0000 C   0  0  0  0  0  0  0  0  0
   -1.2107    0.2941    0.0000 C   0  0  0  0  0  0  0  0  0
   -0.4963    0.7066    0.0000 C   0  0  0  0  0  0  0  0  0
    0.2182    0.2941    0.0000 C   0  0  0  0  0  0  0  0  0
    0.9327    0.7066    0.0000 C   0  0  0  0  0  0  0  0  0
    1.6471    0.2941    0.0000 N   0  0  0  0  0  0  0  0  0
    2.3616    0.7066    0.0000 C   0  0  0  0  0  0  0  0  0
    3.0761    0.2941    0.0000 C   0  0  0  0  0  0  0  0  0
    3.0761   -0.5309    0.0000 C   0  0  0  0  0  0  0  0  0
    2.3616   -0.9434    0.0000 C   0  0  0  0  0  0  0  0  0
    1.6471   -0.5309    0.0000 C   0  0  0  0  0  0  0  0  0
  1  2  4  0  0  0  0
  1  9  4  0  0  0  0
  1 12  1  0  0  0  0
  2  3  4  0  0  0  0
  3  4  4  0  0  0  0
  3  8  4  0  0  0  0
  4  5  4  0  0  0  0
  4  9  4  0  0  0  0
  5  6  4  0  0  0  0
  6  7  4  0  0  0  0
  7  8  4  0  0  0  0
  9 10  1  0  0  0  0
 10 11  3  0  0  0  0
 12 13  1  0  0  0  0
 13 14  1  0  0  0  0
 14 15  1  0  0  0  0
 15 16  1  0  0  0  0
 16 17  1  0  0  0  0
 17 18  1  0  0  0  0
 17 22  1  0  0  0  0
 18 19  1  0  0  0  0
 19 20  1  0  0  0  0
 20 21  1  0  0  0  0
 21 22  1  0  0  0  0
M  END
>  <Name_Molregno>
344231

>  <HISTAMINE H3>
7.51

$$$$
344232
  Marvin  02231216192D 0   1.00000     0.00000     0

 23 25  0  0  0  0  0  0  0  0999 V2000
   -3.1000    0.2529    0.0000 N   0  0  0  0  0  0  0  0  0
   -3.1863    1.0734    0.0000 C   0  0  0  0  0  0  0  0  0
   -3.9932    1.2449    0.0000 C   0  0  0  0  0  0  0  0  0
   -4.4057    0.5304    0.0000 C   0  0  0  0  0  0  0  0  0
   -5.2307    0.5304    0.0000 C   0  0  0  0  0  0  0  0  0
   -5.6432    1.2449    0.0000 C   0  0  0  0  0  0  0  0  0
   -5.2307    1.9594    0.0000 C   0  0  0  0  0  0  0  0  0
   -4.4057    1.9594    0.0000 C   0  0  0  0  0  0  0  0  0
   -3.8537   -0.0827    0.0000 C   0  0  0  0  0  0  0  0  0
   -4.0252   -0.8896    0.0000 C   0  0  0  0  0  0  0  0  0
   -4.1968   -1.6966    0.0000 N   0  0  0  0  0  0  0  0  0
   -2.3856   -0.1596    0.0000 C   0  0  0  0  0  0  0  0  0
   -1.6711    0.2529    0.0000 C   0  0  0  0  0  0  0  0  0
   -0.9566   -0.1596    0.0000 C   0  0  0  0  0  0  0  0  0
   -0.2422    0.2529    0.0000 C   0  0  0  0  0  0  0  0  0
    0.4723   -0.1596    0.0000 C   0  0  0  0  0  0  0  0  0
    1.1868    0.2529    0.0000 C   0  0  0  0  0  0  0  0  0
    1.9013   -0.1596    0.0000 N   0  0  0  0  0  0  0  0  0
    2.6157    0.2529    0.0000 C   0  0  0  0  0  0  0  0  0
    3.3302   -0.1596    0.0000 C   0  0  0  0  0  0  0  0  0
    3.3302   -0.9846    0.0000 C   0  0  0  0  0  0  0  0  0
    2.6157   -1.3971    0.0000 C   0  0  0  0  0  0  0  0  0
    1.9013   -0.9846    0.0000 C   0  0  0  0  0  0  0  0  0
  1  2  4  0  0  0  0
  1  9  4  0  0  0  0
  1 12  1  0  0  0  0
  2  3  4  0  0  0  0
  3  4  4  0  0  0  0
  3  8  4  0  0  0  0
  4  5  4  0  0  0  0
  4  9  4  0  0  0  0
  5  6  4  0  0  0  0
  6  7  4  0  0  0  0
  7  8  4  0  0  0  0
  9 10  1  0  0  0  0
 10 11  3  0  0  0  0
 12 13  1  0  0  0  0
 13 14  1  0  0  0  0
 14 15  1  0  0  0  0
 15 16  1  0  0  0  0
 16 17  1  0  0  0  0
 17 18  1  0  0  0  0
 18 19  1  0  0  0  0
 18 23  1  0  0  0  0
 19 20  1  0  0  0  0
 20 21  1  0  0  0  0
 21 22  1  0  0  0  0
 22 23  1  0  0  0  0
M  END
>  <Name_Molregno>
344232

>  <HISTAMINE H3>
7.51

$$$$
344239
  Marvin  02231216192D 0   1.00000     0.00000     0

 23 25  0  0  0  0  0  0  0  0999 V2000
    1.9997   -0.8924    0.0000 O   0  0  0  0  0  0  0  0  0
    2.3352   -0.1388    0.0000 N   0  0  0  0  0  0  0  0  0
    1.7221    0.4133    0.0000 C   0  0  0  0  0  0  0  0  0
    1.0076    0.0008    0.0000 C   0  0  0  0  0  0  0  0  0
    1.1792   -0.8062    0.0000 N   0  0  0  0  0  0  0  0  0
    0.2932    0.4133    0.0000 C   0  0  0  0  0  0  0  0  0
   -0.4213    0.0008    0.0000 N   0  3  0  0  0  0  0  0  0
   -1.1358    0.4133    0.0000 O   0  5  0  0  0  0  0  0  0
   -0.4213   -0.8242    0.0000 O   0  5  0  0  0  0  0  0  0
    0.2932    1.2383    0.0000 C   0  0  0  0  0  0  0  0  0
    1.0076    1.6508    0.0000 C   0  0  0  0  0  0  0  0  0
    1.7221    1.2383    0.0000 C   0  0  0  0  0  0  0  0  0
    2.4366    1.6508    0.0000 N   0  0  0  0  0  0  0  0  0
    3.1511    1.2383    0.0000 C   0  0  0  0  0  0  0  0  0
    3.8655    1.6508    0.0000 C   0  0  0  0  0  0  0  0  0
    4.5800    1.2383    0.0000 C   0  0  0  0  0  0  0  0  0
    5.2945    1.6508    0.0000 C   0  0  0  0  0  0  0  0  0
    6.0089    1.2383    0.0000 N   0  0  0  0  0  0  0  0  0
    6.7234    1.6508    0.0000 C   0  0  0  0  0  0  0  0  0
    7.4379    1.2383    0.0000 C   0  0  0  0  0  0  0  0  0
    7.4379    0.4133    0.0000 C   0  0  0  0  0  0  0  0  0
    6.7234    0.0008    0.0000 C   0  0  0  0  0  0  0  0  0
    6.0089    0.4133    0.0000 C   0  0  0  0  0  0  0  0  0
  1  2  4  0  0  0  0
  1  5  4  0  0  0  0
  2  3  4  0  0  0  0
  3  4  4  0  0  0  0
  3 12  4  0  0  0  0
  4  5  4  0  0  0  0
  4  6  4  0  0  0  0
  6  7  1  0  0  0  0
  6 10  4  0  0  0  0
  7  8  1  0  0  0  0
  7  9  1  0  0  0  0
 10 11  4  0  0  0  0
 11 12  4  0  0  0  0
 12 13  1  0  0  0  0
 13 14  1  0  0  0  0
 14 15  1  0  0  0  0
 15 16  1  0  0  0  0
 16 17  1  0  0  0  0
 17 18  1  0  0  0  0
 18 19  1  0  0  0  0
 18 23  1  0  0  0  0
 19 20  1  0  0  0  0
 20 21  1  0  0  0  0
 21 22  1  0  0  0  0
 22 23  1  0  0  0  0
M  CHG  3   7   1   8  -1   9  -1
M  END
>  <Name_Molregno>
344239

>  <HISTAMINE H3>
6.77

$$$$
344240
  Marvin  02231216192D 0   1.00000     0.00000     0

 24 26  0  0  0  0  0  0  0  0999 V2000
   -0.2993    0.4255    0.0000 O   0  0  0  0  0  0  0  0  0
    0.5212    0.5117    0.0000 N   0  0  0  0  0  0  0  0  0
    0.6927    1.3187    0.0000 C   0  0  0  0  0  0  0  0  0
   -0.0218    1.7312    0.0000 C   0  0  0  0  0  0  0  0  0
   -0.6349    1.1792    0.0000 N   0  0  0  0  0  0  0  0  0
   -0.0218    2.5562    0.0000 C   0  0  0  0  0  0  0  0  0
   -0.7362    2.9687    0.0000 N   0  3  0  0  0  0  0  0  0
   -0.7362    3.7937    0.0000 O   0  5  0  0  0  0  0  0  0
   -1.4507    2.5562    0.0000 O   0  5  0  0  0  0  0  0  0
    0.6927    2.9687    0.0000 C   0  0  0  0  0  0  0  0  0
    1.4072    2.5562    0.0000 C   0  0  0  0  0  0  0  0  0
    1.4072    1.7312    0.0000 C   0  0  0  0  0  0  0  0  0
    2.1216    1.3187    0.0000 N   0  0  0  0  0  0  0  0  0
    2.8361    1.7312    0.0000 C   0  0  0  0  0  0  0  0  0
    3.5506    1.3187    0.0000 C   0  0  0  0  0  0  0  0  0
    4.2651    1.7312    0.0000 C   0  0  0  0  0  0  0  0  0
    4.9795    1.3187    0.0000 C   0  0  0  0  0  0  0  0  0
    5.6940    1.7312    0.0000 C   0  0  0  0  0  0  0  0  0
    6.4085    1.3187    0.0000 N   0  0  0  0  0  0  0  0  0
    7.1229    1.7312    0.0000 C   0  0  0  0  0  0  0  0  0
    7.8374    1.3187    0.0000 C   0  0  0  0  0  0  0  0  0
    7.8374    0.4937    0.0000 C   0  0  0  0  0  0  0  0  0
    7.1229    0.0812    0.0000 C   0  0  0  0  0  0  0  0  0
    6.4085    0.4937    0.0000 C   0  0  0  0  0  0  0  0  0
  1  2  4  0  0  0  0
  1  5  4  0  0  0  0
  2  3  4  0  0  0  0
  3  4  4  0  0  0  0
  3 12  4  0  0  0  0
  4  5  4  0  0  0  0
  4  6  4  0  0  0  0
  6  7  1  0  0  0  0
  6 10  4  0  0  0  0
  7  8  1  0  0  0  0
  7  9  1  0  0  0  0
 10 11  4  0  0  0  0
 11 12  4  0  0  0  0
 12 13  1  0  0  0  0
 13 14  1  0  0  0  0
 14 15  1  0  0  0  0
 15 16  1  0  0  0  0
 16 17  1  0  0  0  0
 17 18  1  0  0  0  0
 18 19  1  0  0  0  0
 19 20  1  0  0  0  0
 19 24  1  0  0  0  0
 20 21  1  0  0  0  0
 21 22  1  0  0  0  0
 22 23  1  0  0  0  0
 23 24  1  0  0  0  0
M  CHG  3   7   1   8  -1   9  -1
M  END
>  <Name_Molregno>
344240

>  <HISTAMINE H3>
7.96

$$$$
344371
  Marvin  02231216192D 0   1.00000     0.00000     0

 27 29  0  0  0  0  0  0  0  0999 V2000
   -8.3424    3.5017    0.0000 O   0  0  0  0  0  0  0  0  0
   -9.0569    3.9142    0.0000 C   0  0  0  0  0  0  0  0  0
   -8.3424    2.6767    0.0000 C   0  0  0  0  0  0  0  0  0
   -7.6279    2.2642    0.0000 C   0  0  0  0  0  0  0  0  0
   -7.6279    1.4392    0.0000 C   0  0  0  0  0  0  0  0  0
   -6.9134    1.0267    0.0000 N   0  0  0  0  0  0  0  0  0
   -6.1990    1.4392    0.0000 C   0  0  0  0  0  0  0  0  0
   -5.4845    1.0267    0.0000 C   0  0  0  0  0  0  0  0  0
   -5.4845    0.2017    0.0000 N   0  0  0  0  0  0  0  0  0
   -6.1990   -0.2108    0.0000 C   0  0  0  0  0  0  0  0  0
   -6.9134    0.2017    0.0000 C   0  0  0  0  0  0  0  0  0
   -4.7700   -0.2108    0.0000 C   0  0  0  0  0  0  0  0  0
   -4.0556    0.2017    0.0000 C   0  0  0  0  0  0  0  0  0
   -3.3411   -0.2108    0.0000 C   0  0  0  0  0  0  0  0  0
   -2.6266    0.2017    0.0000 C   0  0  0  0  0  0  0  0  0
   -1.9121   -0.2108    0.0000 N   0  0  0  0  0  0  0  0  0
   -1.1977    0.2017    0.0000 N   0  0  0  0  0  0  0  0  0
   -0.4832   -0.2108    0.0000 C   0  0  0  0  0  0  0  0  0
   -0.4832   -1.0358    0.0000 C   0  0  0  0  0  0  0  0  0
    0.2313   -1.4483    0.0000 O   0  0  0  0  0  0  0  0  0
   -1.1977   -1.4483    0.0000 N   0  0  0  0  0  0  0  0  0
   -1.1977   -2.2733    0.0000 C   0  0  0  0  0  0  0  0  0
   -1.9121   -1.0358    0.0000 C   0  0  0  0  0  0  0  0  0
   -2.6266   -1.4483    0.0000 O   0  0  0  0  0  0  0  0  0
   -8.3424    1.0267    0.0000 C   0  0  0  0  0  0  0  0  0
   -9.0569    1.4392    0.0000 C   0  0  0  0  0  0  0  0  0
   -9.0569    2.2642    0.0000 C   0  0  0  0  0  0  0  0  0
  1  2  1  0  0  0  0
  1  3  1  0  0  0  0
  3  4  4  0  0  0  0
  3 27  4  0  0  0  0
  4  5  4  0  0  0  0
  5  6  1  0  0  0  0
  5 25  4  0  0  0  0
  6  7  1  0  0  0  0
  6 11  1  0  0  0  0
  7  8  1  0  0  0  0
  8  9  1  0  0  0  0
  9 10  1  0  0  0  0
  9 12  1  0  0  0  0
 10 11  1  0  0  0  0
 12 13  1  0  0  0  0
 13 14  1  0  0  0  0
 14 15  1  0  0  0  0
 15 16  1  0  0  0  0
 16 17  1  0  0  0  0
 16 23  1  0  0  0  0
 17 18  2  0  0  0  0
 18 19  1  0  0  0  0
 19 20  2  0  0  0  0
 19 21  1  0  0  0  0
 21 22  1  0  0  0  0
 21 23  1  0  0  0  0
 23 24  2  0  0  0  0
 25 26  4  0  0  0  0
 26 27  4  0  0  0  0
M  END
>  <Name_Molregno>
344371

>  <5-HT1A>
8.96

>  <5-HT1B>
6.64

>  <5-HT1E>
5

>  <5-HT2A>
5.68

>  <5-HT3>
5

>  <5-HT5>
5

>  <5-HT6>
5

>  <5-HT7>
6.48

>  <Alpha-1A>
6.38

>  <Alpha-1B>
6.42

>  <Alpha-2A>
6.6

>  <Alpha-2C>
6.96

>  <DOPAMINE D2>
5.59

>  <DOPAMINE D3>
5

>  <DOPAMINE D4>
5

>  <DOPAMINE D5>
5

>  <Dopamine transporter>
5

>  <HISTAMINE H1>
6.08

>  <HISTAMINE H2>
5.67

>  <HISTAMINE H3>
5

>  <HISTAMINE H4>
5

>  <Norepinephrine transporter>
5

>  <Serotonin transporter>
5

$$$$
347521
  Marvin  02231216192D 0   1.00000     0.00000     0

 23 26  0  0  1  0  0  0  0  0999 V2000
   -0.9474   -3.0100    0.0000 O   0  0  0  0  0  0  0  0  0
   -0.9474   -2.1850    0.0000 C   0  0  0  0  0  0  0  0  0
   -1.6619   -1.7725    0.0000 N   0  0  0  0  0  0  0  0  0
   -2.4156   -2.1080    0.0000 C   0  0  0  0  0  0  0  0  0
   -2.9676   -1.4950    0.0000 C   0  0  0  0  0  0  0  0  0
   -2.5551   -0.7805    0.0000 C   0  0  0  0  0  0  0  0  0
   -1.7481   -0.9520    0.0000 C   0  0  0  0  0  0  0  0  0
   -1.1350   -0.4000    0.0000 C   0  0  0  0  0  0  0  0  0
   -1.3066    0.4070    0.0000 N   0  0  0  0  0  0  0  0  0
   -2.0602    0.7426    0.0000 C   0  0  0  0  0  0  0  0  0
   -1.9740    1.5630    0.0000 C   0  0  0  0  0  0  0  0  0
   -1.1670    1.7346    0.0000 C   0  0  0  0  0  0  0  0  0
   -0.7545    1.0201    0.0000 C   0  0  0  0  0  0  0  0  0
   -0.2330   -1.7725    0.0000 C   0  0  0  0  0  0  0  0  0
    0.4815   -2.1850    0.0000 C   0  0  0  0  0  0  0  0  0
    1.1960   -1.7725    0.0000 C   0  0  0  0  0  0  0  0  0
    1.1960   -0.9475    0.0000 C   0  0  0  0  0  0  0  0  0
    0.4815   -0.5350    0.0000 N   0  0  0  0  0  0  0  0  0
   -0.2330   -0.9475    0.0000 C   0  0  0  0  0  0  0  0  0
    1.9104   -0.5350    0.0000 C   0  0  0  0  0  0  0  0  0
    2.6249   -0.9475    0.0000 C   0  0  0  0  0  0  0  0  0
    2.6249   -1.7725    0.0000 C   0  0  0  0  0  0  0  0  0
    1.9104   -2.1850    0.0000 C   0  0  0  0  0  0  0  0  0
  1  2  2  0  0  0  0
  2  3  1  0  0  0  0
  2 14  1  0  0  0  0
  3  4  1  0  0  0  0
  3  7  1  0  0  0  0
  4  5  1  0  0  0  0
  5  6  1  0  0  0  0
  6  7  1  0  0  0  0
  7  8  1  0  0  0  0
  8  9  1  0  0  0  0
  9 10  1  0  0  0  0
  9 13  1  0  0  0  0
 10 11  1  0  0  0  0
 11 12  1  0  0  0  0
 12 13  1  0  0  0  0
 14 15  4  0  0  0  0
 14 19  4  0  0  0  0
 15 16  4  0  0  0  0
 16 17  4  0  0  0  0
 16 23  4  0  0  0  0
 17 18  4  0  0  0  0
 17 20  4  0  0  0  0
 18 19  4  0  0  0  0
 20 21  4  0  0  0  0
 21 22  4  0  0  0  0
 22 23  4  0  0  0  0
M  END
>  <Name_Molregno>
347521

>  <HISTAMINE H3>
6.82

$$$$
347613
  Marvin  02231216192D 0   1.00000     0.00000     0

 26 28  0  0  1  0  0  0  0  0999 V2000
    0.4144   -1.1414    0.0000 F   0  0  0  0  0  0  0  0  0
   -0.3001   -0.7289    0.0000 C   0  0  0  0  0  0  0  0  0
    0.1124   -0.0144    0.0000 F   0  0  0  0  0  0  0  0  0
   -0.7126   -1.4434    0.0000 F   0  0  0  0  0  0  0  0  0
   -1.0146   -0.3164    0.0000 C   0  0  0  0  0  0  0  0  0
   -1.7290   -0.7289    0.0000 C   0  0  0  0  0  0  0  0  0
   -2.4435   -0.3164    0.0000 C   0  0  0  0  0  0  0  0  0
   -3.2281   -0.5713    0.0000 C   0  0  0  0  0  0  0  0  0
   -3.7131    0.0961    0.0000 C   0  0  0  0  0  0  0  0  0
   -3.2281    0.7635    0.0000 O   0  0  0  0  0  0  0  0  0
   -2.4435    0.5086    0.0000 C   0  0  0  0  0  0  0  0  0
   -1.7290    0.9211    0.0000 C   0  0  0  0  0  0  0  0  0
   -1.0146    0.5086    0.0000 C   0  0  0  0  0  0  0  0  0
   -4.5381    0.0961    0.0000 C   0  0  0  0  0  0  0  0  0
   -4.9506    0.8106    0.0000 O   0  0  0  0  0  0  0  0  0
   -4.9506   -0.6184    0.0000 N   0  0  0  0  0  0  0  0  0
   -4.6150   -1.3720    0.0000 C   0  0  0  0  0  0  0  0  0
   -5.2281   -1.9241    0.0000 C   0  0  0  0  0  0  0  0  0
   -5.9426   -1.5116    0.0000 C   0  0  0  0  0  0  0  0  0
   -5.7710   -0.7046    0.0000 C   0  0  0  0  0  0  0  0  0
   -6.3231   -0.0915    0.0000 C   0  0  0  0  0  0  0  0  0
   -7.1300   -0.2630    0.0000 N   0  0  0  0  0  0  0  0  0
   -7.6821    0.3501    0.0000 C   0  0  0  0  0  0  0  0  0
   -8.4890    0.1785    0.0000 C   0  0  0  0  0  0  0  0  0
   -7.3850   -1.0477    0.0000 C   0  0  0  0  0  0  0  0  0
   -8.1920   -1.2192    0.0000 C   0  0  0  0  0  0  0  0  0
  1  2  1  0  0  0  0
  2  3  1  0  0  0  0
  2  4  1  0  0  0  0
  2  5  1  0  0  0  0
  5  6  4  0  0  0  0
  5 13  4  0  0  0  0
  6  7  4  0  0  0  0
  7  8  4  0  0  0  0
  7 11  4  0  0  0  0
  8  9  4  0  0  0  0
  9 10  4  0  0  0  0
  9 14  1  0  0  0  0
 10 11  4  0  0  0  0
 11 12  4  0  0  0  0
 12 13  4  0  0  0  0
 14 15  2  0  0  0  0
 14 16  1  0  0  0  0
 16 17  1  0  0  0  0
 16 20  1  0  0  0  0
 17 18  1  0  0  0  0
 18 19  1  0  0  0  0
 19 20  1  0  0  0  0
 20 21  1  0  0  0  0
 21 22  1  0  0  0  0
 22 23  1  0  0  0  0
 22 25  1  0  0  0  0
 23 24  1  0  0  0  0
 25 26  1  0  0  0  0
M  END
>  <Name_Molregno>
347613

>  <HISTAMINE H3>
7.85

$$$$
347620
  Marvin  02231216192D 0   1.00000     0.00000     0

 27 30  0  0  1  0  0  0  0  0999 V2000
    9.1604   -0.2662    0.0000 F   0  0  0  0  0  0  0  0  0
    8.4459   -0.6787    0.0000 C   0  0  0  0  0  0  0  0  0
    8.0334    0.0358    0.0000 F   0  0  0  0  0  0  0  0  0
    8.8584   -1.3932    0.0000 F   0  0  0  0  0  0  0  0  0
    7.7314   -1.0912    0.0000 O   0  0  0  0  0  0  0  0  0
    7.0170   -0.6787    0.0000 C   0  0  0  0  0  0  0  0  0
    6.3025   -1.0912    0.0000 C   0  0  0  0  0  0  0  0  0
    5.5880   -0.6787    0.0000 C   0  0  0  0  0  0  0  0  0
    4.8034   -0.9336    0.0000 C   0  0  0  0  0  0  0  0  0
    4.3185   -0.2662    0.0000 C   0  0  0  0  0  0  0  0  0
    4.8034    0.4012    0.0000 O   0  0  0  0  0  0  0  0  0
    5.5880    0.1463    0.0000 C   0  0  0  0  0  0  0  0  0
    6.3025    0.5588    0.0000 C   0  0  0  0  0  0  0  0  0
    7.0170    0.1463    0.0000 C   0  0  0  0  0  0  0  0  0
    3.4935   -0.2662    0.0000 C   0  0  0  0  0  0  0  0  0
    3.0810    0.4483    0.0000 O   0  0  0  0  0  0  0  0  0
    3.0810   -0.9807    0.0000 N   0  0  0  0  0  0  0  0  0
    3.4165   -1.7343    0.0000 C   0  0  0  0  0  0  0  0  0
    2.8034   -2.2864    0.0000 C   0  0  0  0  0  0  0  0  0
    2.0890   -1.8739    0.0000 C   0  0  0  0  0  0  0  0  0
    2.2605   -1.0669    0.0000 C   0  0  0  0  0  0  0  0  0
    1.7085   -0.4538    0.0000 C   0  0  0  0  0  0  0  0  0
    1.9634    0.3308    0.0000 N   0  0  0  0  0  0  0  0  0
    1.4785    0.9983    0.0000 C   0  0  0  0  0  0  0  0  0
    1.9634    1.6657    0.0000 C   0  0  0  0  0  0  0  0  0
    2.7480    1.4108    0.0000 C   0  0  0  0  0  0  0  0  0
    2.7480    0.5858    0.0000 C   0  0  0  0  0  0  0  0  0
  1  2  1  0  0  0  0
  2  3  1  0  0  0  0
  2  4  1  0  0  0  0
  2  5  1  0  0  0  0
  5  6  1  0  0  0  0
  6  7  4  0  0  0  0
  6 14  4  0  0  0  0
  7  8  4  0  0  0  0
  8  9  4  0  0  0  0
  8 12  4  0  0  0  0
  9 10  4  0  0  0  0
 10 11  4  0  0  0  0
 10 15  1  0  0  0  0
 11 12  4  0  0  0  0
 12 13  4  0  0  0  0
 13 14  4  0  0  0  0
 15 16  2  0  0  0  0
 15 17  1  0  0  0  0
 17 18  1  0  0  0  0
 17 21  1  0  0  0  0
 18 19  1  0  0  0  0
 19 20  1  0  0  0  0
 20 21  1  0  0  0  0
 21 22  1  0  0  0  0
 22 23  1  0  0  0  0
 23 24  1  0  0  0  0
 23 27  1  0  0  0  0
 24 25  1  0  0  0  0
 25 26  1  0  0  0  0
 26 27  1  0  0  0  0
M  END
>  <Name_Molregno>
347620

>  <HISTAMINE H3>
7.96

$$$$
347621
  Marvin  02231216192D 0   1.00000     0.00000     0

 24 27  0  0  1  0  0  0  0  0999 V2000
    1.5499   -0.2809    0.0000 O   0  0  0  0  0  0  0  0  0
    2.3345   -0.0260    0.0000 C   0  0  0  0  0  0  0  0  0
    2.3345    0.7990    0.0000 C   0  0  0  0  0  0  0  0  0
    3.0490    1.2115    0.0000 C   0  0  0  0  0  0  0  0  0
    3.7635    0.7990    0.0000 C   0  0  0  0  0  0  0  0  0
    3.7635   -0.0260    0.0000 C   0  0  0  0  0  0  0  0  0
    3.0490   -0.4385    0.0000 C   0  0  0  0  0  0  0  0  0
    4.4780    1.2115    0.0000 C   0  0  0  0  0  0  0  0  0
    5.1924    1.6240    0.0000 N   0  0  0  0  0  0  0  0  0
    1.5499    1.0539    0.0000 C   0  0  0  0  0  0  0  0  0
    1.0650    0.3865    0.0000 C   0  0  0  0  0  0  0  0  0
    0.2400    0.3865    0.0000 C   0  0  0  0  0  0  0  0  0
   -0.1725    1.1010    0.0000 O   0  0  0  0  0  0  0  0  0
   -0.1725   -0.3280    0.0000 N   0  0  0  0  0  0  0  0  0
    0.1631   -1.0817    0.0000 C   0  0  0  0  0  0  0  0  0
   -0.4500   -1.6337    0.0000 C   0  0  0  0  0  0  0  0  0
   -1.1645   -1.2212    0.0000 C   0  0  0  0  0  0  0  0  0
   -0.9930   -0.4142    0.0000 C   0  0  0  0  0  0  0  0  0
   -1.5450    0.1989    0.0000 C   0  0  0  0  0  0  0  0  0
   -1.2901    0.9835    0.0000 N   0  0  0  0  0  0  0  0  0
   -1.7750    1.6509    0.0000 C   0  0  0  0  0  0  0  0  0
   -1.2901    2.3184    0.0000 C   0  0  0  0  0  0  0  0  0
   -0.5055    2.0634    0.0000 C   0  0  0  0  0  0  0  0  0
   -0.5055    1.2384    0.0000 C   0  0  0  0  0  0  0  0  0
  1  2  4  0  0  0  0
  1 11  4  0  0  0  0
  2  3  4  0  0  0  0
  2  7  4  0  0  0  0
  3  4  4  0  0  0  0
  3 10  4  0  0  0  0
  4  5  4  0  0  0  0
  5  6  4  0  0  0  0
  5  8  1  0  0  0  0
  6  7  4  0  0  0  0
  8  9  3  0  0  0  0
 10 11  4  0  0  0  0
 11 12  1  0  0  0  0
 12 13  2  0  0  0  0
 12 14  1  0  0  0  0
 14 15  1  0  0  0  0
 14 18  1  0  0  0  0
 15 16  1  0  0  0  0
 16 17  1  0  0  0  0
 17 18  1  0  0  0  0
 18 19  1  0  0  0  0
 19 20  1  0  0  0  0
 20 21  1  0  0  0  0
 20 24  1  0  0  0  0
 21 22  1  0  0  0  0
 22 23  1  0  0  0  0
 23 24  1  0  0  0  0
M  END
>  <Name_Molregno>
347621

>  <HISTAMINE H3>
8.3

$$$$
347628
  Marvin  02231216192D 0   1.00000     0.00000     0

 24 27  0  0  1  0  0  0  0  0999 V2000
   -0.7313   -3.1437    0.0000 O   0  0  0  0  0  0  0  0  0
   -0.7313   -2.3187    0.0000 C   0  0  0  0  0  0  0  0  0
   -1.4458   -1.9062    0.0000 N   0  0  0  0  0  0  0  0  0
   -2.1995   -2.2417    0.0000 C   0  0  0  0  0  0  0  0  0
   -2.7515   -1.6287    0.0000 C   0  0  0  0  0  0  0  0  0
   -2.3390   -0.9142    0.0000 C   0  0  0  0  0  0  0  0  0
   -1.5320   -1.0857    0.0000 C   0  0  0  0  0  0  0  0  0
   -0.9189   -0.5337    0.0000 C   0  0  0  0  0  0  0  0  0
   -1.0905    0.2733    0.0000 N   0  0  0  0  0  0  0  0  0
   -1.8751    0.5282    0.0000 C   0  0  0  0  0  0  0  0  0
   -2.0466    1.3352    0.0000 C   0  0  0  0  0  0  0  0  0
   -1.4335    1.8872    0.0000 C   0  0  0  0  0  0  0  0  0
   -0.6489    1.6323    0.0000 C   0  0  0  0  0  0  0  0  0
   -0.4774    0.8253    0.0000 C   0  0  0  0  0  0  0  0  0
   -0.0169   -1.9062    0.0000 C   0  0  0  0  0  0  0  0  0
    0.6976   -2.3187    0.0000 C   0  0  0  0  0  0  0  0  0
    1.4121   -1.9062    0.0000 C   0  0  0  0  0  0  0  0  0
    1.4121   -1.0812    0.0000 C   0  0  0  0  0  0  0  0  0
    0.6976   -0.6687    0.0000 N   0  0  0  0  0  0  0  0  0
   -0.0169   -1.0812    0.0000 C   0  0  0  0  0  0  0  0  0
    2.1265   -0.6687    0.0000 C   0  0  0  0  0  0  0  0  0
    2.8410   -1.0812    0.0000 C   0  0  0  0  0  0  0  0  0
    2.8410   -1.9062    0.0000 C   0  0  0  0  0  0  0  0  0
    2.1265   -2.3187    0.0000 C   0  0  0  0  0  0  0  0  0
  1  2  2  0  0  0  0
  2  3  1  0  0  0  0
  2 15  1  0  0  0  0
  3  4  1  0  0  0  0
  3  7  1  0  0  0  0
  4  5  1  0  0  0  0
  5  6  1  0  0  0  0
  6  7  1  0  0  0  0
  7  8  1  0  0  0  0
  8  9  1  0  0  0  0
  9 10  1  0  0  0  0
  9 14  1  0  0  0  0
 10 11  1  0  0  0  0
 11 12  1  0  0  0  0
 12 13  1  0  0  0  0
 13 14  1  0  0  0  0
 15 16  4  0  0  0  0
 15 20  4  0  0  0  0
 16 17  4  0  0  0  0
 17 18  4  0  0  0  0
 17 24  4  0  0  0  0
 18 19  4  0  0  0  0
 18 21  4  0  0  0  0
 19 20  4  0  0  0  0
 21 22  4  0  0  0  0
 22 23  4  0  0  0  0
 23 24  4  0  0  0  0
M  END
>  <Name_Molregno>
347628

>  <HISTAMINE H3>
6.82

$$$$
347637
  Marvin  02231216192D 0   1.00000     0.00000     0

 26 29  0  0  1  0  0  0  0  0999 V2000
    0.0312   -0.7888    0.0000 F   0  0  0  0  0  0  0  0  0
   -0.6833   -0.3763    0.0000 C   0  0  0  0  0  0  0  0  0
   -0.2708    0.3381    0.0000 F   0  0  0  0  0  0  0  0  0
   -1.0958   -1.0908    0.0000 F   0  0  0  0  0  0  0  0  0
   -1.3978    0.0362    0.0000 C   0  0  0  0  0  0  0  0  0
   -2.1123   -0.3763    0.0000 C   0  0  0  0  0  0  0  0  0
   -2.8267    0.0362    0.0000 C   0  0  0  0  0  0  0  0  0
   -3.6114   -0.2188    0.0000 O   0  0  0  0  0  0  0  0  0
   -4.0963    0.4487    0.0000 C   0  0  0  0  0  0  0  0  0
   -3.6114    1.1161    0.0000 C   0  0  0  0  0  0  0  0  0
   -2.8267    0.8612    0.0000 C   0  0  0  0  0  0  0  0  0
   -2.1123    1.2737    0.0000 C   0  0  0  0  0  0  0  0  0
   -1.3978    0.8612    0.0000 C   0  0  0  0  0  0  0  0  0
   -4.9213    0.4487    0.0000 C   0  0  0  0  0  0  0  0  0
   -5.3338    1.1631    0.0000 O   0  0  0  0  0  0  0  0  0
   -5.3338   -0.2658    0.0000 N   0  0  0  0  0  0  0  0  0
   -4.9982   -1.0195    0.0000 C   0  0  0  0  0  0  0  0  0
   -5.6113   -1.5715    0.0000 C   0  0  0  0  0  0  0  0  0
   -6.3258   -1.1590    0.0000 C   0  0  0  0  0  0  0  0  0
   -6.1543   -0.3520    0.0000 C   0  0  0  0  0  0  0  0  0
   -6.7063    0.2611    0.0000 C   0  0  0  0  0  0  0  0  0
   -6.4513    1.0457    0.0000 N   0  0  0  0  0  0  0  0  0
   -6.9363    1.7131    0.0000 C   0  0  0  0  0  0  0  0  0
   -6.4513    2.3806    0.0000 C   0  0  0  0  0  0  0  0  0
   -5.6667    2.1256    0.0000 C   0  0  0  0  0  0  0  0  0
   -5.6667    1.3006    0.0000 C   0  0  0  0  0  0  0  0  0
  1  2  1  0  0  0  0
  2  3  1  0  0  0  0
  2  4  1  0  0  0  0
  2  5  1  0  0  0  0
  5  6  4  0  0  0  0
  5 13  4  0  0  0  0
  6  7  4  0  0  0  0
  7  8  4  0  0  0  0
  7 11  4  0  0  0  0
  8  9  4  0  0  0  0
  9 10  4  0  0  0  0
  9 14  1  0  0  0  0
 10 11  4  0  0  0  0
 11 12  4  0  0  0  0
 12 13  4  0  0  0  0
 14 15  2  0  0  0  0
 14 16  1  0  0  0  0
 16 17  1  0  0  0  0
 16 20  1  0  0  0  0
 17 18  1  0  0  0  0
 18 19  1  0  0  0  0
 19 20  1  0  0  0  0
 20 21  1  0  0  0  0
 21 22  1  0  0  0  0
 22 23  1  0  0  0  0
 22 26  1  0  0  0  0
 23 24  1  0  0  0  0
 24 25  1  0  0  0  0
 25 26  1  0  0  0  0
M  END
>  <Name_Molregno>
347637

>  <HISTAMINE H3>
7.82

$$$$
347643
  Marvin  02231216192D 0   1.00000     0.00000     0

 27 30  0  0  1  0  0  0  0  0999 V2000
    0.4150   -1.1066    0.0000 F   0  0  0  0  0  0  0  0  0
   -0.2995   -0.6941    0.0000 C   0  0  0  0  0  0  0  0  0
    0.1130    0.0204    0.0000 F   0  0  0  0  0  0  0  0  0
   -0.7120   -1.4086    0.0000 F   0  0  0  0  0  0  0  0  0
   -1.0140   -0.2816    0.0000 C   0  0  0  0  0  0  0  0  0
   -1.7284   -0.6941    0.0000 C   0  0  0  0  0  0  0  0  0
   -2.4429   -0.2816    0.0000 C   0  0  0  0  0  0  0  0  0
   -3.2275   -0.5365    0.0000 O   0  0  0  0  0  0  0  0  0
   -3.7125    0.1309    0.0000 C   0  0  0  0  0  0  0  0  0
   -3.2275    0.7983    0.0000 C   0  0  0  0  0  0  0  0  0
   -2.4429    0.5434    0.0000 C   0  0  0  0  0  0  0  0  0
   -1.7284    0.9559    0.0000 C   0  0  0  0  0  0  0  0  0
   -1.0140    0.5434    0.0000 C   0  0  0  0  0  0  0  0  0
   -4.5375    0.1309    0.0000 C   0  0  0  0  0  0  0  0  0
   -4.9500    0.8454    0.0000 O   0  0  0  0  0  0  0  0  0
   -4.9500   -0.5836    0.0000 N   0  0  0  0  0  0  0  0  0
   -4.6144   -1.3373    0.0000 C   0  0  0  0  0  0  0  0  0
   -5.2275   -1.8893    0.0000 C   0  0  0  0  0  0  0  0  0
   -5.9420   -1.4768    0.0000 C   0  0  0  0  0  0  0  0  0
   -5.7704   -0.6698    0.0000 C   0  0  0  0  0  0  0  0  0
   -6.3225   -0.0567    0.0000 C   0  0  0  0  0  0  0  0  0
   -7.1294   -0.2282    0.0000 N   0  0  0  0  0  0  0  0  0
   -7.3844   -1.0129    0.0000 C   0  0  0  0  0  0  0  0  0
   -8.1914   -1.1844    0.0000 C   0  0  0  0  0  0  0  0  0
   -8.7434   -0.5713    0.0000 C   0  0  0  0  0  0  0  0  0
   -8.4885    0.2133    0.0000 C   0  0  0  0  0  0  0  0  0
   -7.6815    0.3848    0.0000 C   0  0  0  0  0  0  0  0  0
  1  2  1  0  0  0  0
  2  3  1  0  0  0  0
  2  4  1  0  0  0  0
  2  5  1  0  0  0  0
  5  6  4  0  0  0  0
  5 13  4  0  0  0  0
  6  7  4  0  0  0  0
  7  8  4  0  0  0  0
  7 11  4  0  0  0  0
  8  9  4  0  0  0  0
  9 10  4  0  0  0  0
  9 14  1  0  0  0  0
 10 11  4  0  0  0  0
 11 12  4  0  0  0  0
 12 13  4  0  0  0  0
 14 15  2  0  0  0  0
 14 16  1  0  0  0  0
 16 17  1  0  0  0  0
 16 20  1  0  0  0  0
 17 18  1  0  0  0  0
 18 19  1  0  0  0  0
 19 20  1  0  0  0  0
 20 21  1  0  0  0  0
 21 22  1  0  0  0  0
 22 23  1  0  0  0  0
 22 27  1  0  0  0  0
 23 24  1  0  0  0  0
 24 25  1  0  0  0  0
 25 26  1  0  0  0  0
 26 27  1  0  0  0  0
M  END
>  <Name_Molregno>
347643

>  <HISTAMINE H3>
7.66

$$$$
347644
  Marvin  02231216192D 0   1.00000     0.00000     0

 26 28  0  0  1  0  0  0  0  0999 V2000
    0.4144   -1.1414    0.0000 F   0  0  0  0  0  0  0  0  0
   -0.3001   -0.7289    0.0000 C   0  0  0  0  0  0  0  0  0
    0.1124   -0.0144    0.0000 F   0  0  0  0  0  0  0  0  0
   -0.7126   -1.4434    0.0000 F   0  0  0  0  0  0  0  0  0
   -1.0146   -0.3164    0.0000 C   0  0  0  0  0  0  0  0  0
   -1.7290   -0.7289    0.0000 C   0  0  0  0  0  0  0  0  0
   -2.4435   -0.3164    0.0000 C   0  0  0  0  0  0  0  0  0
   -3.2281   -0.5713    0.0000 O   0  0  0  0  0  0  0  0  0
   -3.7131    0.0961    0.0000 C   0  0  0  0  0  0  0  0  0
   -3.2281    0.7635    0.0000 C   0  0  0  0  0  0  0  0  0
   -2.4435    0.5086    0.0000 C   0  0  0  0  0  0  0  0  0
   -1.7290    0.9211    0.0000 C   0  0  0  0  0  0  0  0  0
   -1.0146    0.5086    0.0000 C   0  0  0  0  0  0  0  0  0
   -4.5381    0.0961    0.0000 C   0  0  0  0  0  0  0  0  0
   -4.9506    0.8106    0.0000 O   0  0  0  0  0  0  0  0  0
   -4.9506   -0.6184    0.0000 N   0  0  0  0  0  0  0  0  0
   -4.6150   -1.3720    0.0000 C   0  0  0  0  0  0  0  0  0
   -5.2281   -1.9241    0.0000 C   0  0  0  0  0  0  0  0  0
   -5.9426   -1.5116    0.0000 C   0  0  0  0  0  0  0  0  0
   -5.7710   -0.7046    0.0000 C   0  0  0  0  0  0  0  0  0
   -6.3231   -0.0915    0.0000 C   0  0  0  0  0  0  0  0  0
   -7.1300   -0.2630    0.0000 N   0  0  0  0  0  0  0  0  0
   -7.6821    0.3501    0.0000 C   0  0  0  0  0  0  0  0  0
   -8.4890    0.1785    0.0000 C   0  0  0  0  0  0  0  0  0
   -7.3850   -1.0477    0.0000 C   0  0  0  0  0  0  0  0  0
   -8.1920   -1.2192    0.0000 C   0  0  0  0  0  0  0  0  0
  1  2  1  0  0  0  0
  2  3  1  0  0  0  0
  2  4  1  0  0  0  0
  2  5  1  0  0  0  0
  5  6  4  0  0  0  0
  5 13  4  0  0  0  0
  6  7  4  0  0  0  0
  7  8  4  0  0  0  0
  7 11  4  0  0  0  0
  8  9  4  0  0  0  0
  9 10  4  0  0  0  0
  9 14  1  0  0  0  0
 10 11  4  0  0  0  0
 11 12  4  0  0  0  0
 12 13  4  0  0  0  0
 14 15  2  0  0  0  0
 14 16  1  0  0  0  0
 16 17  1  0  0  0  0
 16 20  1  0  0  0  0
 17 18  1  0  0  0  0
 18 19  1  0  0  0  0
 19 20  1  0  0  0  0
 20 21  1  0  0  0  0
 21 22  1  0  0  0  0
 22 23  1  0  0  0  0
 22 25  1  0  0  0  0
 23 24  1  0  0  0  0
 25 26  1  0  0  0  0
M  END
>  <Name_Molregno>
347644

>  <HISTAMINE H3>
7.34

$$$$
347653
  Marvin  02231216192D 0   1.00000     0.00000     0

 25 28  0  0  1  0  0  0  0  0999 V2000
   -1.0118   -0.8724    0.0000 O   0  0  0  0  0  0  0  0  0
   -0.2272   -0.6174    0.0000 C   0  0  0  0  0  0  0  0  0
   -0.2272    0.2076    0.0000 C   0  0  0  0  0  0  0  0  0
   -1.0118    0.4625    0.0000 C   0  0  0  0  0  0  0  0  0
   -1.4967   -0.2049    0.0000 C   0  0  0  0  0  0  0  0  0
   -2.3217   -0.2049    0.0000 C   0  0  0  0  0  0  0  0  0
   -2.7342   -0.9194    0.0000 O   0  0  0  0  0  0  0  0  0
   -2.7342    0.5095    0.0000 N   0  0  0  0  0  0  0  0  0
   -3.5547    0.5958    0.0000 C   0  0  0  0  0  0  0  0  0
   -3.7263    1.4027    0.0000 C   0  0  0  0  0  0  0  0  0
   -3.0118    1.8152    0.0000 C   0  0  0  0  0  0  0  0  0
   -2.3987    1.2632    0.0000 C   0  0  0  0  0  0  0  0  0
   -1.5917    1.4347    0.0000 C   0  0  0  0  0  0  0  0  0
   -1.3368    2.2193    0.0000 N   0  0  0  0  0  0  0  0  0
   -1.8217    2.8868    0.0000 C   0  0  0  0  0  0  0  0  0
   -1.3368    3.5542    0.0000 C   0  0  0  0  0  0  0  0  0
   -0.5522    3.2993    0.0000 C   0  0  0  0  0  0  0  0  0
   -0.5522    2.4743    0.0000 C   0  0  0  0  0  0  0  0  0
    0.4873    0.6201    0.0000 C   0  0  0  0  0  0  0  0  0
    1.2017    0.2076    0.0000 C   0  0  0  0  0  0  0  0  0
    1.2017   -0.6174    0.0000 C   0  0  0  0  0  0  0  0  0
    0.4873   -1.0299    0.0000 C   0  0  0  0  0  0  0  0  0
    0.4873   -1.8549    0.0000 O   0  0  0  0  0  0  0  0  0
   -0.2272   -2.2674    0.0000 C   0  0  0  0  0  0  0  0  0
   -0.2272   -3.0924    0.0000 C   0  0  0  0  0  0  0  0  0
  1  2  4  0  0  0  0
  1  5  4  0  0  0  0
  2  3  4  0  0  0  0
  2 22  4  0  0  0  0
  3  4  4  0  0  0  0
  3 19  4  0  0  0  0
  4  5  4  0  0  0  0
  5  6  1  0  0  0  0
  6  7  2  0  0  0  0
  6  8  1  0  0  0  0
  8  9  1  0  0  0  0
  8 12  1  0  0  0  0
  9 10  1  0  0  0  0
 10 11  1  0  0  0  0
 11 12  1  0  0  0  0
 12 13  1  0  0  0  0
 13 14  1  0  0  0  0
 14 15  1  0  0  0  0
 14 18  1  0  0  0  0
 15 16  1  0  0  0  0
 16 17  1  0  0  0  0
 17 18  1  0  0  0  0
 19 20  4  0  0  0  0
 20 21  4  0  0  0  0
 21 22  4  0  0  0  0
 22 23  1  0  0  0  0
 23 24  1  0  0  0  0
 24 25  1  0  0  0  0
M  END
>  <Name_Molregno>
347653

>  <HISTAMINE H3>
8.15

$$$$
348188
  Marvin  02231216192D 0   1.00000     0.00000     0

 22 25  0  0  1  0  0  0  0  0999 V2000
   -0.0612    0.6107    0.0000 S   0  0  0  0  0  0  0  0  0
    0.7234    0.8656    0.0000 C   0  0  0  0  0  0  0  0  0
    0.7234    1.6906    0.0000 C   0  0  0  0  0  0  0  0  0
   -0.0612    1.9456    0.0000 C   0  0  0  0  0  0  0  0  0
   -0.5461    1.2781    0.0000 C   0  0  0  0  0  0  0  0  0
   -1.3711    1.2781    0.0000 C   0  0  0  0  0  0  0  0  0
   -1.7836    1.9926    0.0000 O   0  0  0  0  0  0  0  0  0
   -1.7836    0.5637    0.0000 N   0  0  0  0  0  0  0  0  0
   -1.4480   -0.1900    0.0000 C   0  0  0  0  0  0  0  0  0
   -2.0611   -0.7420    0.0000 C   0  0  0  0  0  0  0  0  0
   -2.7756   -0.3295    0.0000 C   0  0  0  0  0  0  0  0  0
   -2.6041    0.4774    0.0000 C   0  0  0  0  0  0  0  0  0
   -3.1561    1.0905    0.0000 C   0  0  0  0  0  0  0  0  0
   -3.9631    0.9190    0.0000 N   0  0  0  0  0  0  0  0  0
   -4.2986    0.1653    0.0000 C   0  0  0  0  0  0  0  0  0
   -5.1191    0.2516    0.0000 C   0  0  0  0  0  0  0  0  0
   -5.2907    1.0585    0.0000 C   0  0  0  0  0  0  0  0  0
   -4.5762    1.4710    0.0000 C   0  0  0  0  0  0  0  0  0
    1.4379    2.1031    0.0000 C   0  0  0  0  0  0  0  0  0
    2.1524    1.6906    0.0000 C   0  0  0  0  0  0  0  0  0
    2.1524    0.8656    0.0000 C   0  0  0  0  0  0  0  0  0
    1.4379    0.4531    0.0000 C   0  0  0  0  0  0  0  0  0
  1  2  4  0  0  0  0
  1  5  4  0  0  0  0
  2  3  4  0  0  0  0
  2 22  4  0  0  0  0
  3  4  4  0  0  0  0
  3 19  4  0  0  0  0
  4  5  4  0  0  0  0
  5  6  1  0  0  0  0
  6  7  2  0  0  0  0
  6  8  1  0  0  0  0
  8  9  1  0  0  0  0
  8 12  1  0  0  0  0
  9 10  1  0  0  0  0
 10 11  1  0  0  0  0
 11 12  1  0  0  0  0
 12 13  1  0  0  0  0
 13 14  1  0  0  0  0
 14 15  1  0  0  0  0
 14 18  1  0  0  0  0
 15 16  1  0  0  0  0
 16 17  1  0  0  0  0
 17 18  1  0  0  0  0
 19 20  4  0  0  0  0
 20 21  4  0  0  0  0
 21 22  4  0  0  0  0
M  END
>  <Name_Molregno>
348188

>  <HISTAMINE H3>
8.4

$$$$
348217
  Marvin  02231216192D 0   1.00000     0.00000     0

 23 26  0  0  1  0  0  0  0  0999 V2000
    2.4024   -2.5654    0.0000 Cl  0  0  0  0  0  0  0  0  0
    2.6573   -1.7808    0.0000 C   0  0  0  0  0  0  0  0  0
    3.4419   -1.5259    0.0000 C   0  0  0  0  0  0  0  0  0
    3.4419   -0.7009    0.0000 C   0  0  0  0  0  0  0  0  0
    2.6573   -0.4459    0.0000 S   0  0  0  0  0  0  0  0  0
    2.1724   -1.1134    0.0000 C   0  0  0  0  0  0  0  0  0
    1.3474   -1.1134    0.0000 C   0  0  0  0  0  0  0  0  0
    0.9349   -0.3989    0.0000 O   0  0  0  0  0  0  0  0  0
    0.9349   -1.8279    0.0000 N   0  0  0  0  0  0  0  0  0
    1.2705   -2.5815    0.0000 C   0  0  0  0  0  0  0  0  0
    0.6574   -3.1336    0.0000 C   0  0  0  0  0  0  0  0  0
   -0.0571   -2.7211    0.0000 C   0  0  0  0  0  0  0  0  0
    0.1144   -1.9141    0.0000 C   0  0  0  0  0  0  0  0  0
   -0.4376   -1.3010    0.0000 C   0  0  0  0  0  0  0  0  0
   -1.2446   -1.4725    0.0000 N   0  0  0  0  0  0  0  0  0
   -1.5801   -2.2262    0.0000 C   0  0  0  0  0  0  0  0  0
   -2.4006   -2.1400    0.0000 C   0  0  0  0  0  0  0  0  0
   -2.5722   -1.3330    0.0000 C   0  0  0  0  0  0  0  0  0
   -1.8577   -0.9205    0.0000 C   0  0  0  0  0  0  0  0  0
    4.1564   -0.2884    0.0000 C   0  0  0  0  0  0  0  0  0
    4.8709   -0.7009    0.0000 C   0  0  0  0  0  0  0  0  0
    4.8709   -1.5259    0.0000 C   0  0  0  0  0  0  0  0  0
    4.1564   -1.9384    0.0000 C   0  0  0  0  0  0  0  0  0
  1  2  1  0  0  0  0
  2  3  4  0  0  0  0
  2  6  4  0  0  0  0
  3  4  4  0  0  0  0
  3 23  4  0  0  0  0
  4  5  4  0  0  0  0
  4 20  4  0  0  0  0
  5  6  4  0  0  0  0
  6  7  1  0  0  0  0
  7  8  2  0  0  0  0
  7  9  1  0  0  0  0
  9 10  1  0  0  0  0
  9 13  1  0  0  0  0
 10 11  1  0  0  0  0
 11 12  1  0  0  0  0
 12 13  1  0  0  0  0
 13 14  1  0  0  0  0
 14 15  1  0  0  0  0
 15 16  1  0  0  0  0
 15 19  1  0  0  0  0
 16 17  1  0  0  0  0
 17 18  1  0  0  0  0
 18 19  1  0  0  0  0
 20 21  4  0  0  0  0
 21 22  4  0  0  0  0
 22 23  4  0  0  0  0
M  END
>  <Name_Molregno>
348217

>  <HISTAMINE H3>
7.92

$$$$
348218
  Marvin  02231216192D 0   1.00000     0.00000     0

 23 26  0  0  1  0  0  0  0  0999 V2000
    7.7781   -1.8499    0.0000 Cl  0  0  0  0  0  0  0  0  0
    7.0637   -1.4374    0.0000 C   0  0  0  0  0  0  0  0  0
    6.3492   -1.8499    0.0000 C   0  0  0  0  0  0  0  0  0
    5.6347   -1.4374    0.0000 C   0  0  0  0  0  0  0  0  0
    4.8501   -1.6923    0.0000 C   0  0  0  0  0  0  0  0  0
    4.3652   -1.0249    0.0000 C   0  0  0  0  0  0  0  0  0
    4.8501   -0.3575    0.0000 O   0  0  0  0  0  0  0  0  0
    5.6347   -0.6124    0.0000 C   0  0  0  0  0  0  0  0  0
    6.3492   -0.1999    0.0000 C   0  0  0  0  0  0  0  0  0
    7.0637   -0.6124    0.0000 C   0  0  0  0  0  0  0  0  0
    3.5402   -1.0249    0.0000 C   0  0  0  0  0  0  0  0  0
    3.1277   -0.3104    0.0000 O   0  0  0  0  0  0  0  0  0
    3.1277   -1.7394    0.0000 N   0  0  0  0  0  0  0  0  0
    3.4632   -2.4930    0.0000 C   0  0  0  0  0  0  0  0  0
    2.8501   -3.0451    0.0000 C   0  0  0  0  0  0  0  0  0
    2.1357   -2.6326    0.0000 C   0  0  0  0  0  0  0  0  0
    2.3072   -1.8256    0.0000 C   0  0  0  0  0  0  0  0  0
    1.7552   -1.2125    0.0000 C   0  0  0  0  0  0  0  0  0
    2.0101   -0.4279    0.0000 N   0  0  0  0  0  0  0  0  0
    1.5252    0.2396    0.0000 C   0  0  0  0  0  0  0  0  0
    2.0101    0.9070    0.0000 C   0  0  0  0  0  0  0  0  0
    2.7947    0.6521    0.0000 C   0  0  0  0  0  0  0  0  0
    2.7947   -0.1729    0.0000 C   0  0  0  0  0  0  0  0  0
  1  2  1  0  0  0  0
  2  3  4  0  0  0  0
  2 10  4  0  0  0  0
  3  4  4  0  0  0  0
  4  5  4  0  0  0  0
  4  8  4  0  0  0  0
  5  6  4  0  0  0  0
  6  7  4  0  0  0  0
  6 11  1  0  0  0  0
  7  8  4  0  0  0  0
  8  9  4  0  0  0  0
  9 10  4  0  0  0  0
 11 12  2  0  0  0  0
 11 13  1  0  0  0  0
 13 14  1  0  0  0  0
 13 17  1  0  0  0  0
 14 15  1  0  0  0  0
 15 16  1  0  0  0  0
 16 17  1  0  0  0  0
 17 18  1  0  0  0  0
 18 19  1  0  0  0  0
 19 20  1  0  0  0  0
 19 23  1  0  0  0  0
 20 21  1  0  0  0  0
 21 22  1  0  0  0  0
 22 23  1  0  0  0  0
M  END
>  <Name_Molregno>
348218

>  <HISTAMINE H3>
8.3

$$$$
348225
  Marvin  02231216192D 0   1.00000     0.00000     0

 26 29  0  0  1  0  0  0  0  0999 V2000
    0.0312   -0.7888    0.0000 F   0  0  0  0  0  0  0  0  0
   -0.6833   -0.3763    0.0000 C   0  0  0  0  0  0  0  0  0
   -0.2708    0.3381    0.0000 F   0  0  0  0  0  0  0  0  0
   -1.0958   -1.0908    0.0000 F   0  0  0  0  0  0  0  0  0
   -1.3978    0.0362    0.0000 C   0  0  0  0  0  0  0  0  0
   -2.1123   -0.3763    0.0000 C   0  0  0  0  0  0  0  0  0
   -2.8267    0.0362    0.0000 C   0  0  0  0  0  0  0  0  0
   -3.6114   -0.2188    0.0000 C   0  0  0  0  0  0  0  0  0
   -4.0963    0.4487    0.0000 C   0  0  0  0  0  0  0  0  0
   -3.6114    1.1161    0.0000 O   0  0  0  0  0  0  0  0  0
   -2.8267    0.8612    0.0000 C   0  0  0  0  0  0  0  0  0
   -2.1123    1.2737    0.0000 C   0  0  0  0  0  0  0  0  0
   -1.3978    0.8612    0.0000 C   0  0  0  0  0  0  0  0  0
   -4.9213    0.4487    0.0000 C   0  0  0  0  0  0  0  0  0
   -5.3338    1.1631    0.0000 O   0  0  0  0  0  0  0  0  0
   -5.3338   -0.2658    0.0000 N   0  0  0  0  0  0  0  0  0
   -4.9982   -1.0195    0.0000 C   0  0  0  0  0  0  0  0  0
   -5.6113   -1.5715    0.0000 C   0  0  0  0  0  0  0  0  0
   -6.3258   -1.1590    0.0000 C   0  0  0  0  0  0  0  0  0
   -6.1543   -0.3520    0.0000 C   0  0  0  0  0  0  0  0  0
   -6.7063    0.2611    0.0000 C   0  0  0  0  0  0  0  0  0
   -6.4513    1.0457    0.0000 N   0  0  0  0  0  0  0  0  0
   -6.9363    1.7131    0.0000 C   0  0  0  0  0  0  0  0  0
   -6.4513    2.3806    0.0000 C   0  0  0  0  0  0  0  0  0
   -5.6667    2.1256    0.0000 C   0  0  0  0  0  0  0  0  0
   -5.6667    1.3006    0.0000 C   0  0  0  0  0  0  0  0  0
  1  2  1  0  0  0  0
  2  3  1  0  0  0  0
  2  4  1  0  0  0  0
  2  5  1  0  0  0  0
  5  6  4  0  0  0  0
  5 13  4  0  0  0  0
  6  7  4  0  0  0  0
  7  8  4  0  0  0  0
  7 11  4  0  0  0  0
  8  9  4  0  0  0  0
  9 10  4  0  0  0  0
  9 14  1  0  0  0  0
 10 11  4  0  0  0  0
 11 12  4  0  0  0  0
 12 13  4  0  0  0  0
 14 15  2  0  0  0  0
 14 16  1  0  0  0  0
 16 17  1  0  0  0  0
 16 20  1  0  0  0  0
 17 18  1  0  0  0  0
 18 19  1  0  0  0  0
 19 20  1  0  0  0  0
 20 21  1  0  0  0  0
 21 22  1  0  0  0  0
 22 23  1  0  0  0  0
 22 26  1  0  0  0  0
 23 24  1  0  0  0  0
 24 25  1  0  0  0  0
 25 26  1  0  0  0  0
M  END
>  <Name_Molregno>
348225

>  <HISTAMINE H3>
8.4

$$$$
348226
  Marvin  02231216192D 0   1.00000     0.00000     0

 27 30  0  0  1  0  0  0  0  0999 V2000
    0.4150   -1.1066    0.0000 F   0  0  0  0  0  0  0  0  0
   -0.2995   -0.6941    0.0000 C   0  0  0  0  0  0  0  0  0
    0.1130    0.0204    0.0000 F   0  0  0  0  0  0  0  0  0
   -0.7120   -1.4086    0.0000 F   0  0  0  0  0  0  0  0  0
   -1.0140   -0.2816    0.0000 C   0  0  0  0  0  0  0  0  0
   -1.7284   -0.6941    0.0000 C   0  0  0  0  0  0  0  0  0
   -2.4429   -0.2816    0.0000 C   0  0  0  0  0  0  0  0  0
   -3.2275   -0.5365    0.0000 C   0  0  0  0  0  0  0  0  0
   -3.7125    0.1309    0.0000 C   0  0  0  0  0  0  0  0  0
   -3.2275    0.7983    0.0000 O   0  0  0  0  0  0  0  0  0
   -2.4429    0.5434    0.0000 C   0  0  0  0  0  0  0  0  0
   -1.7284    0.9559    0.0000 C   0  0  0  0  0  0  0  0  0
   -1.0140    0.5434    0.0000 C   0  0  0  0  0  0  0  0  0
   -4.5375    0.1309    0.0000 C   0  0  0  0  0  0  0  0  0
   -4.9500    0.8454    0.0000 O   0  0  0  0  0  0  0  0  0
   -4.9500   -0.5836    0.0000 N   0  0  0  0  0  0  0  0  0
   -4.6144   -1.3373    0.0000 C   0  0  0  0  0  0  0  0  0
   -5.2275   -1.8893    0.0000 C   0  0  0  0  0  0  0  0  0
   -5.9420   -1.4768    0.0000 C   0  0  0  0  0  0  0  0  0
   -5.7704   -0.6698    0.0000 C   0  0  0  0  0  0  0  0  0
   -6.3225   -0.0567    0.0000 C   0  0  0  0  0  0  0  0  0
   -7.1294   -0.2282    0.0000 N   0  0  0  0  0  0  0  0  0
   -7.3844   -1.0129    0.0000 C   0  0  0  0  0  0  0  0  0
   -8.1914   -1.1844    0.0000 C   0  0  0  0  0  0  0  0  0
   -8.7434   -0.5713    0.0000 C   0  0  0  0  0  0  0  0  0
   -8.4885    0.2133    0.0000 C   0  0  0  0  0  0  0  0  0
   -7.6815    0.3848    0.0000 C   0  0  0  0  0  0  0  0  0
  1  2  1  0  0  0  0
  2  3  1  0  0  0  0
  2  4  1  0  0  0  0
  2  5  1  0  0  0  0
  5  6  4  0  0  0  0
  5 13  4  0  0  0  0
  6  7  4  0  0  0  0
  7  8  4  0  0  0  0
  7 11  4  0  0  0  0
  8  9  4  0  0  0  0
  9 10  4  0  0  0  0
  9 14  1  0  0  0  0
 10 11  4  0  0  0  0
 11 12  4  0  0  0  0
 12 13  4  0  0  0  0
 14 15  2  0  0  0  0
 14 16  1  0  0  0  0
 16 17  1  0  0  0  0
 16 20  1  0  0  0  0
 17 18  1  0  0  0  0
 18 19  1  0  0  0  0
 19 20  1  0  0  0  0
 20 21  1  0  0  0  0
 21 22  1  0  0  0  0
 22 23  1  0  0  0  0
 22 27  1  0  0  0  0
 23 24  1  0  0  0  0
 24 25  1  0  0  0  0
 25 26  1  0  0  0  0
 26 27  1  0  0  0  0
M  END
>  <Name_Molregno>
348226

>  <HISTAMINE H3>
8.15

$$$$
350217
  Marvin  02231216192D 0   1.00000     0.00000     0

 20 22  0  0  0  0  0  0  0  0999 V2000
   -0.0069   -0.6523    0.0000 O   0  0  0  0  0  0  0  0  0
    0.7076   -0.2398    0.0000 C   0  0  0  0  0  0  0  0  0
    1.4220   -0.6523    0.0000 C   0  0  0  0  0  0  0  0  0
    2.1365   -0.2398    0.0000 C   0  0  0  0  0  0  0  0  0
    2.8510   -0.6523    0.0000 N   0  0  0  0  0  0  0  0  0
    3.5654   -0.2398    0.0000 C   0  0  0  0  0  0  0  0  0
    4.2799   -0.6523    0.0000 C   0  0  0  0  0  0  0  0  0
    4.2799   -1.4773    0.0000 C   0  0  0  0  0  0  0  0  0
    3.5654   -1.8898    0.0000 C   0  0  0  0  0  0  0  0  0
    2.8510   -1.4773    0.0000 C   0  0  0  0  0  0  0  0  0
   -0.7214   -0.2398    0.0000 C   0  0  0  0  0  0  0  0  0
   -1.4359   -0.6523    0.0000 C   0  0  0  0  0  0  0  0  0
   -2.1503   -0.2398    0.0000 C   0  0  0  0  0  0  0  0  0
   -2.8648   -0.6523    0.0000 C   0  0  0  0  0  0  0  0  0
   -3.5793   -0.2398    0.0000 C   0  0  0  0  0  0  0  0  0
   -3.5793    0.5852    0.0000 C   0  0  0  0  0  0  0  0  0
   -2.8648    0.9977    0.0000 N   0  0  0  0  0  0  0  0  0
   -2.1503    0.5852    0.0000 C   0  0  0  0  0  0  0  0  0
   -1.4359    0.9977    0.0000 C   0  0  0  0  0  0  0  0  0
   -0.7214    0.5852    0.0000 C   0  0  0  0  0  0  0  0  0
  1  2  1  0  0  0  0
  1 11  1  0  0  0  0
  2  3  1  0  0  0  0
  3  4  1  0  0  0  0
  4  5  1  0  0  0  0
  5  6  1  0  0  0  0
  5 10  1  0  0  0  0
  6  7  1  0  0  0  0
  7  8  1  0  0  0  0
  8  9  1  0  0  0  0
  9 10  1  0  0  0  0
 11 12  4  0  0  0  0
 11 20  4  0  0  0  0
 12 13  4  0  0  0  0
 13 14  1  0  0  0  0
 13 18  4  0  0  0  0
 14 15  1  0  0  0  0
 15 16  1  0  0  0  0
 16 17  1  0  0  0  0
 17 18  1  0  0  0  0
 18 19  4  0  0  0  0
 19 20  4  0  0  0  0
M  END
>  <Name_Molregno>
350217

>  <HISTAMINE H3>
7.27

$$$$
350218
  Marvin  02231216192D 0   1.00000     0.00000     0

 22 24  0  0  0  0  0  0  0  0999 V2000
    0.1950   -1.0729    0.0000 O   0  0  0  0  0  0  0  0  0
    0.9094   -0.6604    0.0000 C   0  0  0  0  0  0  0  0  0
    1.6239   -1.0729    0.0000 C   0  0  0  0  0  0  0  0  0
    2.3384   -0.6604    0.0000 C   0  0  0  0  0  0  0  0  0
    3.0529   -1.0729    0.0000 N   0  0  0  0  0  0  0  0  0
    3.7673   -0.6604    0.0000 C   0  0  0  0  0  0  0  0  0
    4.4818   -1.0729    0.0000 C   0  0  0  0  0  0  0  0  0
    4.4818   -1.8979    0.0000 C   0  0  0  0  0  0  0  0  0
    3.7673   -2.3104    0.0000 C   0  0  0  0  0  0  0  0  0
    3.0529   -1.8979    0.0000 C   0  0  0  0  0  0  0  0  0
   -0.5195   -0.6604    0.0000 C   0  0  0  0  0  0  0  0  0
   -1.2340   -1.0729    0.0000 C   0  0  0  0  0  0  0  0  0
   -1.9484   -0.6604    0.0000 C   0  0  0  0  0  0  0  0  0
   -2.6629   -1.0729    0.0000 C   0  0  0  0  0  0  0  0  0
   -3.3774   -0.6604    0.0000 C   0  0  0  0  0  0  0  0  0
   -3.3774    0.1646    0.0000 C   0  0  0  0  0  0  0  0  0
   -2.6629    0.5771    0.0000 N   0  0  0  0  0  0  0  0  0
   -1.9484    0.1646    0.0000 C   0  0  0  0  0  0  0  0  0
   -1.2340    0.5771    0.0000 C   0  0  0  0  0  0  0  0  0
   -0.5195    0.1646    0.0000 C   0  0  0  0  0  0  0  0  0
   -2.6629    1.4021    0.0000 C   0  0  0  0  0  0  0  0  0
   -3.3774    1.8146    0.0000 C   0  0  0  0  0  0  0  0  0
  1  2  1  0  0  0  0
  1 11  1  0  0  0  0
  2  3  1  0  0  0  0
  3  4  1  0  0  0  0
  4  5  1  0  0  0  0
  5  6  1  0  0  0  0
  5 10  1  0  0  0  0
  6  7  1  0  0  0  0
  7  8  1  0  0  0  0
  8  9  1  0  0  0  0
  9 10  1  0  0  0  0
 11 12  4  0  0  0  0
 11 20  4  0  0  0  0
 12 13  4  0  0  0  0
 13 14  1  0  0  0  0
 13 18  4  0  0  0  0
 14 15  1  0  0  0  0
 15 16  1  0  0  0  0
 16 17  1  0  0  0  0
 17 18  1  0  0  0  0
 17 21  1  0  0  0  0
 18 19  4  0  0  0  0
 19 20  4  0  0  0  0
 21 22  1  0  0  0  0
M  END
>  <Name_Molregno>
350218

>  <HISTAMINE H3>
7.39

$$$$
350253
  Marvin  02231216192D 0   1.00000     0.00000     0

 27 30  0  0  0  0  0  0  0  0999 V2000
    0.3833    0.6144    0.0000 O   0  0  0  0  0  0  0  0  0
   -0.3312    0.2019    0.0000 C   0  0  0  0  0  0  0  0  0
   -1.0457    0.6144    0.0000 C   0  0  0  0  0  0  0  0  0
   -1.7601    0.2019    0.0000 C   0  0  0  0  0  0  0  0  0
   -2.4746    0.6144    0.0000 N   0  0  0  0  0  0  0  0  0
   -3.1891    0.2019    0.0000 C   0  0  0  0  0  0  0  0  0
   -3.9036    0.6144    0.0000 C   0  0  0  0  0  0  0  0  0
   -3.9036    1.4394    0.0000 C   0  0  0  0  0  0  0  0  0
   -3.1891    1.8519    0.0000 C   0  0  0  0  0  0  0  0  0
   -2.4746    1.4394    0.0000 C   0  0  0  0  0  0  0  0  0
    1.0977    0.2019    0.0000 C   0  0  0  0  0  0  0  0  0
    1.8122    0.6144    0.0000 C   0  0  0  0  0  0  0  0  0
    2.5267    0.2019    0.0000 C   0  0  0  0  0  0  0  0  0
    3.2412    0.6144    0.0000 C   0  0  0  0  0  0  0  0  0
    3.9556    0.2019    0.0000 C   0  0  0  0  0  0  0  0  0
    3.9556   -0.6231    0.0000 C   0  0  0  0  0  0  0  0  0
    3.2412   -1.0356    0.0000 N   0  0  0  0  0  0  0  0  0
    2.5267   -0.6231    0.0000 C   0  0  0  0  0  0  0  0  0
    1.8122   -1.0356    0.0000 C   0  0  0  0  0  0  0  0  0
    1.0977   -0.6231    0.0000 C   0  0  0  0  0  0  0  0  0
    3.2412   -1.8606    0.0000 C   0  0  0  0  0  0  0  0  0
    3.9556   -2.2731    0.0000 C   0  0  0  0  0  0  0  0  0
    4.6701   -1.8606    0.0000 C   0  0  0  0  0  0  0  0  0
    5.3846   -2.2731    0.0000 C   0  0  0  0  0  0  0  0  0
    5.3846   -3.0981    0.0000 C   0  0  0  0  0  0  0  0  0
    4.6701   -3.5106    0.0000 C   0  0  0  0  0  0  0  0  0
    3.9556   -3.0981    0.0000 C   0  0  0  0  0  0  0  0  0
  1  2  1  0  0  0  0
  1 11  1  0  0  0  0
  2  3  1  0  0  0  0
  3  4  1  0  0  0  0
  4  5  1  0  0  0  0
  5  6  1  0  0  0  0
  5 10  1  0  0  0  0
  6  7  1  0  0  0  0
  7  8  1  0  0  0  0
  8  9  1  0  0  0  0
  9 10  1  0  0  0  0
 11 12  4  0  0  0  0
 11 20  4  0  0  0  0
 12 13  4  0  0  0  0
 13 14  1  0  0  0  0
 13 18  4  0  0  0  0
 14 15  1  0  0  0  0
 15 16  1  0  0  0  0
 16 17  1  0  0  0  0
 17 18  1  0  0  0  0
 17 21  1  0  0  0  0
 18 19  4  0  0  0  0
 19 20  4  0  0  0  0
 21 22  1  0  0  0  0
 22 23  1  0  0  0  0
 22 27  1  0  0  0  0
 23 24  1  0  0  0  0
 24 25  1  0  0  0  0
 25 26  1  0  0  0  0
 26 27  1  0  0  0  0
M  END
>  <Name_Molregno>
350253

>  <HISTAMINE H3>
7.51

$$$$
350254
  Marvin  02231216192D 0   1.00000     0.00000     0

 29 32  0  0  0  0  0  0  0  0999 V2000
   -4.4961   -1.6992    0.0000 S   0  0  0  0  0  0  0  0  0
   -5.3211   -1.6992    0.0000 O   0  0  0  0  0  0  0  0  0
   -3.6711   -1.6992    0.0000 O   0  0  0  0  0  0  0  0  0
   -4.4961   -0.8742    0.0000 N   0  0  0  0  0  0  0  0  0
   -5.2106   -0.4617    0.0000 C   0  0  0  0  0  0  0  0  0
   -5.2106    0.3633    0.0000 C   0  0  0  0  0  0  0  0  0
   -4.4961    0.7758    0.0000 C   0  0  0  0  0  0  0  0  0
   -3.7816    0.3633    0.0000 C   0  0  0  0  0  0  0  0  0
   -3.0672    0.7758    0.0000 C   0  0  0  0  0  0  0  0  0
   -2.3527    0.3633    0.0000 C   0  0  0  0  0  0  0  0  0
   -1.6382    0.7758    0.0000 O   0  0  0  0  0  0  0  0  0
   -0.9238    0.3633    0.0000 C   0  0  0  0  0  0  0  0  0
   -0.2093    0.7758    0.0000 C   0  0  0  0  0  0  0  0  0
    0.5052    0.3633    0.0000 C   0  0  0  0  0  0  0  0  0
    1.2197    0.7758    0.0000 N   0  0  0  0  0  0  0  0  0
    1.2197    1.6008    0.0000 C   0  0  0  0  0  0  0  0  0
    1.9341    2.0133    0.0000 C   0  0  0  0  0  0  0  0  0
    2.6486    1.6008    0.0000 C   0  0  0  0  0  0  0  0  0
    2.6486    0.7758    0.0000 C   0  0  0  0  0  0  0  0  0
    1.9341    0.3633    0.0000 C   0  0  0  0  0  0  0  0  0
   -2.3527   -0.4617    0.0000 C   0  0  0  0  0  0  0  0  0
   -3.0672   -0.8742    0.0000 C   0  0  0  0  0  0  0  0  0
   -3.7816   -0.4617    0.0000 C   0  0  0  0  0  0  0  0  0
   -4.4961   -2.5242    0.0000 C   0  0  0  0  0  0  0  0  0
   -3.7816   -2.9367    0.0000 C   0  0  0  0  0  0  0  0  0
   -3.7816   -3.7617    0.0000 C   0  0  0  0  0  0  0  0  0
   -4.4961   -4.1742    0.0000 C   0  0  0  0  0  0  0  0  0
   -5.2106   -3.7617    0.0000 C   0  0  0  0  0  0  0  0  0
   -5.2106   -2.9367    0.0000 C   0  0  0  0  0  0  0  0  0
  1  2  2  0  0  0  0
  1  3  2  0  0  0  0
  1  4  1  0  0  0  0
  1 24  1  0  0  0  0
  4  5  1  0  0  0  0
  4 23  1  0  0  0  0
  5  6  1  0  0  0  0
  6  7  1  0  0  0  0
  7  8  1  0  0  0  0
  8  9  4  0  0  0  0
  8 23  4  0  0  0  0
  9 10  4  0  0  0  0
 10 11  1  0  0  0  0
 10 21  4  0  0  0  0
 11 12  1  0  0  0  0
 12 13  1  0  0  0  0
 13 14  1  0  0  0  0
 14 15  1  0  0  0  0
 15 16  1  0  0  0  0
 15 20  1  0  0  0  0
 16 17  1  0  0  0  0
 17 18  1  0  0  0  0
 18 19  1  0  0  0  0
 19 20  1  0  0  0  0
 21 22  4  0  0  0  0
 22 23  4  0  0  0  0
 24 25  4  0  0  0  0
 24 29  4  0  0  0  0
 25 26  4  0  0  0  0
 26 27  4  0  0  0  0
 27 28  4  0  0  0  0
 28 29  4  0  0  0  0
M  END
>  <Name_Molregno>
350254

>  <HISTAMINE H3>
7.74

$$$$
350281
  Marvin  02231216192D 0   1.00000     0.00000     0

 20 22  0  0  0  0  0  0  0  0999 V2000
   -0.0069   -0.6523    0.0000 O   0  0  0  0  0  0  0  0  0
    0.7076   -0.2398    0.0000 C   0  0  0  0  0  0  0  0  0
    1.4220   -0.6523    0.0000 C   0  0  0  0  0  0  0  0  0
    2.1365   -0.2398    0.0000 C   0  0  0  0  0  0  0  0  0
    2.8510   -0.6523    0.0000 N   0  0  0  0  0  0  0  0  0
    3.5654   -0.2398    0.0000 C   0  0  0  0  0  0  0  0  0
    4.2799   -0.6523    0.0000 C   0  0  0  0  0  0  0  0  0
    4.2799   -1.4773    0.0000 C   0  0  0  0  0  0  0  0  0
    3.5654   -1.8898    0.0000 C   0  0  0  0  0  0  0  0  0
    2.8510   -1.4773    0.0000 C   0  0  0  0  0  0  0  0  0
   -0.7214   -0.2398    0.0000 C   0  0  0  0  0  0  0  0  0
   -1.4359   -0.6523    0.0000 C   0  0  0  0  0  0  0  0  0
   -2.1503   -0.2398    0.0000 C   0  0  0  0  0  0  0  0  0
   -2.8648   -0.6523    0.0000 N   0  0  0  0  0  0  0  0  0
   -3.5793   -0.2398    0.0000 C   0  0  0  0  0  0  0  0  0
   -3.5793    0.5852    0.0000 C   0  0  0  0  0  0  0  0  0
   -2.8648    0.9977    0.0000 C   0  0  0  0  0  0  0  0  0
   -2.1503    0.5852    0.0000 C   0  0  0  0  0  0  0  0  0
   -1.4359    0.9977    0.0000 C   0  0  0  0  0  0  0  0  0
   -0.7214    0.5852    0.0000 C   0  0  0  0  0  0  0  0  0
  1  2  1  0  0  0  0
  1 11  1  0  0  0  0
  2  3  1  0  0  0  0
  3  4  1  0  0  0  0
  4  5  1  0  0  0  0
  5  6  1  0  0  0  0
  5 10  1  0  0  0  0
  6  7  1  0  0  0  0
  7  8  1  0  0  0  0
  8  9  1  0  0  0  0
  9 10  1  0  0  0  0
 11 12  4  0  0  0  0
 11 20  4  0  0  0  0
 12 13  4  0  0  0  0
 13 14  1  0  0  0  0
 13 18  4  0  0  0  0
 14 15  1  0  0  0  0
 15 16  1  0  0  0  0
 16 17  1  0  0  0  0
 17 18  1  0  0  0  0
 18 19  4  0  0  0  0
 19 20  4  0  0  0  0
M  END
>  <Name_Molregno>
350281

>  <HISTAMINE H3>
6.89

$$$$
350282
  Marvin  02231216192D 0   1.00000     0.00000     0

 22 24  0  0  0  0  0  0  0  0999 V2000
    0.0028   -0.4073    0.0000 O   0  0  0  0  0  0  0  0  0
    0.7173    0.0052    0.0000 C   0  0  0  0  0  0  0  0  0
    1.4318   -0.4073    0.0000 C   0  0  0  0  0  0  0  0  0
    2.1462    0.0052    0.0000 C   0  0  0  0  0  0  0  0  0
    2.8607   -0.4073    0.0000 N   0  0  0  0  0  0  0  0  0
    3.5752    0.0052    0.0000 C   0  0  0  0  0  0  0  0  0
    4.2897   -0.4073    0.0000 C   0  0  0  0  0  0  0  0  0
    4.2897   -1.2323    0.0000 C   0  0  0  0  0  0  0  0  0
    3.5752   -1.6448    0.0000 C   0  0  0  0  0  0  0  0  0
    2.8607   -1.2323    0.0000 C   0  0  0  0  0  0  0  0  0
   -0.7116    0.0052    0.0000 C   0  0  0  0  0  0  0  0  0
   -1.4261   -0.4073    0.0000 C   0  0  0  0  0  0  0  0  0
   -2.1406    0.0052    0.0000 C   0  0  0  0  0  0  0  0  0
   -2.8551   -0.4073    0.0000 N   0  0  0  0  0  0  0  0  0
   -3.5695    0.0052    0.0000 C   0  0  0  0  0  0  0  0  0
   -3.5695    0.8302    0.0000 C   0  0  0  0  0  0  0  0  0
   -2.8551    1.2427    0.0000 C   0  0  0  0  0  0  0  0  0
   -2.1406    0.8302    0.0000 C   0  0  0  0  0  0  0  0  0
   -1.4261    1.2427    0.0000 C   0  0  0  0  0  0  0  0  0
   -0.7116    0.8302    0.0000 C   0  0  0  0  0  0  0  0  0
   -2.8551   -1.2323    0.0000 C   0  0  0  0  0  0  0  0  0
   -3.5695   -1.6448    0.0000 C   0  0  0  0  0  0  0  0  0
  1  2  1  0  0  0  0
  1 11  1  0  0  0  0
  2  3  1  0  0  0  0
  3  4  1  0  0  0  0
  4  5  1  0  0  0  0
  5  6  1  0  0  0  0
  5 10  1  0  0  0  0
  6  7  1  0  0  0  0
  7  8  1  0  0  0  0
  8  9  1  0  0  0  0
  9 10  1  0  0  0  0
 11 12  4  0  0  0  0
 11 20  4  0  0  0  0
 12 13  4  0  0  0  0
 13 14  1  0  0  0  0
 13 18  4  0  0  0  0
 14 15  1  0  0  0  0
 14 21  1  0  0  0  0
 15 16  1  0  0  0  0
 16 17  1  0  0  0  0
 17 18  1  0  0  0  0
 18 19  4  0  0  0  0
 19 20  4  0  0  0  0
 21 22  1  0  0  0  0
M  END
>  <Name_Molregno>
350282

>  <HISTAMINE H3>
6.81

$$$$
350308
  Marvin  02231216192D 0   1.00000     0.00000     0

 20 22  0  0  0  0  0  0  0  0999 V2000
   -0.0069    0.6523    0.0000 O   0  0  0  0  0  0  0  0  0
    0.7076    0.2398    0.0000 C   0  0  0  0  0  0  0  0  0
    1.4220    0.6523    0.0000 C   0  0  0  0  0  0  0  0  0
    2.1365    0.2398    0.0000 C   0  0  0  0  0  0  0  0  0
    2.8510    0.6523    0.0000 N   0  0  0  0  0  0  0  0  0
    2.8510    1.4773    0.0000 C   0  0  0  0  0  0  0  0  0
    3.5654    1.8898    0.0000 C   0  0  0  0  0  0  0  0  0
    4.2799    1.4773    0.0000 C   0  0  0  0  0  0  0  0  0
    4.2799    0.6523    0.0000 C   0  0  0  0  0  0  0  0  0
    3.5654    0.2398    0.0000 C   0  0  0  0  0  0  0  0  0
   -0.7214    0.2398    0.0000 C   0  0  0  0  0  0  0  0  0
   -1.4359    0.6523    0.0000 C   0  0  0  0  0  0  0  0  0
   -2.1503    0.2398    0.0000 C   0  0  0  0  0  0  0  0  0
   -2.1503   -0.5852    0.0000 C   0  0  0  0  0  0  0  0  0
   -2.8648   -0.9977    0.0000 C   0  0  0  0  0  0  0  0  0
   -3.5793   -0.5852    0.0000 C   0  0  0  0  0  0  0  0  0
   -3.5793    0.2398    0.0000 N   0  0  0  0  0  0  0  0  0
   -2.8648    0.6523    0.0000 C   0  0  0  0  0  0  0  0  0
   -1.4359   -0.9977    0.0000 C   0  0  0  0  0  0  0  0  0
   -0.7214   -0.5852    0.0000 C   0  0  0  0  0  0  0  0  0
  1  2  1  0  0  0  0
  1 11  1  0  0  0  0
  2  3  1  0  0  0  0
  3  4  1  0  0  0  0
  4  5  1  0  0  0  0
  5  6  1  0  0  0  0
  5 10  1  0  0  0  0
  6  7  1  0  0  0  0
  7  8  1  0  0  0  0
  8  9  1  0  0  0  0
  9 10  1  0  0  0  0
 11 12  4  0  0  0  0
 11 20  4  0  0  0  0
 12 13  4  0  0  0  0
 13 14  4  0  0  0  0
 13 18  1  0  0  0  0
 14 15  1  0  0  0  0
 14 19  4  0  0  0  0
 15 16  1  0  0  0  0
 16 17  1  0  0  0  0
 17 18  1  0  0  0  0
 19 20  4  0  0  0  0
M  END
>  <Name_Molregno>
350308

>  <HISTAMINE H3>
9.22

$$$$
350309
  Marvin  02231216192D 0   1.00000     0.00000     0

 22 24  0  0  0  0  0  0  0  0999 V2000
    0.0041    0.6279    0.0000 O   0  0  0  0  0  0  0  0  0
    0.7186    0.2154    0.0000 C   0  0  0  0  0  0  0  0  0
    1.4330    0.6279    0.0000 C   0  0  0  0  0  0  0  0  0
    2.1475    0.2154    0.0000 C   0  0  0  0  0  0  0  0  0
    2.8620    0.6279    0.0000 N   0  0  0  0  0  0  0  0  0
    2.8620    1.4529    0.0000 C   0  0  0  0  0  0  0  0  0
    3.5764    1.8654    0.0000 C   0  0  0  0  0  0  0  0  0
    4.2909    1.4529    0.0000 C   0  0  0  0  0  0  0  0  0
    4.2909    0.6279    0.0000 C   0  0  0  0  0  0  0  0  0
    3.5764    0.2154    0.0000 C   0  0  0  0  0  0  0  0  0
   -0.7104    0.2154    0.0000 C   0  0  0  0  0  0  0  0  0
   -1.4249    0.6279    0.0000 C   0  0  0  0  0  0  0  0  0
   -2.1393    0.2154    0.0000 C   0  0  0  0  0  0  0  0  0
   -2.1393   -0.6096    0.0000 C   0  0  0  0  0  0  0  0  0
   -2.8538   -1.0221    0.0000 C   0  0  0  0  0  0  0  0  0
   -3.5683   -0.6096    0.0000 C   0  0  0  0  0  0  0  0  0
   -3.5683    0.2154    0.0000 N   0  0  0  0  0  0  0  0  0
   -2.8538    0.6279    0.0000 C   0  0  0  0  0  0  0  0  0
   -4.2827    0.6279    0.0000 C   0  0  0  0  0  0  0  0  0
   -4.9972    0.2154    0.0000 C   0  0  0  0  0  0  0  0  0
   -1.4249   -1.0221    0.0000 C   0  0  0  0  0  0  0  0  0
   -0.7104   -0.6096    0.0000 C   0  0  0  0  0  0  0  0  0
  1  2  1  0  0  0  0
  1 11  1  0  0  0  0
  2  3  1  0  0  0  0
  3  4  1  0  0  0  0
  4  5  1  0  0  0  0
  5  6  1  0  0  0  0
  5 10  1  0  0  0  0
  6  7  1  0  0  0  0
  7  8  1  0  0  0  0
  8  9  1  0  0  0  0
  9 10  1  0  0  0  0
 11 12  4  0  0  0  0
 11 22  4  0  0  0  0
 12 13  4  0  0  0  0
 13 14  4  0  0  0  0
 13 18  1  0  0  0  0
 14 15  1  0  0  0  0
 14 21  4  0  0  0  0
 15 16  1  0  0  0  0
 16 17  1  0  0  0  0
 17 18  1  0  0  0  0
 17 19  1  0  0  0  0
 19 20  1  0  0  0  0
 21 22  4  0  0  0  0
M  END
>  <Name_Molregno>
350309

>  <HISTAMINE H3>
9.47

$$$$
350310
  Marvin  02231216192D 0   1.00000     0.00000     0

 27 30  0  0  0  0  0  0  0  0999 V2000
   -2.5094   -0.0174    0.0000 O   0  0  0  0  0  0  0  0  0
   -3.2239    0.3951    0.0000 C   0  0  0  0  0  0  0  0  0
   -3.9384   -0.0174    0.0000 C   0  0  0  0  0  0  0  0  0
   -4.6528    0.3951    0.0000 C   0  0  0  0  0  0  0  0  0
   -5.3673   -0.0174    0.0000 N   0  0  0  0  0  0  0  0  0
   -5.3673   -0.8424    0.0000 C   0  0  0  0  0  0  0  0  0
   -6.0818   -1.2549    0.0000 C   0  0  0  0  0  0  0  0  0
   -6.7963   -0.8424    0.0000 C   0  0  0  0  0  0  0  0  0
   -6.7963   -0.0174    0.0000 C   0  0  0  0  0  0  0  0  0
   -6.0818    0.3951    0.0000 C   0  0  0  0  0  0  0  0  0
   -1.7950    0.3951    0.0000 C   0  0  0  0  0  0  0  0  0
   -1.0805   -0.0174    0.0000 C   0  0  0  0  0  0  0  0  0
   -0.3660    0.3951    0.0000 C   0  0  0  0  0  0  0  0  0
   -0.3660    1.2201    0.0000 C   0  0  0  0  0  0  0  0  0
    0.3484    1.6326    0.0000 C   0  0  0  0  0  0  0  0  0
    1.0629    1.2201    0.0000 C   0  0  0  0  0  0  0  0  0
    1.0629    0.3951    0.0000 N   0  0  0  0  0  0  0  0  0
    0.3484   -0.0174    0.0000 C   0  0  0  0  0  0  0  0  0
    1.7774   -0.0174    0.0000 C   0  0  0  0  0  0  0  0  0
    2.4919    0.3951    0.0000 C   0  0  0  0  0  0  0  0  0
    2.4919    1.2201    0.0000 C   0  0  0  0  0  0  0  0  0
    3.2063    1.6326    0.0000 C   0  0  0  0  0  0  0  0  0
    3.9208    1.2201    0.0000 C   0  0  0  0  0  0  0  0  0
    3.9208    0.3951    0.0000 C   0  0  0  0  0  0  0  0  0
    3.2063   -0.0174    0.0000 C   0  0  0  0  0  0  0  0  0
   -1.0805    1.6326    0.0000 C   0  0  0  0  0  0  0  0  0
   -1.7950    1.2201    0.0000 C   0  0  0  0  0  0  0  0  0
  1  2  1  0  0  0  0
  1 11  1  0  0  0  0
  2  3  1  0  0  0  0
  3  4  1  0  0  0  0
  4  5  1  0  0  0  0
  5  6  1  0  0  0  0
  5 10  1  0  0  0  0
  6  7  1  0  0  0  0
  7  8  1  0  0  0  0
  8  9  1  0  0  0  0
  9 10  1  0  0  0  0
 11 12  4  0  0  0  0
 11 27  4  0  0  0  0
 12 13  4  0  0  0  0
 13 14  4  0  0  0  0
 13 18  1  0  0  0  0
 14 15  1  0  0  0  0
 14 26  4  0  0  0  0
 15 16  1  0  0  0  0
 16 17  1  0  0  0  0
 17 18  1  0  0  0  0
 17 19  1  0  0  0  0
 19 20  1  0  0  0  0
 20 21  1  0  0  0  0
 20 25  1  0  0  0  0
 21 22  1  0  0  0  0
 22 23  1  0  0  0  0
 23 24  1  0  0  0  0
 24 25  1  0  0  0  0
 26 27  4  0  0  0  0
M  END
>  <Name_Molregno>
350310

>  <HISTAMINE H3>
9.46

$$$$
350348
  Marvin  02231216192D 0   1.00000     0.00000     0

 29 32  0  0  0  0  0  0  0  0999 V2000
   -0.0731   -0.0041    0.0000 S   0  0  0  0  0  0  0  0  0
    0.3394    0.7104    0.0000 O   0  0  0  0  0  0  0  0  0
   -0.4856   -0.7186    0.0000 O   0  0  0  0  0  0  0  0  0
    0.6414   -0.4166    0.0000 N   0  0  0  0  0  0  0  0  0
    0.6414   -1.2416    0.0000 C   0  0  0  0  0  0  0  0  0
    1.3559   -1.6541    0.0000 C   0  0  0  0  0  0  0  0  0
    2.0703   -1.2416    0.0000 C   0  0  0  0  0  0  0  0  0
    2.0703   -0.4166    0.0000 C   0  0  0  0  0  0  0  0  0
    2.7848   -0.0041    0.0000 C   0  0  0  0  0  0  0  0  0
    3.4993   -0.4166    0.0000 C   0  0  0  0  0  0  0  0  0
    4.2137   -0.0041    0.0000 O   0  0  0  0  0  0  0  0  0
    4.9282   -0.4166    0.0000 C   0  0  0  0  0  0  0  0  0
    5.6427   -0.0041    0.0000 C   0  0  0  0  0  0  0  0  0
    6.3572   -0.4166    0.0000 C   0  0  0  0  0  0  0  0  0
    7.0716   -0.0041    0.0000 N   0  0  0  0  0  0  0  0  0
    7.0716    0.8209    0.0000 C   0  0  0  0  0  0  0  0  0
    7.7861    1.2334    0.0000 C   0  0  0  0  0  0  0  0  0
    8.5006    0.8209    0.0000 C   0  0  0  0  0  0  0  0  0
    8.5006   -0.0041    0.0000 C   0  0  0  0  0  0  0  0  0
    7.7861   -0.4166    0.0000 C   0  0  0  0  0  0  0  0  0
    3.4993   -1.2416    0.0000 C   0  0  0  0  0  0  0  0  0
    2.7848   -1.6541    0.0000 C   0  0  0  0  0  0  0  0  0
    1.3559   -0.0041    0.0000 C   0  0  0  0  0  0  0  0  0
   -0.7876    0.4084    0.0000 C   0  0  0  0  0  0  0  0  0
   -1.5020   -0.0041    0.0000 C   0  0  0  0  0  0  0  0  0
   -2.2165    0.4084    0.0000 C   0  0  0  0  0  0  0  0  0
   -2.2165    1.2334    0.0000 C   0  0  0  0  0  0  0  0  0
   -1.5020    1.6459    0.0000 C   0  0  0  0  0  0  0  0  0
   -0.7876    1.2334    0.0000 C   0  0  0  0  0  0  0  0  0
  1  2  2  0  0  0  0
  1  3  2  0  0  0  0
  1  4  1  0  0  0  0
  1 24  1  0  0  0  0
  4  5  1  0  0  0  0
  4 23  1  0  0  0  0
  5  6  1  0  0  0  0
  6  7  1  0  0  0  0
  7  8  4  0  0  0  0
  7 22  4  0  0  0  0
  8  9  4  0  0  0  0
  8 23  1  0  0  0  0
  9 10  4  0  0  0  0
 10 11  1  0  0  0  0
 10 21  4  0  0  0  0
 11 12  1  0  0  0  0
 12 13  1  0  0  0  0
 13 14  1  0  0  0  0
 14 15  1  0  0  0  0
 15 16  1  0  0  0  0
 15 20  1  0  0  0  0
 16 17  1  0  0  0  0
 17 18  1  0  0  0  0
 18 19  1  0  0  0  0
 19 20  1  0  0  0  0
 21 22  4  0  0  0  0
 24 25  4  0  0  0  0
 24 29  4  0  0  0  0
 25 26  4  0  0  0  0
 26 27  4  0  0  0  0
 27 28  4  0  0  0  0
 28 29  4  0  0  0  0
M  END
>  <Name_Molregno>
350348

>  <HISTAMINE H3>
9.28

$$$$
350349
  Marvin  02231216192D 0   1.00000     0.00000     0

 29 32  0  0  0  0  0  0  0  0999 V2000
   -0.0730   -0.0187    0.0000 S   0  0  0  0  0  0  0  0  0
   -0.4855    0.6958    0.0000 O   0  0  0  0  0  0  0  0  0
    0.3395   -0.7331    0.0000 O   0  0  0  0  0  0  0  0  0
    0.6414    0.3938    0.0000 N   0  0  0  0  0  0  0  0  0
    0.6414    1.2188    0.0000 C   0  0  0  0  0  0  0  0  0
    1.3559    1.6313    0.0000 C   0  0  0  0  0  0  0  0  0
    2.0704    1.2188    0.0000 C   0  0  0  0  0  0  0  0  0
    2.7848    1.6313    0.0000 C   0  0  0  0  0  0  0  0  0
    3.4993    1.2188    0.0000 C   0  0  0  0  0  0  0  0  0
    4.2138    1.6313    0.0000 O   0  0  0  0  0  0  0  0  0
    4.9282    1.2188    0.0000 C   0  0  0  0  0  0  0  0  0
    5.6427    1.6313    0.0000 C   0  0  0  0  0  0  0  0  0
    6.3572    1.2188    0.0000 C   0  0  0  0  0  0  0  0  0
    7.0717    1.6313    0.0000 N   0  0  0  0  0  0  0  0  0
    7.0717    2.4563    0.0000 C   0  0  0  0  0  0  0  0  0
    7.7861    2.8688    0.0000 C   0  0  0  0  0  0  0  0  0
    8.5006    2.4563    0.0000 C   0  0  0  0  0  0  0  0  0
    8.5006    1.6313    0.0000 C   0  0  0  0  0  0  0  0  0
    7.7861    1.2188    0.0000 C   0  0  0  0  0  0  0  0  0
    3.4993    0.3938    0.0000 C   0  0  0  0  0  0  0  0  0
    2.7848   -0.0187    0.0000 C   0  0  0  0  0  0  0  0  0
    2.0704    0.3938    0.0000 C   0  0  0  0  0  0  0  0  0
    1.3559   -0.0187    0.0000 C   0  0  0  0  0  0  0  0  0
   -0.7875   -0.4312    0.0000 C   0  0  0  0  0  0  0  0  0
   -0.7875   -1.2562    0.0000 C   0  0  0  0  0  0  0  0  0
   -1.5020   -1.6687    0.0000 C   0  0  0  0  0  0  0  0  0
   -2.2165   -1.2562    0.0000 C   0  0  0  0  0  0  0  0  0
   -2.2165   -0.4312    0.0000 C   0  0  0  0  0  0  0  0  0
   -1.5020   -0.0187    0.0000 C   0  0  0  0  0  0  0  0  0
  1  2  2  0  0  0  0
  1  3  2  0  0  0  0
  1  4  1  0  0  0  0
  1 24  1  0  0  0  0
  4  5  1  0  0  0  0
  4 23  1  0  0  0  0
  5  6  1  0  0  0  0
  6  7  1  0  0  0  0
  7  8  4  0  0  0  0
  7 22  4  0  0  0  0
  8  9  4  0  0  0  0
  9 10  1  0  0  0  0
  9 20  4  0  0  0  0
 10 11  1  0  0  0  0
 11 12  1  0  0  0  0
 12 13  1  0  0  0  0
 13 14  1  0  0  0  0
 14 15  1  0  0  0  0
 14 19  1  0  0  0  0
 15 16  1  0  0  0  0
 16 17  1  0  0  0  0
 17 18  1  0  0  0  0
 18 19  1  0  0  0  0
 20 21  4  0  0  0  0
 21 22  4  0  0  0  0
 22 23  1  0  0  0  0
 24 25  4  0  0  0  0
 24 29  4  0  0  0  0
 25 26  4  0  0  0  0
 26 27  4  0  0  0  0
 27 28  4  0  0  0  0
 28 29  4  0  0  0  0
M  END
>  <Name_Molregno>
350349

>  <HISTAMINE H3>
8.13

$$$$
350352
  Marvin  02231216192D 0   1.00000     0.00000     0

 24 26  0  0  0  0  0  0  0  0999 V2000
    0.0146   -0.8121    0.0000 O   0  0  0  0  0  0  0  0  0
    0.7290   -0.3996    0.0000 C   0  0  0  0  0  0  0  0  0
    1.4435   -0.8121    0.0000 C   0  0  0  0  0  0  0  0  0
    2.1580   -0.3996    0.0000 C   0  0  0  0  0  0  0  0  0
    2.8724   -0.8121    0.0000 N   0  0  0  0  0  0  0  0  0
    3.5869   -0.3996    0.0000 C   0  0  0  0  0  0  0  0  0
    4.3014   -0.8121    0.0000 C   0  0  0  0  0  0  0  0  0
    4.3014   -1.6371    0.0000 C   0  0  0  0  0  0  0  0  0
    3.5869   -2.0496    0.0000 C   0  0  0  0  0  0  0  0  0
    2.8724   -1.6371    0.0000 C   0  0  0  0  0  0  0  0  0
   -0.6999   -0.3996    0.0000 C   0  0  0  0  0  0  0  0  0
   -1.4144   -0.8121    0.0000 C   0  0  0  0  0  0  0  0  0
   -2.1289   -0.3996    0.0000 C   0  0  0  0  0  0  0  0  0
   -2.7739   -0.9140    0.0000 C   0  0  0  0  0  0  0  0  0
   -3.5782   -0.7304    0.0000 C   0  0  0  0  0  0  0  0  0
   -3.9361    0.0129    0.0000 N   0  0  0  0  0  0  0  0  0
   -3.5782    0.7562    0.0000 C   0  0  0  0  0  0  0  0  0
   -2.7739    0.9397    0.0000 C   0  0  0  0  0  0  0  0  0
   -2.1289    0.4254    0.0000 C   0  0  0  0  0  0  0  0  0
   -1.4144    0.8379    0.0000 C   0  0  0  0  0  0  0  0  0
   -0.6999    0.4254    0.0000 C   0  0  0  0  0  0  0  0  0
   -4.7611    0.0129    0.0000 C   0  0  0  0  0  0  0  0  0
   -5.1736   -0.7016    0.0000 C   0  0  0  0  0  0  0  0  0
   -5.1736    0.7273    0.0000 C   0  0  0  0  0  0  0  0  0
  1  2  1  0  0  0  0
  1 11  1  0  0  0  0
  2  3  1  0  0  0  0
  3  4  1  0  0  0  0
  4  5  1  0  0  0  0
  5  6  1  0  0  0  0
  5 10  1  0  0  0  0
  6  7  1  0  0  0  0
  7  8  1  0  0  0  0
  8  9  1  0  0  0  0
  9 10  1  0  0  0  0
 11 12  4  0  0  0  0
 11 21  4  0  0  0  0
 12 13  4  0  0  0  0
 13 14  1  0  0  0  0
 13 19  4  0  0  0  0
 14 15  1  0  0  0  0
 15 16  1  0  0  0  0
 16 17  1  0  0  0  0
 16 22  1  0  0  0  0
 17 18  1  0  0  0  0
 18 19  1  0  0  0  0
 19 20  4  0  0  0  0
 20 21  4  0  0  0  0
 22 23  1  0  0  0  0
 22 24  1  0  0  0  0
M  END
>  <Name_Molregno>
350352

>  <HISTAMINE H3>
9.14

$$$$
350384
  Marvin  02231216192D 0   1.00000     0.00000     0

 27 30  0  0  0  0  0  0  0  0999 V2000
    2.3207   -3.0473    0.0000 S   0  0  0  0  0  0  0  0  0
    2.0658   -3.8319    0.0000 C   0  0  0  0  0  0  0  0  0
    1.2408   -3.8319    0.0000 C   0  0  0  0  0  0  0  0  0
    0.9859   -3.0473    0.0000 C   0  0  0  0  0  0  0  0  0
    1.6533   -2.5624    0.0000 C   0  0  0  0  0  0  0  0  0
    1.6533   -1.7374    0.0000 C   0  0  0  0  0  0  0  0  0
    0.9388   -1.3249    0.0000 O   0  0  0  0  0  0  0  0  0
    2.3678   -1.3249    0.0000 N   0  0  0  0  0  0  0  0  0
    2.3678   -0.4999    0.0000 C   0  0  0  0  0  0  0  0  0
    3.0822   -0.0874    0.0000 C   0  0  0  0  0  0  0  0  0
    3.7967   -0.4999    0.0000 C   0  0  0  0  0  0  0  0  0
    4.5112   -0.0874    0.0000 C   0  0  0  0  0  0  0  0  0
    5.2256   -0.4999    0.0000 C   0  0  0  0  0  0  0  0  0
    5.9401   -0.0874    0.0000 O   0  0  0  0  0  0  0  0  0
    5.9401    0.7376    0.0000 C   0  0  0  0  0  0  0  0  0
    6.6546    1.1501    0.0000 C   0  0  0  0  0  0  0  0  0
    6.6546    1.9751    0.0000 C   0  0  0  0  0  0  0  0  0
    7.3691    2.3876    0.0000 N   0  0  0  0  0  0  0  0  0
    7.3691    3.2126    0.0000 C   0  0  0  0  0  0  0  0  0
    8.0835    3.6251    0.0000 C   0  0  0  0  0  0  0  0  0
    8.7980    3.2126    0.0000 C   0  0  0  0  0  0  0  0  0
    8.7980    2.3876    0.0000 C   0  0  0  0  0  0  0  0  0
    8.0835    1.9751    0.0000 C   0  0  0  0  0  0  0  0  0
    5.2256   -1.3249    0.0000 C   0  0  0  0  0  0  0  0  0
    4.5112   -1.7374    0.0000 C   0  0  0  0  0  0  0  0  0
    3.7967   -1.3249    0.0000 C   0  0  0  0  0  0  0  0  0
    3.0822   -1.7374    0.0000 C   0  0  0  0  0  0  0  0  0
  1  2  4  0  0  0  0
  1  5  4  0  0  0  0
  2  3  4  0  0  0  0
  3  4  4  0  0  0  0
  4  5  4  0  0  0  0
  5  6  1  0  0  0  0
  6  7  2  0  0  0  0
  6  8  1  0  0  0  0
  8  9  1  0  0  0  0
  8 27  1  0  0  0  0
  9 10  1  0  0  0  0
 10 11  1  0  0  0  0
 11 12  4  0  0  0  0
 11 26  4  0  0  0  0
 12 13  4  0  0  0  0
 13 14  1  0  0  0  0
 13 24  4  0  0  0  0
 14 15  1  0  0  0  0
 15 16  1  0  0  0  0
 16 17  1  0  0  0  0
 17 18  1  0  0  0  0
 18 19  1  0  0  0  0
 18 23  1  0  0  0  0
 19 20  1  0  0  0  0
 20 21  1  0  0  0  0
 21 22  1  0  0  0  0
 22 23  1  0  0  0  0
 24 25  4  0  0  0  0
 25 26  4  0  0  0  0
 26 27  1  0  0  0  0
M  END
>  <Name_Molregno>
350384

>  <HISTAMINE H3>
8.68

$$$$
350385
  Marvin  02231216192D 0   1.00000     0.00000     0

 27 30  0  0  0  0  0  0  0  0999 V2000
    0.3270   -2.4450    0.0000 S   0  0  0  0  0  0  0  0  0
   -0.4800   -2.6165    0.0000 C   0  0  0  0  0  0  0  0  0
   -0.8925   -1.9020    0.0000 C   0  0  0  0  0  0  0  0  0
   -0.3404   -1.2889    0.0000 C   0  0  0  0  0  0  0  0  0
    0.4132   -1.6245    0.0000 C   0  0  0  0  0  0  0  0  0
    1.1277   -1.2120    0.0000 C   0  0  0  0  0  0  0  0  0
    1.1277   -0.3870    0.0000 O   0  0  0  0  0  0  0  0  0
    1.8422   -1.6245    0.0000 N   0  0  0  0  0  0  0  0  0
    1.8422   -2.4495    0.0000 C   0  0  0  0  0  0  0  0  0
    2.5566   -2.8620    0.0000 C   0  0  0  0  0  0  0  0  0
    3.2711   -2.4495    0.0000 C   0  0  0  0  0  0  0  0  0
    3.2711   -1.6245    0.0000 C   0  0  0  0  0  0  0  0  0
    3.9856   -1.2120    0.0000 C   0  0  0  0  0  0  0  0  0
    4.7001   -1.6245    0.0000 C   0  0  0  0  0  0  0  0  0
    5.4145   -1.2120    0.0000 O   0  0  0  0  0  0  0  0  0
    5.4145   -0.3870    0.0000 C   0  0  0  0  0  0  0  0  0
    6.1290    0.0255    0.0000 C   0  0  0  0  0  0  0  0  0
    6.1290    0.8505    0.0000 C   0  0  0  0  0  0  0  0  0
    6.8435    1.2630    0.0000 N   0  0  0  0  0  0  0  0  0
    6.8435    2.0880    0.0000 C   0  0  0  0  0  0  0  0  0
    7.5579    2.5005    0.0000 C   0  0  0  0  0  0  0  0  0
    8.2724    2.0880    0.0000 C   0  0  0  0  0  0  0  0  0
    8.2724    1.2630    0.0000 C   0  0  0  0  0  0  0  0  0
    7.5579    0.8505    0.0000 C   0  0  0  0  0  0  0  0  0
    4.7001   -2.4495    0.0000 C   0  0  0  0  0  0  0  0  0
    3.9856   -2.8620    0.0000 C   0  0  0  0  0  0  0  0  0
    2.5566   -1.2120    0.0000 C   0  0  0  0  0  0  0  0  0
  1  2  4  0  0  0  0
  1  5  4  0  0  0  0
  2  3  4  0  0  0  0
  3  4  4  0  0  0  0
  4  5  4  0  0  0  0
  5  6  1  0  0  0  0
  6  7  2  0  0  0  0
  6  8  1  0  0  0  0
  8  9  1  0  0  0  0
  8 27  1  0  0  0  0
  9 10  1  0  0  0  0
 10 11  1  0  0  0  0
 11 12  4  0  0  0  0
 11 26  4  0  0  0  0
 12 13  4  0  0  0  0
 12 27  1  0  0  0  0
 13 14  4  0  0  0  0
 14 15  1  0  0  0  0
 14 25  4  0  0  0  0
 15 16  1  0  0  0  0
 16 17  1  0  0  0  0
 17 18  1  0  0  0  0
 18 19  1  0  0  0  0
 19 20  1  0  0  0  0
 19 24  1  0  0  0  0
 20 21  1  0  0  0  0
 21 22  1  0  0  0  0
 22 23  1  0  0  0  0
 23 24  1  0  0  0  0
 25 26  4  0  0  0  0
M  END
>  <Name_Molregno>
350385

>  <HISTAMINE H3>
8.09

$$$$
350387
  Marvin  02231216192D 0   1.00000     0.00000     0

 27 29  0  0  0  0  0  0  0  0999 V2000
    0.0341   -0.9066    0.0000 O   0  0  0  0  0  0  0  0  0
    0.7486   -0.4941    0.0000 C   0  0  0  0  0  0  0  0  0
    1.4631   -0.9066    0.0000 C   0  0  0  0  0  0  0  0  0
    2.1775   -0.4941    0.0000 C   0  0  0  0  0  0  0  0  0
    2.8920   -0.9066    0.0000 N   0  0  0  0  0  0  0  0  0
    3.6065   -0.4941    0.0000 C   0  0  0  0  0  0  0  0  0
    4.3210   -0.9066    0.0000 C   0  0  0  0  0  0  0  0  0
    4.3210   -1.7316    0.0000 C   0  0  0  0  0  0  0  0  0
    3.6065   -2.1441    0.0000 C   0  0  0  0  0  0  0  0  0
    2.8920   -1.7316    0.0000 C   0  0  0  0  0  0  0  0  0
   -0.6803   -0.4941    0.0000 C   0  0  0  0  0  0  0  0  0
   -1.3948   -0.9066    0.0000 C   0  0  0  0  0  0  0  0  0
   -2.1093   -0.4941    0.0000 C   0  0  0  0  0  0  0  0  0
   -2.7543   -1.0085    0.0000 C   0  0  0  0  0  0  0  0  0
   -3.5586   -0.8249    0.0000 C   0  0  0  0  0  0  0  0  0
   -3.9166   -0.0816    0.0000 N   0  0  0  0  0  0  0  0  0
   -3.5586    0.6617    0.0000 C   0  0  0  0  0  0  0  0  0
   -2.7543    0.8453    0.0000 C   0  0  0  0  0  0  0  0  0
   -2.1093    0.3309    0.0000 C   0  0  0  0  0  0  0  0  0
   -1.3948    0.7434    0.0000 C   0  0  0  0  0  0  0  0  0
   -0.6803    0.3309    0.0000 C   0  0  0  0  0  0  0  0  0
   -4.7416   -0.0816    0.0000 C   0  0  0  0  0  0  0  0  0
   -5.1541    0.6328    0.0000 O   0  0  0  0  0  0  0  0  0
   -5.1541   -0.7961    0.0000 N   0  0  0  0  0  0  0  0  0
   -5.9791   -0.7961    0.0000 C   0  0  0  0  0  0  0  0  0
   -6.3916   -1.5106    0.0000 C   0  0  0  0  0  0  0  0  0
   -6.3916   -0.0816    0.0000 C   0  0  0  0  0  0  0  0  0
  1  2  1  0  0  0  0
  1 11  1  0  0  0  0
  2  3  1  0  0  0  0
  3  4  1  0  0  0  0
  4  5  1  0  0  0  0
  5  6  1  0  0  0  0
  5 10  1  0  0  0  0
  6  7  1  0  0  0  0
  7  8  1  0  0  0  0
  8  9  1  0  0  0  0
  9 10  1  0  0  0  0
 11 12  4  0  0  0  0
 11 21  4  0  0  0  0
 12 13  4  0  0  0  0
 13 14  1  0  0  0  0
 13 19  4  0  0  0  0
 14 15  1  0  0  0  0
 15 16  1  0  0  0  0
 16 17  1  0  0  0  0
 16 22  1  0  0  0  0
 17 18  1  0  0  0  0
 18 19  1  0  0  0  0
 19 20  4  0  0  0  0
 20 21  4  0  0  0  0
 22 23  2  0  0  0  0
 22 24  1  0  0  0  0
 24 25  1  0  0  0  0
 25 26  1  0  0  0  0
 25 27  1  0  0  0  0
M  END
>  <Name_Molregno>
350387

>  <HISTAMINE H3>
7.37

$$$$
350388
  Marvin  02231216192D 0   1.00000     0.00000     0

 25 27  0  0  0  0  0  0  0  0999 V2000
    1.1062    2.6957    0.0000 S   0  0  0  0  0  0  0  0  0
    0.6937    3.4102    0.0000 O   0  0  0  0  0  0  0  0  0
    0.3917    2.2832    0.0000 O   0  0  0  0  0  0  0  0  0
    1.5187    1.9813    0.0000 N   0  0  0  0  0  0  0  0  0
    2.3414    2.0429    0.0000 C   0  0  0  0  0  0  0  0  0
    2.9025    1.4381    0.0000 C   0  0  0  0  0  0  0  0  0
    2.7796    0.6224    0.0000 C   0  0  0  0  0  0  0  0  0
    3.4940    0.2099    0.0000 C   0  0  0  0  0  0  0  0  0
    3.4940   -0.6151    0.0000 C   0  0  0  0  0  0  0  0  0
    4.2085   -1.0276    0.0000 O   0  0  0  0  0  0  0  0  0
    4.9230   -0.6151    0.0000 C   0  0  0  0  0  0  0  0  0
    5.6374   -1.0276    0.0000 C   0  0  0  0  0  0  0  0  0
    6.3519   -0.6151    0.0000 C   0  0  0  0  0  0  0  0  0
    7.0664   -1.0276    0.0000 N   0  0  0  0  0  0  0  0  0
    7.7809   -0.6151    0.0000 C   0  0  0  0  0  0  0  0  0
    8.4953   -1.0276    0.0000 C   0  0  0  0  0  0  0  0  0
    8.4953   -1.8526    0.0000 C   0  0  0  0  0  0  0  0  0
    7.7809   -2.2651    0.0000 C   0  0  0  0  0  0  0  0  0
    7.0664   -1.8526    0.0000 C   0  0  0  0  0  0  0  0  0
    2.7796   -1.0276    0.0000 C   0  0  0  0  0  0  0  0  0
    2.0651   -0.6151    0.0000 C   0  0  0  0  0  0  0  0  0
    2.0651    0.2099    0.0000 C   0  0  0  0  0  0  0  0  0
    1.2971    0.5113    0.0000 C   0  0  0  0  0  0  0  0  0
    1.0539    1.2996    0.0000 C   0  0  0  0  0  0  0  0  0
    1.8207    3.1082    0.0000 C   0  0  0  0  0  0  0  0  0
  1  2  2  0  0  0  0
  1  3  2  0  0  0  0
  1  4  1  0  0  0  0
  1 25  1  0  0  0  0
  4  5  1  0  0  0  0
  4 24  1  0  0  0  0
  5  6  1  0  0  0  0
  6  7  1  0  0  0  0
  7  8  4  0  0  0  0
  7 22  4  0  0  0  0
  8  9  4  0  0  0  0
  9 10  1  0  0  0  0
  9 20  4  0  0  0  0
 10 11  1  0  0  0  0
 11 12  1  0  0  0  0
 12 13  1  0  0  0  0
 13 14  1  0  0  0  0
 14 15  1  0  0  0  0
 14 19  1  0  0  0  0
 15 16  1  0  0  0  0
 16 17  1  0  0  0  0
 17 18  1  0  0  0  0
 18 19  1  0  0  0  0
 20 21  4  0  0  0  0
 21 22  4  0  0  0  0
 22 23  1  0  0  0  0
 23 24  1  0  0  0  0
M  END
>  <Name_Molregno>
350388

>  <HISTAMINE H3>
7.92

$$$$
350415
  Marvin  02231216192D 0   1.00000     0.00000     0

 20 22  0  0  0  0  0  0  0  0999 V2000
   -0.0101    0.0381    0.0000 O   0  0  0  0  0  0  0  0  0
    0.7044   -0.3744    0.0000 C   0  0  0  0  0  0  0  0  0
    1.4189    0.0381    0.0000 C   0  0  0  0  0  0  0  0  0
    2.1334   -0.3744    0.0000 C   0  0  0  0  0  0  0  0  0
    2.8478    0.0381    0.0000 N   0  0  0  0  0  0  0  0  0
    2.8478    0.8631    0.0000 C   0  0  0  0  0  0  0  0  0
    3.5623    1.2756    0.0000 C   0  0  0  0  0  0  0  0  0
    4.2768    0.8631    0.0000 C   0  0  0  0  0  0  0  0  0
    4.2768    0.0381    0.0000 C   0  0  0  0  0  0  0  0  0
    3.5623   -0.3744    0.0000 C   0  0  0  0  0  0  0  0  0
   -0.7245   -0.3744    0.0000 C   0  0  0  0  0  0  0  0  0
   -1.4390    0.0381    0.0000 C   0  0  0  0  0  0  0  0  0
   -2.1535   -0.3744    0.0000 C   0  0  0  0  0  0  0  0  0
   -2.8679    0.0381    0.0000 C   0  0  0  0  0  0  0  0  0
   -2.8679    0.8631    0.0000 C   0  0  0  0  0  0  0  0  0
   -2.1535    1.2756    0.0000 N   0  0  0  0  0  0  0  0  0
   -1.4390    0.8631    0.0000 C   0  0  0  0  0  0  0  0  0
   -2.1535   -1.1994    0.0000 C   0  0  0  0  0  0  0  0  0
   -1.4390   -1.6119    0.0000 C   0  0  0  0  0  0  0  0  0
   -0.7245   -1.1994    0.0000 C   0  0  0  0  0  0  0  0  0
  1  2  1  0  0  0  0
  1 11  1  0  0  0  0
  2  3  1  0  0  0  0
  3  4  1  0  0  0  0
  4  5  1  0  0  0  0
  5  6  1  0  0  0  0
  5 10  1  0  0  0  0
  6  7  1  0  0  0  0
  7  8  1  0  0  0  0
  8  9  1  0  0  0  0
  9 10  1  0  0  0  0
 11 12  4  0  0  0  0
 11 20  4  0  0  0  0
 12 13  4  0  0  0  0
 12 17  1  0  0  0  0
 13 14  1  0  0  0  0
 13 18  4  0  0  0  0
 14 15  1  0  0  0  0
 15 16  1  0  0  0  0
 16 17  1  0  0  0  0
 18 19  4  0  0  0  0
 19 20  4  0  0  0  0
M  END
>  <Name_Molregno>
350415

>  <HISTAMINE H3>
6.81

$$$$
350418
  Marvin  02231216192D 0   1.00000     0.00000     0

 27 30  0  0  0  0  0  0  0  0999 V2000
   -1.7768   -0.0086    0.0000 O   0  0  0  0  0  0  0  0  0
   -2.4913   -0.4211    0.0000 C   0  0  0  0  0  0  0  0  0
   -3.2057   -0.0086    0.0000 C   0  0  0  0  0  0  0  0  0
   -3.9202   -0.4211    0.0000 C   0  0  0  0  0  0  0  0  0
   -4.6347   -0.0086    0.0000 N   0  0  0  0  0  0  0  0  0
   -5.3492   -0.4211    0.0000 C   0  0  0  0  0  0  0  0  0
   -6.0636   -0.0086    0.0000 C   0  0  0  0  0  0  0  0  0
   -6.0636    0.8164    0.0000 C   0  0  0  0  0  0  0  0  0
   -5.3492    1.2289    0.0000 C   0  0  0  0  0  0  0  0  0
   -4.6347    0.8164    0.0000 C   0  0  0  0  0  0  0  0  0
   -1.0623   -0.4211    0.0000 C   0  0  0  0  0  0  0  0  0
   -0.3479   -0.0086    0.0000 C   0  0  0  0  0  0  0  0  0
    0.3666   -0.4211    0.0000 C   0  0  0  0  0  0  0  0  0
    1.0811   -0.0086    0.0000 N   0  0  0  0  0  0  0  0  0
    1.7955   -0.4211    0.0000 C   0  0  0  0  0  0  0  0  0
    1.7955   -1.2461    0.0000 C   0  0  0  0  0  0  0  0  0
    1.0811   -1.6586    0.0000 C   0  0  0  0  0  0  0  0  0
    0.3666   -1.2461    0.0000 C   0  0  0  0  0  0  0  0  0
   -0.3479   -1.6586    0.0000 C   0  0  0  0  0  0  0  0  0
   -1.0623   -1.2461    0.0000 C   0  0  0  0  0  0  0  0  0
    1.0811    0.8164    0.0000 C   0  0  0  0  0  0  0  0  0
    1.7955    1.2289    0.0000 C   0  0  0  0  0  0  0  0  0
    1.7955    2.0539    0.0000 C   0  0  0  0  0  0  0  0  0
    2.5100    2.4664    0.0000 C   0  0  0  0  0  0  0  0  0
    3.2245    2.0539    0.0000 C   0  0  0  0  0  0  0  0  0
    3.2245    1.2289    0.0000 C   0  0  0  0  0  0  0  0  0
    2.5100    0.8164    0.0000 C   0  0  0  0  0  0  0  0  0
  1  2  1  0  0  0  0
  1 11  1  0  0  0  0
  2  3  1  0  0  0  0
  3  4  1  0  0  0  0
  4  5  1  0  0  0  0
  5  6  1  0  0  0  0
  5 10  1  0  0  0  0
  6  7  1  0  0  0  0
  7  8  1  0  0  0  0
  8  9  1  0  0  0  0
  9 10  1  0  0  0  0
 11 12  4  0  0  0  0
 11 20  4  0  0  0  0
 12 13  4  0  0  0  0
 13 14  1  0  0  0  0
 13 18  4  0  0  0  0
 14 15  1  0  0  0  0
 14 21  1  0  0  0  0
 15 16  1  0  0  0  0
 16 17  1  0  0  0  0
 17 18  1  0  0  0  0
 18 19  4  0  0  0  0
 19 20  4  0  0  0  0
 21 22  1  0  0  0  0
 22 23  1  0  0  0  0
 22 27  1  0  0  0  0
 23 24  1  0  0  0  0
 24 25  1  0  0  0  0
 25 26  1  0  0  0  0
 26 27  1  0  0  0  0
M  END
>  <Name_Molregno>
350418

>  <HISTAMINE H3>
6.73

$$$$
350419
  Marvin  02231216192D 0   1.00000     0.00000     0

 24 26  0  0  0  0  0  0  0  0999 V2000
    0.0146   -0.8121    0.0000 O   0  0  0  0  0  0  0  0  0
    0.7290   -0.3996    0.0000 C   0  0  0  0  0  0  0  0  0
    1.4435   -0.8121    0.0000 C   0  0  0  0  0  0  0  0  0
    2.1580   -0.3996    0.0000 C   0  0  0  0  0  0  0  0  0
    2.8724   -0.8121    0.0000 N   0  0  0  0  0  0  0  0  0
    3.5869   -0.3996    0.0000 C   0  0  0  0  0  0  0  0  0
    4.3014   -0.8121    0.0000 C   0  0  0  0  0  0  0  0  0
    4.3014   -1.6371    0.0000 C   0  0  0  0  0  0  0  0  0
    3.5869   -2.0496    0.0000 C   0  0  0  0  0  0  0  0  0
    2.8724   -1.6371    0.0000 C   0  0  0  0  0  0  0  0  0
   -0.6999   -0.3996    0.0000 C   0  0  0  0  0  0  0  0  0
   -1.4144   -0.8121    0.0000 C   0  0  0  0  0  0  0  0  0
   -2.1289   -0.3996    0.0000 C   0  0  0  0  0  0  0  0  0
   -2.7739   -0.9140    0.0000 C   0  0  0  0  0  0  0  0  0
   -3.5782   -0.7304    0.0000 C   0  0  0  0  0  0  0  0  0
   -3.9361    0.0129    0.0000 N   0  0  0  0  0  0  0  0  0
   -3.5782    0.7562    0.0000 C   0  0  0  0  0  0  0  0  0
   -2.7739    0.9397    0.0000 C   0  0  0  0  0  0  0  0  0
   -2.1289    0.4254    0.0000 C   0  0  0  0  0  0  0  0  0
   -1.4144    0.8379    0.0000 C   0  0  0  0  0  0  0  0  0
   -0.6999    0.4254    0.0000 C   0  0  0  0  0  0  0  0  0
   -4.7611    0.0129    0.0000 C   0  0  0  0  0  0  0  0  0
   -5.1736   -0.7016    0.0000 O   0  0  0  0  0  0  0  0  0
   -5.1736    0.7273    0.0000 C   0  0  0  0  0  0  0  0  0
  1  2  1  0  0  0  0
  1 11  1  0  0  0  0
  2  3  1  0  0  0  0
  3  4  1  0  0  0  0
  4  5  1  0  0  0  0
  5  6  1  0  0  0  0
  5 10  1  0  0  0  0
  6  7  1  0  0  0  0
  7  8  1  0  0  0  0
  8  9  1  0  0  0  0
  9 10  1  0  0  0  0
 11 12  4  0  0  0  0
 11 21  4  0  0  0  0
 12 13  4  0  0  0  0
 13 14  1  0  0  0  0
 13 19  4  0  0  0  0
 14 15  1  0  0  0  0
 15 16  1  0  0  0  0
 16 17  1  0  0  0  0
 16 22  1  0  0  0  0
 17 18  1  0  0  0  0
 18 19  1  0  0  0  0
 19 20  4  0  0  0  0
 20 21  4  0  0  0  0
 22 23  2  0  0  0  0
 22 24  1  0  0  0  0
M  END
>  <Name_Molregno>
350419

>  <HISTAMINE H3>
7.94

$$$$
350420
  Marvin  02231216192D 0   1.00000     0.00000     0

 23 25  0  0  0  0  0  0  0  0999 V2000
    0.0085    0.5280    0.0000 O   0  0  0  0  0  0  0  0  0
    0.7230    0.1155    0.0000 C   0  0  0  0  0  0  0  0  0
    1.4374    0.5280    0.0000 C   0  0  0  0  0  0  0  0  0
    2.1519    0.1155    0.0000 C   0  0  0  0  0  0  0  0  0
    2.8664    0.5280    0.0000 N   0  0  0  0  0  0  0  0  0
    2.8664    1.3530    0.0000 C   0  0  0  0  0  0  0  0  0
    3.5809    1.7655    0.0000 C   0  0  0  0  0  0  0  0  0
    4.2953    1.3530    0.0000 C   0  0  0  0  0  0  0  0  0
    4.2953    0.5280    0.0000 C   0  0  0  0  0  0  0  0  0
    3.5809    0.1155    0.0000 C   0  0  0  0  0  0  0  0  0
   -0.7060    0.1155    0.0000 C   0  0  0  0  0  0  0  0  0
   -1.4204    0.5280    0.0000 C   0  0  0  0  0  0  0  0  0
   -2.1349    0.1155    0.0000 C   0  0  0  0  0  0  0  0  0
   -2.1349   -0.7095    0.0000 C   0  0  0  0  0  0  0  0  0
   -2.8494   -1.1220    0.0000 C   0  0  0  0  0  0  0  0  0
   -3.5639   -0.7095    0.0000 C   0  0  0  0  0  0  0  0  0
   -3.5639    0.1155    0.0000 N   0  0  0  0  0  0  0  0  0
   -2.8494    0.5280    0.0000 C   0  0  0  0  0  0  0  0  0
   -4.2783    0.5280    0.0000 C   0  0  0  0  0  0  0  0  0
   -4.9928    0.1155    0.0000 C   0  0  0  0  0  0  0  0  0
   -4.2783    1.3530    0.0000 C   0  0  0  0  0  0  0  0  0
   -1.4204   -1.1220    0.0000 C   0  0  0  0  0  0  0  0  0
   -0.7060   -0.7095    0.0000 C   0  0  0  0  0  0  0  0  0
  1  2  1  0  0  0  0
  1 11  1  0  0  0  0
  2  3  1  0  0  0  0
  3  4  1  0  0  0  0
  4  5  1  0  0  0  0
  5  6  1  0  0  0  0
  5 10  1  0  0  0  0
  6  7  1  0  0  0  0
  7  8  1  0  0  0  0
  8  9  1  0  0  0  0
  9 10  1  0  0  0  0
 11 12  4  0  0  0  0
 11 23  4  0  0  0  0
 12 13  4  0  0  0  0
 13 14  4  0  0  0  0
 13 18  1  0  0  0  0
 14 15  1  0  0  0  0
 14 22  4  0  0  0  0
 15 16  1  0  0  0  0
 16 17  1  0  0  0  0
 17 18  1  0  0  0  0
 17 19  1  0  0  0  0
 19 20  1  0  0  0  0
 19 21  1  0  0  0  0
 22 23  4  0  0  0  0
M  END
>  <Name_Molregno>
350420

>  <HISTAMINE H3>
9.77

$$$$
350448
  Marvin  02231216192D 0   1.00000     0.00000     0

 29 32  0  0  0  0  0  0  0  0999 V2000
   -0.0549    0.0127    0.0000 S   0  0  0  0  0  0  0  0  0
    0.7701    0.0127    0.0000 O   0  0  0  0  0  0  0  0  0
   -0.8799    0.0127    0.0000 O   0  0  0  0  0  0  0  0  0
   -0.0549   -0.8123    0.0000 N   0  0  0  0  0  0  0  0  0
   -0.7693   -1.2248    0.0000 C   0  0  0  0  0  0  0  0  0
   -0.7693   -2.0498    0.0000 C   0  0  0  0  0  0  0  0  0
   -0.0549   -2.4623    0.0000 C   0  0  0  0  0  0  0  0  0
    0.6596   -2.0498    0.0000 C   0  0  0  0  0  0  0  0  0
    0.6596   -1.2248    0.0000 C   0  0  0  0  0  0  0  0  0
    1.3741   -0.8123    0.0000 C   0  0  0  0  0  0  0  0  0
    2.0886   -1.2248    0.0000 C   0  0  0  0  0  0  0  0  0
    2.8030   -0.8123    0.0000 O   0  0  0  0  0  0  0  0  0
    3.5175   -1.2248    0.0000 C   0  0  0  0  0  0  0  0  0
    4.2320   -0.8123    0.0000 C   0  0  0  0  0  0  0  0  0
    4.9464   -1.2248    0.0000 C   0  0  0  0  0  0  0  0  0
    5.6609   -0.8123    0.0000 N   0  0  0  0  0  0  0  0  0
    5.6609    0.0127    0.0000 C   0  0  0  0  0  0  0  0  0
    6.3754    0.4252    0.0000 C   0  0  0  0  0  0  0  0  0
    7.0899    0.0127    0.0000 C   0  0  0  0  0  0  0  0  0
    7.0899   -0.8123    0.0000 C   0  0  0  0  0  0  0  0  0
    6.3754   -1.2248    0.0000 C   0  0  0  0  0  0  0  0  0
    2.0886   -2.0498    0.0000 C   0  0  0  0  0  0  0  0  0
    1.3741   -2.4623    0.0000 C   0  0  0  0  0  0  0  0  0
   -0.0549    0.8377    0.0000 C   0  0  0  0  0  0  0  0  0
   -0.7693    1.2502    0.0000 C   0  0  0  0  0  0  0  0  0
   -0.7693    2.0752    0.0000 C   0  0  0  0  0  0  0  0  0
   -0.0549    2.4877    0.0000 C   0  0  0  0  0  0  0  0  0
    0.6596    2.0752    0.0000 C   0  0  0  0  0  0  0  0  0
    0.6596    1.2502    0.0000 C   0  0  0  0  0  0  0  0  0
  1  2  2  0  0  0  0
  1  3  2  0  0  0  0
  1  4  1  0  0  0  0
  1 24  1  0  0  0  0
  4  5  1  0  0  0  0
  4  9  1  0  0  0  0
  5  6  1  0  0  0  0
  6  7  1  0  0  0  0
  7  8  1  0  0  0  0
  8  9  4  0  0  0  0
  8 23  4  0  0  0  0
  9 10  4  0  0  0  0
 10 11  4  0  0  0  0
 11 12  1  0  0  0  0
 11 22  4  0  0  0  0
 12 13  1  0  0  0  0
 13 14  1  0  0  0  0
 14 15  1  0  0  0  0
 15 16  1  0  0  0  0
 16 17  1  0  0  0  0
 16 21  1  0  0  0  0
 17 18  1  0  0  0  0
 18 19  1  0  0  0  0
 19 20  1  0  0  0  0
 20 21  1  0  0  0  0
 22 23  4  0  0  0  0
 24 25  4  0  0  0  0
 24 29  4  0  0  0  0
 25 26  4  0  0  0  0
 26 27  4  0  0  0  0
 27 28  4  0  0  0  0
 28 29  4  0  0  0  0
M  END
>  <Name_Molregno>
350448

>  <HISTAMINE H3>
8.14

$$$$
350449
  Marvin  02231216192D 0   1.00000     0.00000     0

 27 30  0  0  0  0  0  0  0  0999 V2000
   -0.2475   -0.2400    0.0000 S   0  0  0  0  0  0  0  0  0
   -0.7995    0.3731    0.0000 C   0  0  0  0  0  0  0  0  0
   -0.3870    1.0876    0.0000 C   0  0  0  0  0  0  0  0  0
    0.4200    0.9160    0.0000 C   0  0  0  0  0  0  0  0  0
    0.5062    0.0956    0.0000 C   0  0  0  0  0  0  0  0  0
    1.2207   -0.3169    0.0000 C   0  0  0  0  0  0  0  0  0
    1.9351    0.0956    0.0000 O   0  0  0  0  0  0  0  0  0
    1.2207   -1.1419    0.0000 N   0  0  0  0  0  0  0  0  0
    0.5062   -1.5544    0.0000 C   0  0  0  0  0  0  0  0  0
    0.5062   -2.3794    0.0000 C   0  0  0  0  0  0  0  0  0
    1.2207   -2.7919    0.0000 C   0  0  0  0  0  0  0  0  0
    1.9351   -2.3794    0.0000 C   0  0  0  0  0  0  0  0  0
    1.9351   -1.5544    0.0000 C   0  0  0  0  0  0  0  0  0
    2.6496   -1.1419    0.0000 C   0  0  0  0  0  0  0  0  0
    3.3641   -1.5544    0.0000 C   0  0  0  0  0  0  0  0  0
    4.0785   -1.1419    0.0000 O   0  0  0  0  0  0  0  0  0
    4.7930   -1.5544    0.0000 C   0  0  0  0  0  0  0  0  0
    4.7930   -2.3794    0.0000 C   0  0  0  0  0  0  0  0  0
    5.5075   -2.7919    0.0000 C   0  0  0  0  0  0  0  0  0
    5.5075   -3.6169    0.0000 N   0  0  0  0  0  0  0  0  0
    6.2220   -4.0294    0.0000 C   0  0  0  0  0  0  0  0  0
    6.2220   -4.8544    0.0000 C   0  0  0  0  0  0  0  0  0
    5.5075   -5.2669    0.0000 C   0  0  0  0  0  0  0  0  0
    4.7930   -4.8544    0.0000 C   0  0  0  0  0  0  0  0  0
    4.7930   -4.0294    0.0000 C   0  0  0  0  0  0  0  0  0
    3.3641   -2.3794    0.0000 C   0  0  0  0  0  0  0  0  0
    2.6496   -2.7919    0.0000 C   0  0  0  0  0  0  0  0  0
  1  2  4  0  0  0  0
  1  5  4  0  0  0  0
  2  3  4  0  0  0  0
  3  4  4  0  0  0  0
  4  5  4  0  0  0  0
  5  6  1  0  0  0  0
  6  7  2  0  0  0  0
  6  8  1  0  0  0  0
  8  9  1  0  0  0  0
  8 13  1  0  0  0  0
  9 10  1  0  0  0  0
 10 11  1  0  0  0  0
 11 12  1  0  0  0  0
 12 13  4  0  0  0  0
 12 27  4  0  0  0  0
 13 14  4  0  0  0  0
 14 15  4  0  0  0  0
 15 16  1  0  0  0  0
 15 26  4  0  0  0  0
 16 17  1  0  0  0  0
 17 18  1  0  0  0  0
 18 19  1  0  0  0  0
 19 20  1  0  0  0  0
 20 21  1  0  0  0  0
 20 25  1  0  0  0  0
 21 22  1  0  0  0  0
 22 23  1  0  0  0  0
 23 24  1  0  0  0  0
 24 25  1  0  0  0  0
 26 27  4  0  0  0  0
M  END
>  <Name_Molregno>
350449

>  <HISTAMINE H3>
7.65

$$$$
350450
  Marvin  02231216192D 0   1.00000     0.00000     0

 26 28  0  0  0  0  0  0  0  0999 V2000
    0.0258    0.4320    0.0000 O   0  0  0  0  0  0  0  0  0
    0.7402    0.0195    0.0000 C   0  0  0  0  0  0  0  0  0
    1.4547    0.4320    0.0000 C   0  0  0  0  0  0  0  0  0
    2.1692    0.0195    0.0000 C   0  0  0  0  0  0  0  0  0
    2.8836    0.4320    0.0000 N   0  0  0  0  0  0  0  0  0
    2.8836    1.2570    0.0000 C   0  0  0  0  0  0  0  0  0
    3.5981    1.6695    0.0000 C   0  0  0  0  0  0  0  0  0
    4.3126    1.2570    0.0000 C   0  0  0  0  0  0  0  0  0
    4.3126    0.4320    0.0000 C   0  0  0  0  0  0  0  0  0
    3.5981    0.0195    0.0000 C   0  0  0  0  0  0  0  0  0
   -0.6887    0.0195    0.0000 C   0  0  0  0  0  0  0  0  0
   -1.4032    0.4320    0.0000 C   0  0  0  0  0  0  0  0  0
   -2.1177    0.0195    0.0000 C   0  0  0  0  0  0  0  0  0
   -2.1177   -0.8055    0.0000 C   0  0  0  0  0  0  0  0  0
   -2.8321   -1.2180    0.0000 C   0  0  0  0  0  0  0  0  0
   -3.5466   -0.8055    0.0000 C   0  0  0  0  0  0  0  0  0
   -3.5466    0.0195    0.0000 N   0  0  0  0  0  0  0  0  0
   -2.8321    0.4320    0.0000 C   0  0  0  0  0  0  0  0  0
   -4.2611    0.4320    0.0000 C   0  0  0  0  0  0  0  0  0
   -4.2611    1.2570    0.0000 O   0  0  0  0  0  0  0  0  0
   -4.9755    0.0195    0.0000 N   0  0  0  0  0  0  0  0  0
   -5.6900    0.4320    0.0000 C   0  0  0  0  0  0  0  0  0
   -6.4045    0.0195    0.0000 C   0  0  0  0  0  0  0  0  0
   -5.6900    1.2570    0.0000 C   0  0  0  0  0  0  0  0  0
   -1.4032   -1.2180    0.0000 C   0  0  0  0  0  0  0  0  0
   -0.6887   -0.8055    0.0000 C   0  0  0  0  0  0  0  0  0
  1  2  1  0  0  0  0
  1 11  1  0  0  0  0
  2  3  1  0  0  0  0
  3  4  1  0  0  0  0
  4  5  1  0  0  0  0
  5  6  1  0  0  0  0
  5 10  1  0  0  0  0
  6  7  1  0  0  0  0
  7  8  1  0  0  0  0
  8  9  1  0  0  0  0
  9 10  1  0  0  0  0
 11 12  4  0  0  0  0
 11 26  4  0  0  0  0
 12 13  4  0  0  0  0
 13 14  4  0  0  0  0
 13 18  1  0  0  0  0
 14 15  1  0  0  0  0
 14 25  4  0  0  0  0
 15 16  1  0  0  0  0
 16 17  1  0  0  0  0
 17 18  1  0  0  0  0
 17 19  1  0  0  0  0
 19 20  2  0  0  0  0
 19 21  1  0  0  0  0
 21 22  1  0  0  0  0
 22 23  1  0  0  0  0
 22 24  1  0  0  0  0
 25 26  4  0  0  0  0
M  END
>  <Name_Molregno>
350450

>  <HISTAMINE H3>
8.31

$$$$
350451
  Marvin  02231216192D 0   1.00000     0.00000     0

 24 26  0  0  0  0  0  0  0  0999 V2000
   -5.7393    2.7603    0.0000 S   0  0  0  0  0  0  0  0  0
   -5.7393    3.5853    0.0000 O   0  0  0  0  0  0  0  0  0
   -6.5643    2.7603    0.0000 O   0  0  0  0  0  0  0  0  0
   -5.7393    1.9353    0.0000 N   0  0  0  0  0  0  0  0  0
   -6.4538    1.5228    0.0000 C   0  0  0  0  0  0  0  0  0
   -6.4538    0.6978    0.0000 C   0  0  0  0  0  0  0  0  0
   -5.7393    0.2853    0.0000 C   0  0  0  0  0  0  0  0  0
   -5.0249    0.6978    0.0000 C   0  0  0  0  0  0  0  0  0
   -4.3104    0.2853    0.0000 C   0  0  0  0  0  0  0  0  0
   -4.3104   -0.5397    0.0000 C   0  0  0  0  0  0  0  0  0
   -3.5959   -0.9522    0.0000 O   0  0  0  0  0  0  0  0  0
   -2.8815   -0.5397    0.0000 C   0  0  0  0  0  0  0  0  0
   -2.1670   -0.9522    0.0000 C   0  0  0  0  0  0  0  0  0
   -1.4525   -0.5397    0.0000 C   0  0  0  0  0  0  0  0  0
   -0.7380   -0.9522    0.0000 N   0  0  0  0  0  0  0  0  0
   -0.0236   -0.5397    0.0000 C   0  0  0  0  0  0  0  0  0
    0.6909   -0.9522    0.0000 C   0  0  0  0  0  0  0  0  0
    0.6909   -1.7772    0.0000 C   0  0  0  0  0  0  0  0  0
   -0.0236   -2.1897    0.0000 C   0  0  0  0  0  0  0  0  0
   -0.7380   -1.7772    0.0000 C   0  0  0  0  0  0  0  0  0
   -5.0249   -0.9522    0.0000 C   0  0  0  0  0  0  0  0  0
   -5.7393   -0.5397    0.0000 C   0  0  0  0  0  0  0  0  0
   -5.0249    1.5228    0.0000 C   0  0  0  0  0  0  0  0  0
   -4.9143    2.7603    0.0000 C   0  0  0  0  0  0  0  0  0
  1  2  2  0  0  0  0
  1  3  2  0  0  0  0
  1  4  1  0  0  0  0
  1 24  1  0  0  0  0
  4  5  1  0  0  0  0
  4 23  1  0  0  0  0
  5  6  1  0  0  0  0
  6  7  1  0  0  0  0
  7  8  4  0  0  0  0
  7 22  4  0  0  0  0
  8  9  4  0  0  0  0
  8 23  1  0  0  0  0
  9 10  4  0  0  0  0
 10 11  1  0  0  0  0
 10 21  4  0  0  0  0
 11 12  1  0  0  0  0
 12 13  1  0  0  0  0
 13 14  1  0  0  0  0
 14 15  1  0  0  0  0
 15 16  1  0  0  0  0
 15 20  1  0  0  0  0
 16 17  1  0  0  0  0
 17 18  1  0  0  0  0
 18 19  1  0  0  0  0
 19 20  1  0  0  0  0
 21 22  4  0  0  0  0
M  END
>  <Name_Molregno>
350451

>  <HISTAMINE H3>
7.62

$$$$
350492
  Marvin  02231216192D 0   1.00000     0.00000     0

 22 24  0  0  0  0  0  0  0  0999 V2000
   -0.0026   -0.3696    0.0000 O   0  0  0  0  0  0  0  0  0
    0.7118   -0.7821    0.0000 C   0  0  0  0  0  0  0  0  0
    1.4263   -0.3696    0.0000 C   0  0  0  0  0  0  0  0  0
    2.1408   -0.7821    0.0000 C   0  0  0  0  0  0  0  0  0
    2.8552   -0.3696    0.0000 N   0  0  0  0  0  0  0  0  0
    2.8552    0.4554    0.0000 C   0  0  0  0  0  0  0  0  0
    3.5697    0.8679    0.0000 C   0  0  0  0  0  0  0  0  0
    4.2842    0.4554    0.0000 C   0  0  0  0  0  0  0  0  0
    4.2842   -0.3696    0.0000 C   0  0  0  0  0  0  0  0  0
    3.5697   -0.7821    0.0000 C   0  0  0  0  0  0  0  0  0
   -0.7171   -0.7821    0.0000 C   0  0  0  0  0  0  0  0  0
   -1.4316   -0.3696    0.0000 C   0  0  0  0  0  0  0  0  0
   -2.1461   -0.7821    0.0000 C   0  0  0  0  0  0  0  0  0
   -2.8605   -0.3696    0.0000 C   0  0  0  0  0  0  0  0  0
   -2.8605    0.4554    0.0000 C   0  0  0  0  0  0  0  0  0
   -2.1461    0.8679    0.0000 N   0  0  0  0  0  0  0  0  0
   -1.4316    0.4554    0.0000 C   0  0  0  0  0  0  0  0  0
   -2.1461    1.6929    0.0000 C   0  0  0  0  0  0  0  0  0
   -2.8605    2.1054    0.0000 C   0  0  0  0  0  0  0  0  0
   -2.1461   -1.6071    0.0000 C   0  0  0  0  0  0  0  0  0
   -1.4316   -2.0196    0.0000 C   0  0  0  0  0  0  0  0  0
   -0.7171   -1.6071    0.0000 C   0  0  0  0  0  0  0  0  0
  1  2  1  0  0  0  0
  1 11  1  0  0  0  0
  2  3  1  0  0  0  0
  3  4  1  0  0  0  0
  4  5  1  0  0  0  0
  5  6  1  0  0  0  0
  5 10  1  0  0  0  0
  6  7  1  0  0  0  0
  7  8  1  0  0  0  0
  8  9  1  0  0  0  0
  9 10  1  0  0  0  0
 11 12  4  0  0  0  0
 11 22  4  0  0  0  0
 12 13  4  0  0  0  0
 12 17  1  0  0  0  0
 13 14  1  0  0  0  0
 13 20  4  0  0  0  0
 14 15  1  0  0  0  0
 15 16  1  0  0  0  0
 16 17  1  0  0  0  0
 16 18  1  0  0  0  0
 18 19  1  0  0  0  0
 20 21  4  0  0  0  0
 21 22  4  0  0  0  0
M  END
>  <Name_Molregno>
350492

>  <HISTAMINE H3>
7.02

$$$$
350503
  Marvin  02231216192D 0   1.00000     0.00000     0

 20 22  0  0  0  0  0  0  0  0999 V2000
   -0.0101   -0.0032    0.0000 O   0  0  0  0  0  0  0  0  0
    0.7044    0.4093    0.0000 C   0  0  0  0  0  0  0  0  0
    1.4189   -0.0032    0.0000 C   0  0  0  0  0  0  0  0  0
    2.1334    0.4093    0.0000 C   0  0  0  0  0  0  0  0  0
    2.8478   -0.0032    0.0000 N   0  0  0  0  0  0  0  0  0
    3.5623    0.4093    0.0000 C   0  0  0  0  0  0  0  0  0
    4.2768   -0.0032    0.0000 C   0  0  0  0  0  0  0  0  0
    4.2768   -0.8282    0.0000 C   0  0  0  0  0  0  0  0  0
    3.5623   -1.2407    0.0000 C   0  0  0  0  0  0  0  0  0
    2.8478   -0.8282    0.0000 C   0  0  0  0  0  0  0  0  0
   -0.7245    0.4093    0.0000 C   0  0  0  0  0  0  0  0  0
   -1.4390   -0.0032    0.0000 C   0  0  0  0  0  0  0  0  0
   -1.4390   -0.8282    0.0000 N   0  0  0  0  0  0  0  0  0
   -2.1535   -1.2407    0.0000 C   0  0  0  0  0  0  0  0  0
   -2.8679   -0.8282    0.0000 C   0  0  0  0  0  0  0  0  0
   -2.8679   -0.0032    0.0000 C   0  0  0  0  0  0  0  0  0
   -2.1535    0.4093    0.0000 C   0  0  0  0  0  0  0  0  0
   -2.1535    1.2343    0.0000 C   0  0  0  0  0  0  0  0  0
   -1.4390    1.6468    0.0000 C   0  0  0  0  0  0  0  0  0
   -0.7245    1.2343    0.0000 C   0  0  0  0  0  0  0  0  0
  1  2  1  0  0  0  0
  1 11  1  0  0  0  0
  2  3  1  0  0  0  0
  3  4  1  0  0  0  0
  4  5  1  0  0  0  0
  5  6  1  0  0  0  0
  5 10  1  0  0  0  0
  6  7  1  0  0  0  0
  7  8  1  0  0  0  0
  8  9  1  0  0  0  0
  9 10  1  0  0  0  0
 11 12  4  0  0  0  0
 11 20  4  0  0  0  0
 12 13  1  0  0  0  0
 12 17  4  0  0  0  0
 13 14  1  0  0  0  0
 14 15  1  0  0  0  0
 15 16  1  0  0  0  0
 16 17  1  0  0  0  0
 17 18  4  0  0  0  0
 18 19  4  0  0  0  0
 19 20  4  0  0  0  0
M  END
>  <Name_Molregno>
350503

>  <HISTAMINE H3>
6.52

$$$$
350504
  Marvin  02231216192D 0   1.00000     0.00000     0

 22 24  0  0  0  0  0  0  0  0999 V2000
   -0.0078    0.0031    0.0000 O   0  0  0  0  0  0  0  0  0
    0.7067    0.4156    0.0000 C   0  0  0  0  0  0  0  0  0
    1.4212    0.0031    0.0000 C   0  0  0  0  0  0  0  0  0
    2.1356    0.4156    0.0000 C   0  0  0  0  0  0  0  0  0
    2.8501    0.0031    0.0000 N   0  0  0  0  0  0  0  0  0
    3.5646    0.4156    0.0000 C   0  0  0  0  0  0  0  0  0
    4.2791    0.0031    0.0000 C   0  0  0  0  0  0  0  0  0
    4.2791   -0.8219    0.0000 C   0  0  0  0  0  0  0  0  0
    3.5646   -1.2344    0.0000 C   0  0  0  0  0  0  0  0  0
    2.8501   -0.8219    0.0000 C   0  0  0  0  0  0  0  0  0
   -0.7222    0.4156    0.0000 C   0  0  0  0  0  0  0  0  0
   -1.4367    0.0031    0.0000 C   0  0  0  0  0  0  0  0  0
   -1.4367   -0.8219    0.0000 N   0  0  0  0  0  0  0  0  0
   -2.1512   -1.2344    0.0000 C   0  0  0  0  0  0  0  0  0
   -2.8657   -0.8219    0.0000 C   0  0  0  0  0  0  0  0  0
   -2.8657    0.0031    0.0000 C   0  0  0  0  0  0  0  0  0
   -2.1512    0.4156    0.0000 C   0  0  0  0  0  0  0  0  0
   -2.1512    1.2406    0.0000 C   0  0  0  0  0  0  0  0  0
   -1.4367    1.6531    0.0000 C   0  0  0  0  0  0  0  0  0
   -0.7222    1.2406    0.0000 C   0  0  0  0  0  0  0  0  0
   -0.7222   -1.2344    0.0000 C   0  0  0  0  0  0  0  0  0
   -0.7222   -2.0594    0.0000 C   0  0  0  0  0  0  0  0  0
  1  2  1  0  0  0  0
  1 11  1  0  0  0  0
  2  3  1  0  0  0  0
  3  4  1  0  0  0  0
  4  5  1  0  0  0  0
  5  6  1  0  0  0  0
  5 10  1  0  0  0  0
  6  7  1  0  0  0  0
  7  8  1  0  0  0  0
  8  9  1  0  0  0  0
  9 10  1  0  0  0  0
 11 12  4  0  0  0  0
 11 20  4  0  0  0  0
 12 13  1  0  0  0  0
 12 17  4  0  0  0  0
 13 14  1  0  0  0  0
 13 21  1  0  0  0  0
 14 15  1  0  0  0  0
 15 16  1  0  0  0  0
 16 17  1  0  0  0  0
 17 18  4  0  0  0  0
 18 19  4  0  0  0  0
 19 20  4  0  0  0  0
 21 22  1  0  0  0  0
M  END
>  <Name_Molregno>
350504

>  <HISTAMINE H3>
6.52

$$$$
350505
  Marvin  02231216192D 0   1.00000     0.00000     0

 27 30  0  0  0  0  0  0  0  0999 V2000
   -0.0826    0.1548    0.0000 O   0  0  0  0  0  0  0  0  0
   -0.7971    0.5673    0.0000 C   0  0  0  0  0  0  0  0  0
   -1.5116    0.1548    0.0000 C   0  0  0  0  0  0  0  0  0
   -1.5116   -0.6702    0.0000 C   0  0  0  0  0  0  0  0  0
   -2.2260   -1.0827    0.0000 N   0  0  0  0  0  0  0  0  0
   -2.2260   -1.9077    0.0000 C   0  0  0  0  0  0  0  0  0
   -2.9405   -2.3202    0.0000 C   0  0  0  0  0  0  0  0  0
   -3.6550   -1.9077    0.0000 C   0  0  0  0  0  0  0  0  0
   -3.6550   -1.0827    0.0000 C   0  0  0  0  0  0  0  0  0
   -2.9405   -0.6702    0.0000 C   0  0  0  0  0  0  0  0  0
   -0.0826   -0.6702    0.0000 C   0  0  0  0  0  0  0  0  0
    0.6318   -1.0827    0.0000 C   0  0  0  0  0  0  0  0  0
    1.3463   -0.6702    0.0000 N   0  0  0  0  0  0  0  0  0
    2.0608   -1.0827    0.0000 C   0  0  0  0  0  0  0  0  0
    2.0608   -1.9077    0.0000 C   0  0  0  0  0  0  0  0  0
    1.3463   -2.3202    0.0000 C   0  0  0  0  0  0  0  0  0
    0.6318   -1.9077    0.0000 C   0  0  0  0  0  0  0  0  0
   -0.0826   -2.3202    0.0000 C   0  0  0  0  0  0  0  0  0
   -0.7971   -1.9077    0.0000 C   0  0  0  0  0  0  0  0  0
   -0.7971   -1.0827    0.0000 C   0  0  0  0  0  0  0  0  0
    1.3463    0.1548    0.0000 C   0  0  0  0  0  0  0  0  0
    2.0608    0.5673    0.0000 C   0  0  0  0  0  0  0  0  0
    2.0608    1.3923    0.0000 C   0  0  0  0  0  0  0  0  0
    2.7752    1.8048    0.0000 C   0  0  0  0  0  0  0  0  0
    3.4897    1.3923    0.0000 C   0  0  0  0  0  0  0  0  0
    3.4897    0.5673    0.0000 C   0  0  0  0  0  0  0  0  0
    2.7752    0.1548    0.0000 C   0  0  0  0  0  0  0  0  0
  1  2  1  0  0  0  0
  1 11  1  0  0  0  0
  2  3  1  0  0  0  0
  3  4  1  0  0  0  0
  4  5  1  0  0  0  0
  5  6  1  0  0  0  0
  5 10  1  0  0  0  0
  6  7  1  0  0  0  0
  7  8  1  0  0  0  0
  8  9  1  0  0  0  0
  9 10  1  0  0  0  0
 11 12  4  0  0  0  0
 11 20  4  0  0  0  0
 12 13  1  0  0  0  0
 12 17  4  0  0  0  0
 13 14  1  0  0  0  0
 13 21  1  0  0  0  0
 14 15  1  0  0  0  0
 15 16  1  0  0  0  0
 16 17  1  0  0  0  0
 17 18  4  0  0  0  0
 18 19  4  0  0  0  0
 19 20  4  0  0  0  0
 21 22  1  0  0  0  0
 22 23  1  0  0  0  0
 22 27  1  0  0  0  0
 23 24  1  0  0  0  0
 24 25  1  0  0  0  0
 25 26  1  0  0  0  0
 26 27  1  0  0  0  0
M  END
>  <Name_Molregno>
350505

>  <HISTAMINE H3>
6.52

$$$$
350506
  Marvin  02231216192D 0   1.00000     0.00000     0

 23 25  0  0  0  0  0  0  0  0999 V2000
    0.0085    0.5280    0.0000 O   0  0  0  0  0  0  0  0  0
    0.7230    0.1155    0.0000 C   0  0  0  0  0  0  0  0  0
    1.4374    0.5280    0.0000 C   0  0  0  0  0  0  0  0  0
    2.1519    0.1155    0.0000 C   0  0  0  0  0  0  0  0  0
    2.8664    0.5280    0.0000 N   0  0  0  0  0  0  0  0  0
    2.8664    1.3530    0.0000 C   0  0  0  0  0  0  0  0  0
    3.5809    1.7655    0.0000 C   0  0  0  0  0  0  0  0  0
    4.2953    1.3530    0.0000 C   0  0  0  0  0  0  0  0  0
    4.2953    0.5280    0.0000 C   0  0  0  0  0  0  0  0  0
    3.5809    0.1155    0.0000 C   0  0  0  0  0  0  0  0  0
   -0.7060    0.1155    0.0000 C   0  0  0  0  0  0  0  0  0
   -1.4204    0.5280    0.0000 C   0  0  0  0  0  0  0  0  0
   -2.1349    0.1155    0.0000 C   0  0  0  0  0  0  0  0  0
   -2.1349   -0.7095    0.0000 C   0  0  0  0  0  0  0  0  0
   -2.8494   -1.1220    0.0000 C   0  0  0  0  0  0  0  0  0
   -3.5639   -0.7095    0.0000 C   0  0  0  0  0  0  0  0  0
   -3.5639    0.1155    0.0000 N   0  0  0  0  0  0  0  0  0
   -2.8494    0.5280    0.0000 C   0  0  0  0  0  0  0  0  0
   -4.2783    0.5280    0.0000 C   0  0  0  0  0  0  0  0  0
   -4.9928    0.1155    0.0000 O   0  0  0  0  0  0  0  0  0
   -4.2783    1.3530    0.0000 C   0  0  0  0  0  0  0  0  0
   -1.4204   -1.1220    0.0000 C   0  0  0  0  0  0  0  0  0
   -0.7060   -0.7095    0.0000 C   0  0  0  0  0  0  0  0  0
  1  2  1  0  0  0  0
  1 11  1  0  0  0  0
  2  3  1  0  0  0  0
  3  4  1  0  0  0  0
  4  5  1  0  0  0  0
  5  6  1  0  0  0  0
  5 10  1  0  0  0  0
  6  7  1  0  0  0  0
  7  8  1  0  0  0  0
  8  9  1  0  0  0  0
  9 10  1  0  0  0  0
 11 12  4  0  0  0  0
 11 23  4  0  0  0  0
 12 13  4  0  0  0  0
 13 14  4  0  0  0  0
 13 18  1  0  0  0  0
 14 15  1  0  0  0  0
 14 22  4  0  0  0  0
 15 16  1  0  0  0  0
 16 17  1  0  0  0  0
 17 18  1  0  0  0  0
 17 19  1  0  0  0  0
 19 20  2  0  0  0  0
 19 21  1  0  0  0  0
 22 23  4  0  0  0  0
M  END
>  <Name_Molregno>
350506

>  <HISTAMINE H3>
7.71

$$$$
350530
  Marvin  02231216192D 0   1.00000     0.00000     0

 27 30  0  0  0  0  0  0  0  0999 V2000
   -1.7314   -0.4664    0.0000 O   0  0  0  0  0  0  0  0  0
   -2.4459   -0.8789    0.0000 C   0  0  0  0  0  0  0  0  0
   -2.4459   -1.7039    0.0000 C   0  0  0  0  0  0  0  0  0
   -3.1603   -2.1164    0.0000 C   0  0  0  0  0  0  0  0  0
   -3.1603   -2.9414    0.0000 N   0  0  0  0  0  0  0  0  0
   -2.4459   -3.3539    0.0000 C   0  0  0  0  0  0  0  0  0
   -2.4459   -4.1789    0.0000 C   0  0  0  0  0  0  0  0  0
   -3.1603   -4.5914    0.0000 C   0  0  0  0  0  0  0  0  0
   -3.8748   -4.1789    0.0000 C   0  0  0  0  0  0  0  0  0
   -3.8748   -3.3539    0.0000 C   0  0  0  0  0  0  0  0  0
   -1.7314    0.3586    0.0000 C   0  0  0  0  0  0  0  0  0
   -1.0169    0.7711    0.0000 C   0  0  0  0  0  0  0  0  0
   -1.0169    1.5961    0.0000 C   0  0  0  0  0  0  0  0  0
   -0.3024    2.0086    0.0000 C   0  0  0  0  0  0  0  0  0
    0.4120    1.5961    0.0000 C   0  0  0  0  0  0  0  0  0
    0.4120    0.7711    0.0000 N   0  0  0  0  0  0  0  0  0
   -0.3024    0.3586    0.0000 C   0  0  0  0  0  0  0  0  0
    1.1265    0.3586    0.0000 C   0  0  0  0  0  0  0  0  0
    1.8410    0.7711    0.0000 C   0  0  0  0  0  0  0  0  0
    1.8410    1.5961    0.0000 C   0  0  0  0  0  0  0  0  0
    2.5554    2.0086    0.0000 C   0  0  0  0  0  0  0  0  0
    3.2699    1.5961    0.0000 C   0  0  0  0  0  0  0  0  0
    3.2699    0.7711    0.0000 C   0  0  0  0  0  0  0  0  0
    2.5554    0.3586    0.0000 C   0  0  0  0  0  0  0  0  0
   -1.7314    2.0086    0.0000 C   0  0  0  0  0  0  0  0  0
   -2.4459    1.5961    0.0000 C   0  0  0  0  0  0  0  0  0
   -2.4459    0.7711    0.0000 C   0  0  0  0  0  0  0  0  0
  1  2  1  0  0  0  0
  1 11  1  0  0  0  0
  2  3  1  0  0  0  0
  3  4  1  0  0  0  0
  4  5  1  0  0  0  0
  5  6  1  0  0  0  0
  5 10  1  0  0  0  0
  6  7  1  0  0  0  0
  7  8  1  0  0  0  0
  8  9  1  0  0  0  0
  9 10  1  0  0  0  0
 11 12  4  0  0  0  0
 11 27  4  0  0  0  0
 12 13  4  0  0  0  0
 12 17  1  0  0  0  0
 13 14  1  0  0  0  0
 13 25  4  0  0  0  0
 14 15  1  0  0  0  0
 15 16  1  0  0  0  0
 16 17  1  0  0  0  0
 16 18  1  0  0  0  0
 18 19  1  0  0  0  0
 19 20  1  0  0  0  0
 19 24  1  0  0  0  0
 20 21  1  0  0  0  0
 21 22  1  0  0  0  0
 22 23  1  0  0  0  0
 23 24  1  0  0  0  0
 25 26  4  0  0  0  0
 26 27  4  0  0  0  0
M  END
>  <Name_Molregno>
350530

>  <HISTAMINE H3>
7.23

$$$$
350531
  Marvin  02231216192D 0   1.00000     0.00000     0

 29 32  0  0  0  0  0  0  0  0999 V2000
    0.1857    0.8921    0.0000 S   0  0  0  0  0  0  0  0  0
   -0.2268    1.6065    0.0000 O   0  0  0  0  0  0  0  0  0
    0.5982    0.1776    0.0000 O   0  0  0  0  0  0  0  0  0
    0.9002    1.3046    0.0000 N   0  0  0  0  0  0  0  0  0
    1.6146    0.8921    0.0000 C   0  0  0  0  0  0  0  0  0
    2.3291    1.3046    0.0000 C   0  0  0  0  0  0  0  0  0
    2.3291    2.1296    0.0000 C   0  0  0  0  0  0  0  0  0
    1.6146    2.5421    0.0000 C   0  0  0  0  0  0  0  0  0
    0.9002    2.1296    0.0000 C   0  0  0  0  0  0  0  0  0
    3.0436    2.5421    0.0000 C   0  0  0  0  0  0  0  0  0
    3.7580    2.1296    0.0000 C   0  0  0  0  0  0  0  0  0
    3.7580    1.3046    0.0000 C   0  0  0  0  0  0  0  0  0
    3.0436    0.8921    0.0000 C   0  0  0  0  0  0  0  0  0
    3.0436    0.0671    0.0000 O   0  0  0  0  0  0  0  0  0
    3.7580   -0.3454    0.0000 C   0  0  0  0  0  0  0  0  0
    3.7580   -1.1704    0.0000 C   0  0  0  0  0  0  0  0  0
    4.4725   -1.5829    0.0000 C   0  0  0  0  0  0  0  0  0
    4.4725   -2.4079    0.0000 N   0  0  0  0  0  0  0  0  0
    5.1870   -2.8204    0.0000 C   0  0  0  0  0  0  0  0  0
    5.1870   -3.6454    0.0000 C   0  0  0  0  0  0  0  0  0
    4.4725   -4.0579    0.0000 C   0  0  0  0  0  0  0  0  0
    3.7580   -3.6454    0.0000 C   0  0  0  0  0  0  0  0  0
    3.7580   -2.8204    0.0000 C   0  0  0  0  0  0  0  0  0
   -0.5288    0.4796    0.0000 C   0  0  0  0  0  0  0  0  0
   -0.5288   -0.3454    0.0000 C   0  0  0  0  0  0  0  0  0
   -1.2433   -0.7579    0.0000 C   0  0  0  0  0  0  0  0  0
   -1.9577   -0.3454    0.0000 C   0  0  0  0  0  0  0  0  0
   -1.9577    0.4796    0.0000 C   0  0  0  0  0  0  0  0  0
   -1.2433    0.8921    0.0000 C   0  0  0  0  0  0  0  0  0
  1  2  2  0  0  0  0
  1  3  2  0  0  0  0
  1  4  1  0  0  0  0
  1 24  1  0  0  0  0
  4  5  1  0  0  0  0
  4  9  1  0  0  0  0
  5  6  1  0  0  0  0
  6  7  4  0  0  0  0
  6 13  4  0  0  0  0
  7  8  1  0  0  0  0
  7 10  4  0  0  0  0
  8  9  1  0  0  0  0
 10 11  4  0  0  0  0
 11 12  4  0  0  0  0
 12 13  4  0  0  0  0
 13 14  1  0  0  0  0
 14 15  1  0  0  0  0
 15 16  1  0  0  0  0
 16 17  1  0  0  0  0
 17 18  1  0  0  0  0
 18 19  1  0  0  0  0
 18 23  1  0  0  0  0
 19 20  1  0  0  0  0
 20 21  1  0  0  0  0
 21 22  1  0  0  0  0
 22 23  1  0  0  0  0
 24 25  4  0  0  0  0
 24 29  4  0  0  0  0
 25 26  4  0  0  0  0
 26 27  4  0  0  0  0
 27 28  4  0  0  0  0
 28 29  4  0  0  0  0
M  END
>  <Name_Molregno>
350531

>  <HISTAMINE H3>
6.52

$$$$
350532
  Marvin  02231216192D 0   1.00000     0.00000     0

 29 32  0  0  0  0  0  0  0  0999 V2000
    0.4486    0.8565    0.0000 S   0  0  0  0  0  0  0  0  0
   -0.3764    0.8565    0.0000 O   0  0  0  0  0  0  0  0  0
    1.2736    0.8565    0.0000 O   0  0  0  0  0  0  0  0  0
    0.4486    1.6815    0.0000 N   0  0  0  0  0  0  0  0  0
    1.1631    2.0940    0.0000 C   0  0  0  0  0  0  0  0  0
    1.1631    2.9190    0.0000 C   0  0  0  0  0  0  0  0  0
    0.4486    3.3315    0.0000 C   0  0  0  0  0  0  0  0  0
   -0.2659    2.9190    0.0000 C   0  0  0  0  0  0  0  0  0
   -0.2659    2.0940    0.0000 C   0  0  0  0  0  0  0  0  0
    1.8776    3.3315    0.0000 C   0  0  0  0  0  0  0  0  0
    2.5920    2.9190    0.0000 C   0  0  0  0  0  0  0  0  0
    2.5920    2.0940    0.0000 C   0  0  0  0  0  0  0  0  0
    1.8776    1.6815    0.0000 C   0  0  0  0  0  0  0  0  0
    1.8776    0.8565    0.0000 O   0  0  0  0  0  0  0  0  0
    2.5920    0.4440    0.0000 C   0  0  0  0  0  0  0  0  0
    2.5920   -0.3810    0.0000 C   0  0  0  0  0  0  0  0  0
    3.3065   -0.7935    0.0000 C   0  0  0  0  0  0  0  0  0
    3.3065   -1.6185    0.0000 N   0  0  0  0  0  0  0  0  0
    4.0210   -2.0310    0.0000 C   0  0  0  0  0  0  0  0  0
    4.0210   -2.8560    0.0000 C   0  0  0  0  0  0  0  0  0
    3.3065   -3.2685    0.0000 C   0  0  0  0  0  0  0  0  0
    2.5920   -2.8560    0.0000 C   0  0  0  0  0  0  0  0  0
    2.5920   -2.0310    0.0000 C   0  0  0  0  0  0  0  0  0
    0.4486    0.0315    0.0000 C   0  0  0  0  0  0  0  0  0
    1.1631   -0.3810    0.0000 C   0  0  0  0  0  0  0  0  0
    1.1631   -1.2060    0.0000 C   0  0  0  0  0  0  0  0  0
    0.4486   -1.6185    0.0000 C   0  0  0  0  0  0  0  0  0
   -0.2659   -1.2060    0.0000 C   0  0  0  0  0  0  0  0  0
   -0.2659   -0.3810    0.0000 C   0  0  0  0  0  0  0  0  0
  1  2  2  0  0  0  0
  1  3  2  0  0  0  0
  1  4  1  0  0  0  0
  1 24  1  0  0  0  0
  4  5  1  0  0  0  0
  4  9  1  0  0  0  0
  5  6  4  0  0  0  0
  5 13  4  0  0  0  0
  6  7  1  0  0  0  0
  6 10  4  0  0  0  0
  7  8  1  0  0  0  0
  8  9  1  0  0  0  0
 10 11  4  0  0  0  0
 11 12  4  0  0  0  0
 12 13  4  0  0  0  0
 13 14  1  0  0  0  0
 14 15  1  0  0  0  0
 15 16  1  0  0  0  0
 16 17  1  0  0  0  0
 17 18  1  0  0  0  0
 18 19  1  0  0  0  0
 18 23  1  0  0  0  0
 19 20  1  0  0  0  0
 20 21  1  0  0  0  0
 21 22  1  0  0  0  0
 22 23  1  0  0  0  0
 24 25  4  0  0  0  0
 24 29  4  0  0  0  0
 25 26  4  0  0  0  0
 26 27  4  0  0  0  0
 27 28  4  0  0  0  0
 28 29  4  0  0  0  0
M  END
>  <Name_Molregno>
350532

>  <HISTAMINE H3>
6.52

$$$$
350533
  Marvin  02231216192D 0   1.00000     0.00000     0

 27 30  0  0  0  0  0  0  0  0999 V2000
    0.1373   -2.2715    0.0000 S   0  0  0  0  0  0  0  0  0
   -0.6697   -2.4431    0.0000 C   0  0  0  0  0  0  0  0  0
   -1.0822   -1.7286    0.0000 C   0  0  0  0  0  0  0  0  0
   -0.5302   -1.1155    0.0000 C   0  0  0  0  0  0  0  0  0
    0.2235   -1.4511    0.0000 C   0  0  0  0  0  0  0  0  0
    0.9380   -1.0386    0.0000 C   0  0  0  0  0  0  0  0  0
    1.6525   -1.4511    0.0000 O   0  0  0  0  0  0  0  0  0
    0.9380   -0.2136    0.0000 N   0  0  0  0  0  0  0  0  0
    1.6525    0.1989    0.0000 C   0  0  0  0  0  0  0  0  0
    1.6525    1.0239    0.0000 C   0  0  0  0  0  0  0  0  0
    0.9380    1.4364    0.0000 C   0  0  0  0  0  0  0  0  0
    0.2235    1.0239    0.0000 C   0  0  0  0  0  0  0  0  0
    0.2235    0.1989    0.0000 C   0  0  0  0  0  0  0  0  0
    2.3669    1.4364    0.0000 C   0  0  0  0  0  0  0  0  0
    3.0814    1.0239    0.0000 C   0  0  0  0  0  0  0  0  0
    3.0814    0.1989    0.0000 C   0  0  0  0  0  0  0  0  0
    2.3669   -0.2136    0.0000 C   0  0  0  0  0  0  0  0  0
    2.3669   -1.0386    0.0000 O   0  0  0  0  0  0  0  0  0
    3.0814   -1.4511    0.0000 C   0  0  0  0  0  0  0  0  0
    3.0814   -2.2761    0.0000 C   0  0  0  0  0  0  0  0  0
    3.7959   -2.6886    0.0000 C   0  0  0  0  0  0  0  0  0
    4.5103   -2.2761    0.0000 N   0  0  0  0  0  0  0  0  0
    4.5103   -1.4511    0.0000 C   0  0  0  0  0  0  0  0  0
    5.2248   -1.0386    0.0000 C   0  0  0  0  0  0  0  0  0
    5.9393   -1.4511    0.0000 C   0  0  0  0  0  0  0  0  0
    5.9393   -2.2761    0.0000 C   0  0  0  0  0  0  0  0  0
    5.2248   -2.6886    0.0000 C   0  0  0  0  0  0  0  0  0
  1  2  4  0  0  0  0
  1  5  4  0  0  0  0
  2  3  4  0  0  0  0
  3  4  4  0  0  0  0
  4  5  4  0  0  0  0
  5  6  1  0  0  0  0
  6  7  2  0  0  0  0
  6  8  1  0  0  0  0
  8  9  1  0  0  0  0
  8 13  1  0  0  0  0
  9 10  4  0  0  0  0
  9 17  4  0  0  0  0
 10 11  1  0  0  0  0
 10 14  4  0  0  0  0
 11 12  1  0  0  0  0
 12 13  1  0  0  0  0
 14 15  4  0  0  0  0
 15 16  4  0  0  0  0
 16 17  4  0  0  0  0
 17 18  1  0  0  0  0
 18 19  1  0  0  0  0
 19 20  1  0  0  0  0
 20 21  1  0  0  0  0
 21 22  1  0  0  0  0
 22 23  1  0  0  0  0
 22 27  1  0  0  0  0
 23 24  1  0  0  0  0
 24 25  1  0  0  0  0
 25 26  1  0  0  0  0
 26 27  1  0  0  0  0
M  END
>  <Name_Molregno>
350533

>  <HISTAMINE H3>
6.52

$$$$
350560
  Marvin  02231216192D 0   1.00000     0.00000     0

 27 30  0  0  0  0  0  0  0  0999 V2000
   -0.7601    1.6772    0.0000 S   0  0  0  0  0  0  0  0  0
   -1.3121    2.2903    0.0000 C   0  0  0  0  0  0  0  0  0
   -0.8996    3.0048    0.0000 C   0  0  0  0  0  0  0  0  0
   -0.0926    2.8333    0.0000 C   0  0  0  0  0  0  0  0  0
   -0.0064    2.0128    0.0000 C   0  0  0  0  0  0  0  0  0
    0.7081    1.6003    0.0000 C   0  0  0  0  0  0  0  0  0
    0.7081    0.7753    0.0000 O   0  0  0  0  0  0  0  0  0
    1.4225    2.0128    0.0000 N   0  0  0  0  0  0  0  0  0
    2.1370    1.6003    0.0000 C   0  0  0  0  0  0  0  0  0
    2.8515    2.0128    0.0000 C   0  0  0  0  0  0  0  0  0
    2.8515    2.8378    0.0000 C   0  0  0  0  0  0  0  0  0
    2.1370    3.2503    0.0000 C   0  0  0  0  0  0  0  0  0
    1.4225    2.8378    0.0000 C   0  0  0  0  0  0  0  0  0
    3.5659    3.2503    0.0000 C   0  0  0  0  0  0  0  0  0
    4.2804    2.8378    0.0000 C   0  0  0  0  0  0  0  0  0
    4.2804    2.0128    0.0000 C   0  0  0  0  0  0  0  0  0
    3.5659    1.6003    0.0000 C   0  0  0  0  0  0  0  0  0
    3.5659    0.7753    0.0000 O   0  0  0  0  0  0  0  0  0
    4.2804    0.3628    0.0000 C   0  0  0  0  0  0  0  0  0
    4.2804   -0.4622    0.0000 C   0  0  0  0  0  0  0  0  0
    4.9949   -0.8747    0.0000 C   0  0  0  0  0  0  0  0  0
    5.7094   -0.4622    0.0000 N   0  0  0  0  0  0  0  0  0
    5.7094    0.3628    0.0000 C   0  0  0  0  0  0  0  0  0
    6.4238    0.7753    0.0000 C   0  0  0  0  0  0  0  0  0
    7.1383    0.3628    0.0000 C   0  0  0  0  0  0  0  0  0
    7.1383   -0.4622    0.0000 C   0  0  0  0  0  0  0  0  0
    6.4238   -0.8747    0.0000 C   0  0  0  0  0  0  0  0  0
  1  2  4  0  0  0  0
  1  5  4  0  0  0  0
  2  3  4  0  0  0  0
  3  4  4  0  0  0  0
  4  5  4  0  0  0  0
  5  6  1  0  0  0  0
  6  7  2  0  0  0  0
  6  8  1  0  0  0  0
  8  9  1  0  0  0  0
  8 13  1  0  0  0  0
  9 10  1  0  0  0  0
 10 11  4  0  0  0  0
 10 17  4  0  0  0  0
 11 12  1  0  0  0  0
 11 14  4  0  0  0  0
 12 13  1  0  0  0  0
 14 15  4  0  0  0  0
 15 16  4  0  0  0  0
 16 17  4  0  0  0  0
 17 18  1  0  0  0  0
 18 19  1  0  0  0  0
 19 20  1  0  0  0  0
 20 21  1  0  0  0  0
 21 22  1  0  0  0  0
 22 23  1  0  0  0  0
 22 27  1  0  0  0  0
 23 24  1  0  0  0  0
 24 25  1  0  0  0  0
 25 26  1  0  0  0  0
 26 27  1  0  0  0  0
M  END
>  <Name_Molregno>
350560

>  <HISTAMINE H3>
6.52

$$$$
350561
  Marvin  02231216192D 0   1.00000     0.00000     0

 20 22  0  0  0  0  0  0  0  0999 V2000
   -0.0101   -0.0032    0.0000 O   0  0  0  0  0  0  0  0  0
    0.7044    0.4093    0.0000 C   0  0  0  0  0  0  0  0  0
    1.4189   -0.0032    0.0000 C   0  0  0  0  0  0  0  0  0
    2.1334    0.4093    0.0000 C   0  0  0  0  0  0  0  0  0
    2.8478   -0.0032    0.0000 N   0  0  0  0  0  0  0  0  0
    3.5623    0.4093    0.0000 C   0  0  0  0  0  0  0  0  0
    4.2768   -0.0032    0.0000 C   0  0  0  0  0  0  0  0  0
    4.2768   -0.8282    0.0000 C   0  0  0  0  0  0  0  0  0
    3.5623   -1.2407    0.0000 C   0  0  0  0  0  0  0  0  0
    2.8478   -0.8282    0.0000 C   0  0  0  0  0  0  0  0  0
   -0.7245    0.4093    0.0000 C   0  0  0  0  0  0  0  0  0
   -1.4390   -0.0032    0.0000 C   0  0  0  0  0  0  0  0  0
   -1.4390   -0.8282    0.0000 C   0  0  0  0  0  0  0  0  0
   -2.1535   -1.2407    0.0000 C   0  0  0  0  0  0  0  0  0
   -2.8679   -0.8282    0.0000 C   0  0  0  0  0  0  0  0  0
   -2.8679   -0.0032    0.0000 N   0  0  0  0  0  0  0  0  0
   -2.1535    0.4093    0.0000 C   0  0  0  0  0  0  0  0  0
   -2.1535    1.2343    0.0000 C   0  0  0  0  0  0  0  0  0
   -1.4390    1.6468    0.0000 C   0  0  0  0  0  0  0  0  0
   -0.7245    1.2343    0.0000 C   0  0  0  0  0  0  0  0  0
  1  2  1  0  0  0  0
  1 11  1  0  0  0  0
  2  3  1  0  0  0  0
  3  4  1  0  0  0  0
  4  5  1  0  0  0  0
  5  6  1  0  0  0  0
  5 10  1  0  0  0  0
  6  7  1  0  0  0  0
  7  8  1  0  0  0  0
  8  9  1  0  0  0  0
  9 10  1  0  0  0  0
 11 12  4  0  0  0  0
 11 20  4  0  0  0  0
 12 13  1  0  0  0  0
 12 17  4  0  0  0  0
 13 14  1  0  0  0  0
 14 15  1  0  0  0  0
 15 16  1  0  0  0  0
 16 17  1  0  0  0  0
 17 18  4  0  0  0  0
 18 19  4  0  0  0  0
 19 20  4  0  0  0  0
M  END
>  <Name_Molregno>
350561

>  <HISTAMINE H3>
6.52

$$$$
350562
  Marvin  02231216192D 0   1.00000     0.00000     0

 22 24  0  0  0  0  0  0  0  0999 V2000
    0.0000   -0.0740    0.0000 O   0  0  0  0  0  0  0  0  0
    0.7145    0.3385    0.0000 C   0  0  0  0  0  0  0  0  0
    1.4290   -0.0740    0.0000 C   0  0  0  0  0  0  0  0  0
    2.1434    0.3385    0.0000 C   0  0  0  0  0  0  0  0  0
    2.8579   -0.0740    0.0000 N   0  0  0  0  0  0  0  0  0
    3.5724    0.3385    0.0000 C   0  0  0  0  0  0  0  0  0
    4.2869   -0.0740    0.0000 C   0  0  0  0  0  0  0  0  0
    4.2869   -0.8990    0.0000 C   0  0  0  0  0  0  0  0  0
    3.5724   -1.3115    0.0000 C   0  0  0  0  0  0  0  0  0
    2.8579   -0.8990    0.0000 C   0  0  0  0  0  0  0  0  0
   -0.7144    0.3385    0.0000 C   0  0  0  0  0  0  0  0  0
   -1.4289   -0.0740    0.0000 C   0  0  0  0  0  0  0  0  0
   -1.4289   -0.8990    0.0000 C   0  0  0  0  0  0  0  0  0
   -2.1434   -1.3115    0.0000 C   0  0  0  0  0  0  0  0  0
   -2.8579   -0.8990    0.0000 C   0  0  0  0  0  0  0  0  0
   -2.8579   -0.0740    0.0000 N   0  0  0  0  0  0  0  0  0
   -2.1434    0.3385    0.0000 C   0  0  0  0  0  0  0  0  0
   -2.1434    1.1635    0.0000 C   0  0  0  0  0  0  0  0  0
   -1.4289    1.5760    0.0000 C   0  0  0  0  0  0  0  0  0
   -0.7144    1.1635    0.0000 C   0  0  0  0  0  0  0  0  0
   -3.5723    0.3385    0.0000 C   0  0  0  0  0  0  0  0  0
   -4.2868   -0.0740    0.0000 C   0  0  0  0  0  0  0  0  0
  1  2  1  0  0  0  0
  1 11  1  0  0  0  0
  2  3  1  0  0  0  0
  3  4  1  0  0  0  0
  4  5  1  0  0  0  0
  5  6  1  0  0  0  0
  5 10  1  0  0  0  0
  6  7  1  0  0  0  0
  7  8  1  0  0  0  0
  8  9  1  0  0  0  0
  9 10  1  0  0  0  0
 11 12  4  0  0  0  0
 11 20  4  0  0  0  0
 12 13  1  0  0  0  0
 12 17  4  0  0  0  0
 13 14  1  0  0  0  0
 14 15  1  0  0  0  0
 15 16  1  0  0  0  0
 16 17  1  0  0  0  0
 16 21  1  0  0  0  0
 17 18  4  0  0  0  0
 18 19  4  0  0  0  0
 19 20  4  0  0  0  0
 21 22  1  0  0  0  0
M  END
>  <Name_Molregno>
350562

>  <HISTAMINE H3>
6.52

$$$$
350593
  Marvin  02231216192D 0   1.00000     0.00000     0

 22 24  0  0  0  0  0  0  0  0999 V2000
   -0.0019    0.2594    0.0000 O   0  0  0  0  0  0  0  0  0
    0.7126    0.6719    0.0000 C   0  0  0  0  0  0  0  0  0
    1.4271    0.2594    0.0000 C   0  0  0  0  0  0  0  0  0
    2.1415    0.6719    0.0000 C   0  0  0  0  0  0  0  0  0
    2.8560    0.2594    0.0000 N   0  0  0  0  0  0  0  0  0
    3.5705    0.6719    0.0000 C   0  0  0  0  0  0  0  0  0
    4.2850    0.2594    0.0000 C   0  0  0  0  0  0  0  0  0
    4.2850   -0.5656    0.0000 C   0  0  0  0  0  0  0  0  0
    3.5705   -0.9781    0.0000 C   0  0  0  0  0  0  0  0  0
    2.8560   -0.5656    0.0000 C   0  0  0  0  0  0  0  0  0
   -0.7163    0.6719    0.0000 C   0  0  0  0  0  0  0  0  0
   -1.4308    0.2594    0.0000 C   0  0  0  0  0  0  0  0  0
   -1.4308   -0.5656    0.0000 C   0  0  0  0  0  0  0  0  0
   -2.1453   -0.9781    0.0000 C   0  0  0  0  0  0  0  0  0
   -2.8598   -0.5656    0.0000 N   0  0  0  0  0  0  0  0  0
   -2.8598    0.2594    0.0000 C   0  0  0  0  0  0  0  0  0
   -2.1453    0.6719    0.0000 C   0  0  0  0  0  0  0  0  0
   -2.1453    1.4969    0.0000 C   0  0  0  0  0  0  0  0  0
   -1.4308    1.9094    0.0000 C   0  0  0  0  0  0  0  0  0
   -0.7163    1.4969    0.0000 C   0  0  0  0  0  0  0  0  0
   -3.5742   -0.9781    0.0000 C   0  0  0  0  0  0  0  0  0
   -3.5742   -1.8031    0.0000 C   0  0  0  0  0  0  0  0  0
  1  2  1  0  0  0  0
  1 11  1  0  0  0  0
  2  3  1  0  0  0  0
  3  4  1  0  0  0  0
  4  5  1  0  0  0  0
  5  6  1  0  0  0  0
  5 10  1  0  0  0  0
  6  7  1  0  0  0  0
  7  8  1  0  0  0  0
  8  9  1  0  0  0  0
  9 10  1  0  0  0  0
 11 12  4  0  0  0  0
 11 20  4  0  0  0  0
 12 13  1  0  0  0  0
 12 17  4  0  0  0  0
 13 14  1  0  0  0  0
 14 15  1  0  0  0  0
 15 16  1  0  0  0  0
 15 21  1  0  0  0  0
 16 17  1  0  0  0  0
 17 18  4  0  0  0  0
 18 19  4  0  0  0  0
 19 20  4  0  0  0  0
 21 22  1  0  0  0  0
M  END
>  <Name_Molregno>
350593

>  <HISTAMINE H3>
7.07

$$$$
350594
  Marvin  02231216192D 0   1.00000     0.00000     0

 27 30  0  0  0  0  0  0  0  0999 V2000
   -1.4574    0.7378    0.0000 O   0  0  0  0  0  0  0  0  0
   -2.1718    1.1503    0.0000 C   0  0  0  0  0  0  0  0  0
   -2.1718    1.9753    0.0000 C   0  0  0  0  0  0  0  0  0
   -2.8863    2.3878    0.0000 C   0  0  0  0  0  0  0  0  0
   -2.8863    3.2128    0.0000 N   0  0  0  0  0  0  0  0  0
   -3.6008    3.6253    0.0000 C   0  0  0  0  0  0  0  0  0
   -3.6008    4.4503    0.0000 C   0  0  0  0  0  0  0  0  0
   -2.8863    4.8628    0.0000 C   0  0  0  0  0  0  0  0  0
   -2.1718    4.4503    0.0000 C   0  0  0  0  0  0  0  0  0
   -2.1718    3.6253    0.0000 C   0  0  0  0  0  0  0  0  0
   -1.4574   -0.0872    0.0000 C   0  0  0  0  0  0  0  0  0
   -0.7429   -0.4997    0.0000 C   0  0  0  0  0  0  0  0  0
   -0.0284   -0.0872    0.0000 C   0  0  0  0  0  0  0  0  0
    0.6861   -0.4997    0.0000 C   0  0  0  0  0  0  0  0  0
    0.6861   -1.3247    0.0000 C   0  0  0  0  0  0  0  0  0
   -0.0284   -1.7372    0.0000 N   0  0  0  0  0  0  0  0  0
   -0.7429   -1.3247    0.0000 C   0  0  0  0  0  0  0  0  0
   -1.4574   -1.7372    0.0000 C   0  0  0  0  0  0  0  0  0
   -2.1718   -1.3247    0.0000 C   0  0  0  0  0  0  0  0  0
   -2.1718   -0.4997    0.0000 C   0  0  0  0  0  0  0  0  0
   -0.0284   -2.5622    0.0000 C   0  0  0  0  0  0  0  0  0
    0.6861   -2.9747    0.0000 C   0  0  0  0  0  0  0  0  0
    1.4005   -2.5622    0.0000 C   0  0  0  0  0  0  0  0  0
    2.1150   -2.9747    0.0000 C   0  0  0  0  0  0  0  0  0
    2.1150   -3.7997    0.0000 C   0  0  0  0  0  0  0  0  0
    1.4005   -4.2122    0.0000 C   0  0  0  0  0  0  0  0  0
    0.6861   -3.7997    0.0000 C   0  0  0  0  0  0  0  0  0
  1  2  1  0  0  0  0
  1 11  1  0  0  0  0
  2  3  1  0  0  0  0
  3  4  1  0  0  0  0
  4  5  1  0  0  0  0
  5  6  1  0  0  0  0
  5 10  1  0  0  0  0
  6  7  1  0  0  0  0
  7  8  1  0  0  0  0
  8  9  1  0  0  0  0
  9 10  1  0  0  0  0
 11 12  4  0  0  0  0
 11 20  4  0  0  0  0
 12 13  1  0  0  0  0
 12 17  4  0  0  0  0
 13 14  1  0  0  0  0
 14 15  1  0  0  0  0
 15 16  1  0  0  0  0
 16 17  1  0  0  0  0
 16 21  1  0  0  0  0
 17 18  4  0  0  0  0
 18 19  4  0  0  0  0
 19 20  4  0  0  0  0
 21 22  1  0  0  0  0
 22 23  1  0  0  0  0
 22 27  1  0  0  0  0
 23 24  1  0  0  0  0
 24 25  1  0  0  0  0
 25 26  1  0  0  0  0
 26 27  1  0  0  0  0
M  END
>  <Name_Molregno>
350594

>  <HISTAMINE H3>
6.85

$$$$
350596
  Marvin  02231216192D 0   1.00000     0.00000     0

 23 25  0  0  0  0  0  0  0  0999 V2000
    0.0084   -1.0056    0.0000 O   0  0  0  0  0  0  0  0  0
    0.7229   -0.5931    0.0000 C   0  0  0  0  0  0  0  0  0
    1.4373   -1.0056    0.0000 C   0  0  0  0  0  0  0  0  0
    2.1518   -0.5931    0.0000 C   0  0  0  0  0  0  0  0  0
    2.8663   -1.0056    0.0000 N   0  0  0  0  0  0  0  0  0
    3.5807   -0.5931    0.0000 C   0  0  0  0  0  0  0  0  0
    4.2952   -1.0056    0.0000 C   0  0  0  0  0  0  0  0  0
    4.2952   -1.8306    0.0000 C   0  0  0  0  0  0  0  0  0
    3.5807   -2.2431    0.0000 C   0  0  0  0  0  0  0  0  0
    2.8663   -1.8306    0.0000 C   0  0  0  0  0  0  0  0  0
   -0.7061   -0.5931    0.0000 C   0  0  0  0  0  0  0  0  0
   -1.4205   -1.0056    0.0000 C   0  0  0  0  0  0  0  0  0
   -2.1350   -0.5931    0.0000 C   0  0  0  0  0  0  0  0  0
   -2.7800   -1.1075    0.0000 C   0  0  0  0  0  0  0  0  0
   -3.5843   -0.9239    0.0000 C   0  0  0  0  0  0  0  0  0
   -3.9423   -0.1806    0.0000 C   0  0  0  0  0  0  0  0  0
   -3.5843    0.5627    0.0000 N   0  0  0  0  0  0  0  0  0
   -2.7800    0.7463    0.0000 C   0  0  0  0  0  0  0  0  0
   -2.1350    0.2319    0.0000 C   0  0  0  0  0  0  0  0  0
   -1.4205    0.6444    0.0000 C   0  0  0  0  0  0  0  0  0
   -0.7061    0.2319    0.0000 C   0  0  0  0  0  0  0  0  0
   -4.0987    1.2077    0.0000 C   0  0  0  0  0  0  0  0  0
   -4.9145    1.0847    0.0000 C   0  0  0  0  0  0  0  0  0
  1  2  1  0  0  0  0
  1 11  1  0  0  0  0
  2  3  1  0  0  0  0
  3  4  1  0  0  0  0
  4  5  1  0  0  0  0
  5  6  1  0  0  0  0
  5 10  1  0  0  0  0
  6  7  1  0  0  0  0
  7  8  1  0  0  0  0
  8  9  1  0  0  0  0
  9 10  1  0  0  0  0
 11 12  4  0  0  0  0
 11 21  4  0  0  0  0
 12 13  4  0  0  0  0
 13 14  1  0  0  0  0
 13 19  4  0  0  0  0
 14 15  1  0  0  0  0
 15 16  1  0  0  0  0
 16 17  1  0  0  0  0
 17 18  1  0  0  0  0
 17 22  1  0  0  0  0
 18 19  1  0  0  0  0
 19 20  4  0  0  0  0
 20 21  4  0  0  0  0
 22 23  1  0  0  0  0
M  END
>  <Name_Molregno>
350596

>  <HISTAMINE H3>
9.47

$$$$
350597
  Marvin  02231216192D 0   1.00000     0.00000     0

 28 31  0  0  0  0  0  0  0  0999 V2000
   -2.6833    0.0144    0.0000 O   0  0  0  0  0  0  0  0  0
   -3.3978   -0.3981    0.0000 C   0  0  0  0  0  0  0  0  0
   -4.1123    0.0144    0.0000 C   0  0  0  0  0  0  0  0  0
   -4.8267   -0.3981    0.0000 C   0  0  0  0  0  0  0  0  0
   -5.5412    0.0144    0.0000 N   0  0  0  0  0  0  0  0  0
   -6.2557   -0.3981    0.0000 C   0  0  0  0  0  0  0  0  0
   -6.9701    0.0144    0.0000 C   0  0  0  0  0  0  0  0  0
   -6.9701    0.8394    0.0000 C   0  0  0  0  0  0  0  0  0
   -6.2557    1.2519    0.0000 C   0  0  0  0  0  0  0  0  0
   -5.5412    0.8394    0.0000 C   0  0  0  0  0  0  0  0  0
   -1.9689   -0.3981    0.0000 C   0  0  0  0  0  0  0  0  0
   -1.2544    0.0144    0.0000 C   0  0  0  0  0  0  0  0  0
   -0.5399   -0.3981    0.0000 C   0  0  0  0  0  0  0  0  0
    0.1051    0.1163    0.0000 C   0  0  0  0  0  0  0  0  0
    0.9094   -0.0673    0.0000 C   0  0  0  0  0  0  0  0  0
    1.2674   -0.8106    0.0000 C   0  0  0  0  0  0  0  0  0
    0.9094   -1.5539    0.0000 N   0  0  0  0  0  0  0  0  0
    0.1051   -1.7375    0.0000 C   0  0  0  0  0  0  0  0  0
   -0.5399   -1.2231    0.0000 C   0  0  0  0  0  0  0  0  0
   -1.2544   -1.6356    0.0000 C   0  0  0  0  0  0  0  0  0
   -1.9689   -1.2231    0.0000 C   0  0  0  0  0  0  0  0  0
    1.4238   -2.1989    0.0000 C   0  0  0  0  0  0  0  0  0
    2.2396   -2.0760    0.0000 C   0  0  0  0  0  0  0  0  0
    2.5410   -1.3080    0.0000 C   0  0  0  0  0  0  0  0  0
    3.3568   -1.1850    0.0000 C   0  0  0  0  0  0  0  0  0
    3.8712   -1.8301    0.0000 C   0  0  0  0  0  0  0  0  0
    3.5697   -2.5980    0.0000 C   0  0  0  0  0  0  0  0  0
    2.7540   -2.7210    0.0000 C   0  0  0  0  0  0  0  0  0
  1  2  1  0  0  0  0
  1 11  1  0  0  0  0
  2  3  1  0  0  0  0
  3  4  1  0  0  0  0
  4  5  1  0  0  0  0
  5  6  1  0  0  0  0
  5 10  1  0  0  0  0
  6  7  1  0  0  0  0
  7  8  1  0  0  0  0
  8  9  1  0  0  0  0
  9 10  1  0  0  0  0
 11 12  4  0  0  0  0
 11 21  4  0  0  0  0
 12 13  4  0  0  0  0
 13 14  1  0  0  0  0
 13 19  4  0  0  0  0
 14 15  1  0  0  0  0
 15 16  1  0  0  0  0
 16 17  1  0  0  0  0
 17 18  1  0  0  0  0
 17 22  1  0  0  0  0
 18 19  1  0  0  0  0
 19 20  4  0  0  0  0
 20 21  4  0  0  0  0
 22 23  1  0  0  0  0
 23 24  4  0  0  0  0
 23 28  4  0  0  0  0
 24 25  4  0  0  0  0
 25 26  4  0  0  0  0
 26 27  4  0  0  0  0
 27 28  4  0  0  0  0
M  END
>  <Name_Molregno>
350597

>  <HISTAMINE H3>
9.7

$$$$
350625
  Marvin  02231216192D 0   1.00000     0.00000     0

 27 30  0  0  0  0  0  0  0  0999 V2000
   -1.4446    1.0238    0.0000 O   0  0  0  0  0  0  0  0  0
   -2.1591    1.4363    0.0000 C   0  0  0  0  0  0  0  0  0
   -2.1591    2.2613    0.0000 C   0  0  0  0  0  0  0  0  0
   -2.8735    2.6738    0.0000 C   0  0  0  0  0  0  0  0  0
   -2.8735    3.4988    0.0000 N   0  0  0  0  0  0  0  0  0
   -3.5880    3.9113    0.0000 C   0  0  0  0  0  0  0  0  0
   -3.5880    4.7363    0.0000 C   0  0  0  0  0  0  0  0  0
   -2.8735    5.1488    0.0000 C   0  0  0  0  0  0  0  0  0
   -2.1591    4.7363    0.0000 C   0  0  0  0  0  0  0  0  0
   -2.1591    3.9113    0.0000 C   0  0  0  0  0  0  0  0  0
   -1.4446    0.1988    0.0000 C   0  0  0  0  0  0  0  0  0
   -0.7301   -0.2137    0.0000 C   0  0  0  0  0  0  0  0  0
   -0.0157    0.1988    0.0000 C   0  0  0  0  0  0  0  0  0
    0.6988   -0.2137    0.0000 C   0  0  0  0  0  0  0  0  0
    0.6988   -1.0387    0.0000 N   0  0  0  0  0  0  0  0  0
   -0.0157   -1.4512    0.0000 C   0  0  0  0  0  0  0  0  0
   -0.7301   -1.0387    0.0000 C   0  0  0  0  0  0  0  0  0
   -1.4446   -1.4512    0.0000 C   0  0  0  0  0  0  0  0  0
   -2.1591   -1.0387    0.0000 C   0  0  0  0  0  0  0  0  0
   -2.1591   -0.2137    0.0000 C   0  0  0  0  0  0  0  0  0
    1.4133   -1.4512    0.0000 C   0  0  0  0  0  0  0  0  0
    1.4133   -2.2762    0.0000 C   0  0  0  0  0  0  0  0  0
    2.1278   -2.6887    0.0000 C   0  0  0  0  0  0  0  0  0
    2.1278   -3.5137    0.0000 C   0  0  0  0  0  0  0  0  0
    1.4133   -3.9262    0.0000 C   0  0  0  0  0  0  0  0  0
    0.6988   -3.5137    0.0000 C   0  0  0  0  0  0  0  0  0
    0.6988   -2.6887    0.0000 C   0  0  0  0  0  0  0  0  0
  1  2  1  0  0  0  0
  1 11  1  0  0  0  0
  2  3  1  0  0  0  0
  3  4  1  0  0  0  0
  4  5  1  0  0  0  0
  5  6  1  0  0  0  0
  5 10  1  0  0  0  0
  6  7  1  0  0  0  0
  7  8  1  0  0  0  0
  8  9  1  0  0  0  0
  9 10  1  0  0  0  0
 11 12  4  0  0  0  0
 11 20  4  0  0  0  0
 12 13  1  0  0  0  0
 12 17  4  0  0  0  0
 13 14  1  0  0  0  0
 14 15  1  0  0  0  0
 15 16  1  0  0  0  0
 15 21  1  0  0  0  0
 16 17  1  0  0  0  0
 17 18  4  0  0  0  0
 18 19  4  0  0  0  0
 19 20  4  0  0  0  0
 21 22  1  0  0  0  0
 22 23  1  0  0  0  0
 22 27  1  0  0  0  0
 23 24  1  0  0  0  0
 24 25  1  0  0  0  0
 25 26  1  0  0  0  0
 26 27  1  0  0  0  0
M  END
>  <Name_Molregno>
350625

>  <HISTAMINE H3>
7.81

$$$$
350626
  Marvin  02231216192D 0   1.00000     0.00000     0

 29 32  0  0  0  0  0  0  0  0999 V2000
    0.5523    2.4437    0.0000 S   0  0  0  0  0  0  0  0  0
    0.9648    3.1581    0.0000 O   0  0  0  0  0  0  0  0  0
    0.1398    1.7292    0.0000 O   0  0  0  0  0  0  0  0  0
    1.2667    2.0312    0.0000 N   0  0  0  0  0  0  0  0  0
    1.2667    1.2062    0.0000 C   0  0  0  0  0  0  0  0  0
    1.9812    0.7937    0.0000 C   0  0  0  0  0  0  0  0  0
    2.6957    1.2062    0.0000 C   0  0  0  0  0  0  0  0  0
    2.6957    2.0312    0.0000 C   0  0  0  0  0  0  0  0  0
    1.9812    2.4437    0.0000 C   0  0  0  0  0  0  0  0  0
    3.4101    2.4437    0.0000 C   0  0  0  0  0  0  0  0  0
    4.1246    2.0312    0.0000 C   0  0  0  0  0  0  0  0  0
    4.1246    1.2062    0.0000 C   0  0  0  0  0  0  0  0  0
    3.4101    0.7937    0.0000 C   0  0  0  0  0  0  0  0  0
    3.4101   -0.0313    0.0000 O   0  0  0  0  0  0  0  0  0
    4.1246   -0.4438    0.0000 C   0  0  0  0  0  0  0  0  0
    4.1246   -1.2688    0.0000 C   0  0  0  0  0  0  0  0  0
    4.8391   -1.6813    0.0000 C   0  0  0  0  0  0  0  0  0
    4.8391   -2.5063    0.0000 N   0  0  0  0  0  0  0  0  0
    5.5536   -2.9188    0.0000 C   0  0  0  0  0  0  0  0  0
    5.5536   -3.7438    0.0000 C   0  0  0  0  0  0  0  0  0
    4.8391   -4.1563    0.0000 C   0  0  0  0  0  0  0  0  0
    4.1246   -3.7438    0.0000 C   0  0  0  0  0  0  0  0  0
    4.1246   -2.9188    0.0000 C   0  0  0  0  0  0  0  0  0
   -0.1622    2.8562    0.0000 C   0  0  0  0  0  0  0  0  0
   -0.8767    2.4437    0.0000 C   0  0  0  0  0  0  0  0  0
   -1.5912    2.8562    0.0000 C   0  0  0  0  0  0  0  0  0
   -1.5912    3.6812    0.0000 C   0  0  0  0  0  0  0  0  0
   -0.8767    4.0937    0.0000 C   0  0  0  0  0  0  0  0  0
   -0.1622    3.6812    0.0000 C   0  0  0  0  0  0  0  0  0
  1  2  2  0  0  0  0
  1  3  2  0  0  0  0
  1  4  1  0  0  0  0
  1 24  1  0  0  0  0
  4  5  1  0  0  0  0
  4  9  1  0  0  0  0
  5  6  1  0  0  0  0
  6  7  1  0  0  0  0
  7  8  4  0  0  0  0
  7 13  4  0  0  0  0
  8  9  1  0  0  0  0
  8 10  4  0  0  0  0
 10 11  4  0  0  0  0
 11 12  4  0  0  0  0
 12 13  4  0  0  0  0
 13 14  1  0  0  0  0
 14 15  1  0  0  0  0
 15 16  1  0  0  0  0
 16 17  1  0  0  0  0
 17 18  1  0  0  0  0
 18 19  1  0  0  0  0
 18 23  1  0  0  0  0
 19 20  1  0  0  0  0
 20 21  1  0  0  0  0
 21 22  1  0  0  0  0
 22 23  1  0  0  0  0
 24 25  4  0  0  0  0
 24 29  4  0  0  0  0
 25 26  4  0  0  0  0
 26 27  4  0  0  0  0
 27 28  4  0  0  0  0
 28 29  4  0  0  0  0
M  END
>  <Name_Molregno>
350626

>  <HISTAMINE H3>
6.52

$$$$
350628
  Marvin  02231216192D 0   1.00000     0.00000     0

 24 26  0  0  0  0  0  0  0  0999 V2000
    0.0152   -1.2114    0.0000 O   0  0  0  0  0  0  0  0  0
    0.7297   -0.7989    0.0000 C   0  0  0  0  0  0  0  0  0
    1.4442   -1.2114    0.0000 C   0  0  0  0  0  0  0  0  0
    2.1586   -0.7989    0.0000 C   0  0  0  0  0  0  0  0  0
    2.8731   -1.2114    0.0000 N   0  0  0  0  0  0  0  0  0
    3.5876   -0.7989    0.0000 C   0  0  0  0  0  0  0  0  0
    4.3020   -1.2114    0.0000 C   0  0  0  0  0  0  0  0  0
    4.3020   -2.0364    0.0000 C   0  0  0  0  0  0  0  0  0
    3.5876   -2.4489    0.0000 C   0  0  0  0  0  0  0  0  0
    2.8731   -2.0364    0.0000 C   0  0  0  0  0  0  0  0  0
   -0.6993   -0.7989    0.0000 C   0  0  0  0  0  0  0  0  0
   -1.4137   -1.2114    0.0000 C   0  0  0  0  0  0  0  0  0
   -2.1282   -0.7989    0.0000 C   0  0  0  0  0  0  0  0  0
   -2.7732   -1.3133    0.0000 C   0  0  0  0  0  0  0  0  0
   -3.5775   -1.1297    0.0000 C   0  0  0  0  0  0  0  0  0
   -3.9355   -0.3864    0.0000 C   0  0  0  0  0  0  0  0  0
   -3.5775    0.3569    0.0000 N   0  0  0  0  0  0  0  0  0
   -2.7732    0.5404    0.0000 C   0  0  0  0  0  0  0  0  0
   -2.1282    0.0261    0.0000 C   0  0  0  0  0  0  0  0  0
   -1.4137    0.4386    0.0000 C   0  0  0  0  0  0  0  0  0
   -0.6993    0.0261    0.0000 C   0  0  0  0  0  0  0  0  0
   -4.0919    1.0019    0.0000 C   0  0  0  0  0  0  0  0  0
   -4.9077    0.8789    0.0000 C   0  0  0  0  0  0  0  0  0
   -3.7905    1.7698    0.0000 C   0  0  0  0  0  0  0  0  0
  1  2  1  0  0  0  0
  1 11  1  0  0  0  0
  2  3  1  0  0  0  0
  3  4  1  0  0  0  0
  4  5  1  0  0  0  0
  5  6  1  0  0  0  0
  5 10  1  0  0  0  0
  6  7  1  0  0  0  0
  7  8  1  0  0  0  0
  8  9  1  0  0  0  0
  9 10  1  0  0  0  0
 11 12  4  0  0  0  0
 11 21  4  0  0  0  0
 12 13  4  0  0  0  0
 13 14  1  0  0  0  0
 13 19  4  0  0  0  0
 14 15  1  0  0  0  0
 15 16  1  0  0  0  0
 16 17  1  0  0  0  0
 17 18  1  0  0  0  0
 17 22  1  0  0  0  0
 18 19  1  0  0  0  0
 19 20  4  0  0  0  0
 20 21  4  0  0  0  0
 22 23  1  0  0  0  0
 22 24  1  0  0  0  0
M  END
>  <Name_Molregno>
350628

>  <HISTAMINE H3>
9.7

$$$$
350629
  Marvin  02231216192D 0   1.00000     0.00000     0

 27 29  0  0  0  0  0  0  0  0999 V2000
    2.1300   -1.7310    0.0000 O   0  0  0  0  0  0  0  0  0
    2.8445   -1.3185    0.0000 C   0  0  0  0  0  0  0  0  0
    3.5589   -1.7310    0.0000 C   0  0  0  0  0  0  0  0  0
    4.2734   -1.3185    0.0000 C   0  0  0  0  0  0  0  0  0
    4.9879   -1.7310    0.0000 N   0  0  0  0  0  0  0  0  0
    5.7024   -1.3185    0.0000 C   0  0  0  0  0  0  0  0  0
    6.4168   -1.7310    0.0000 C   0  0  0  0  0  0  0  0  0
    6.4168   -2.5560    0.0000 C   0  0  0  0  0  0  0  0  0
    5.7024   -2.9685    0.0000 C   0  0  0  0  0  0  0  0  0
    4.9879   -2.5560    0.0000 C   0  0  0  0  0  0  0  0  0
    1.4155   -1.3185    0.0000 C   0  0  0  0  0  0  0  0  0
    0.7011   -1.7310    0.0000 C   0  0  0  0  0  0  0  0  0
   -0.0134   -1.3185    0.0000 C   0  0  0  0  0  0  0  0  0
   -0.6584   -1.8329    0.0000 C   0  0  0  0  0  0  0  0  0
   -1.4627   -1.6493    0.0000 C   0  0  0  0  0  0  0  0  0
   -1.8207   -0.9060    0.0000 C   0  0  0  0  0  0  0  0  0
   -1.4627   -0.1627    0.0000 N   0  0  0  0  0  0  0  0  0
   -0.6584    0.0209    0.0000 C   0  0  0  0  0  0  0  0  0
   -0.0134   -0.4935    0.0000 C   0  0  0  0  0  0  0  0  0
    0.7011   -0.0810    0.0000 C   0  0  0  0  0  0  0  0  0
    1.4155   -0.4935    0.0000 C   0  0  0  0  0  0  0  0  0
   -1.9771    0.4823    0.0000 C   0  0  0  0  0  0  0  0  0
   -1.6757    1.2503    0.0000 O   0  0  0  0  0  0  0  0  0
   -2.7929    0.3593    0.0000 N   0  0  0  0  0  0  0  0  0
   -3.3073    1.0044    0.0000 C   0  0  0  0  0  0  0  0  0
   -4.1231    0.8814    0.0000 C   0  0  0  0  0  0  0  0  0
   -3.0059    1.7723    0.0000 C   0  0  0  0  0  0  0  0  0
  1  2  1  0  0  0  0
  1 11  1  0  0  0  0
  2  3  1  0  0  0  0
  3  4  1  0  0  0  0
  4  5  1  0  0  0  0
  5  6  1  0  0  0  0
  5 10  1  0  0  0  0
  6  7  1  0  0  0  0
  7  8  1  0  0  0  0
  8  9  1  0  0  0  0
  9 10  1  0  0  0  0
 11 12  4  0  0  0  0
 11 21  4  0  0  0  0
 12 13  4  0  0  0  0
 13 14  1  0  0  0  0
 13 19  4  0  0  0  0
 14 15  1  0  0  0  0
 15 16  1  0  0  0  0
 16 17  1  0  0  0  0
 17 18  1  0  0  0  0
 17 22  1  0  0  0  0
 18 19  1  0  0  0  0
 19 20  4  0  0  0  0
 20 21  4  0  0  0  0
 22 23  2  0  0  0  0
 22 24  1  0  0  0  0
 24 25  1  0  0  0  0
 25 26  1  0  0  0  0
 25 27  1  0  0  0  0
M  END
>  <Name_Molregno>
350629

>  <HISTAMINE H3>
7.77

$$$$
350653
  Marvin  02231216192D 0   1.00000     0.00000     0

 27 30  0  0  0  0  0  0  0  0999 V2000
   -5.0922    1.1861    0.0000 S   0  0  0  0  0  0  0  0  0
   -4.8373    1.9707    0.0000 C   0  0  0  0  0  0  0  0  0
   -4.0123    1.9707    0.0000 C   0  0  0  0  0  0  0  0  0
   -3.7573    1.1861    0.0000 C   0  0  0  0  0  0  0  0  0
   -4.4248    0.7012    0.0000 C   0  0  0  0  0  0  0  0  0
   -4.4248   -0.1238    0.0000 C   0  0  0  0  0  0  0  0  0
   -5.1392   -0.5363    0.0000 O   0  0  0  0  0  0  0  0  0
   -3.7103   -0.5363    0.0000 N   0  0  0  0  0  0  0  0  0
   -3.7103   -1.3613    0.0000 C   0  0  0  0  0  0  0  0  0
   -2.9958   -1.7738    0.0000 C   0  0  0  0  0  0  0  0  0
   -2.2813   -1.3613    0.0000 C   0  0  0  0  0  0  0  0  0
   -2.2813   -0.5363    0.0000 C   0  0  0  0  0  0  0  0  0
   -2.9958   -0.1238    0.0000 C   0  0  0  0  0  0  0  0  0
   -1.5669   -0.1238    0.0000 C   0  0  0  0  0  0  0  0  0
   -0.8524   -0.5363    0.0000 C   0  0  0  0  0  0  0  0  0
   -0.8524   -1.3613    0.0000 C   0  0  0  0  0  0  0  0  0
   -1.5669   -1.7738    0.0000 C   0  0  0  0  0  0  0  0  0
   -1.5669   -2.5988    0.0000 O   0  0  0  0  0  0  0  0  0
   -0.8524   -3.0113    0.0000 C   0  0  0  0  0  0  0  0  0
   -0.8524   -3.8363    0.0000 C   0  0  0  0  0  0  0  0  0
   -0.1379   -4.2488    0.0000 C   0  0  0  0  0  0  0  0  0
   -0.1379   -5.0738    0.0000 N   0  0  0  0  0  0  0  0  0
    0.5765   -5.4863    0.0000 C   0  0  0  0  0  0  0  0  0
    0.5765   -6.3113    0.0000 C   0  0  0  0  0  0  0  0  0
   -0.1379   -6.7238    0.0000 C   0  0  0  0  0  0  0  0  0
   -0.8524   -6.3113    0.0000 C   0  0  0  0  0  0  0  0  0
   -0.8524   -5.4863    0.0000 C   0  0  0  0  0  0  0  0  0
  1  2  4  0  0  0  0
  1  5  4  0  0  0  0
  2  3  4  0  0  0  0
  3  4  4  0  0  0  0
  4  5  4  0  0  0  0
  5  6  1  0  0  0  0
  6  7  2  0  0  0  0
  6  8  1  0  0  0  0
  8  9  1  0  0  0  0
  8 13  1  0  0  0  0
  9 10  1  0  0  0  0
 10 11  1  0  0  0  0
 11 12  4  0  0  0  0
 11 17  4  0  0  0  0
 12 13  1  0  0  0  0
 12 14  4  0  0  0  0
 14 15  4  0  0  0  0
 15 16  4  0  0  0  0
 16 17  4  0  0  0  0
 17 18  1  0  0  0  0
 18 19  1  0  0  0  0
 19 20  1  0  0  0  0
 20 21  1  0  0  0  0
 21 22  1  0  0  0  0
 22 23  1  0  0  0  0
 22 27  1  0  0  0  0
 23 24  1  0  0  0  0
 24 25  1  0  0  0  0
 25 26  1  0  0  0  0
 26 27  1  0  0  0  0
M  END
>  <Name_Molregno>
350653

>  <HISTAMINE H3>
6.52

$$$$
350654
  Marvin  02231216192D 0   1.00000     0.00000     0

 20 22  0  0  0  0  0  0  0  0999 V2000
   -0.0101   -0.0032    0.0000 O   0  0  0  0  0  0  0  0  0
    0.7044    0.4093    0.0000 C   0  0  0  0  0  0  0  0  0
    1.4189   -0.0032    0.0000 C   0  0  0  0  0  0  0  0  0
    2.1334    0.4093    0.0000 C   0  0  0  0  0  0  0  0  0
    2.8478   -0.0032    0.0000 N   0  0  0  0  0  0  0  0  0
    3.5623    0.4093    0.0000 C   0  0  0  0  0  0  0  0  0
    4.2768   -0.0032    0.0000 C   0  0  0  0  0  0  0  0  0
    4.2768   -0.8282    0.0000 C   0  0  0  0  0  0  0  0  0
    3.5623   -1.2407    0.0000 C   0  0  0  0  0  0  0  0  0
    2.8478   -0.8282    0.0000 C   0  0  0  0  0  0  0  0  0
   -0.7245    0.4093    0.0000 C   0  0  0  0  0  0  0  0  0
   -1.4390   -0.0032    0.0000 C   0  0  0  0  0  0  0  0  0
   -1.4390   -0.8282    0.0000 C   0  0  0  0  0  0  0  0  0
   -2.1535   -1.2407    0.0000 C   0  0  0  0  0  0  0  0  0
   -2.8679   -0.8282    0.0000 N   0  0  0  0  0  0  0  0  0
   -2.8679   -0.0032    0.0000 C   0  0  0  0  0  0  0  0  0
   -2.1535    0.4093    0.0000 C   0  0  0  0  0  0  0  0  0
   -2.1535    1.2343    0.0000 C   0  0  0  0  0  0  0  0  0
   -1.4390    1.6468    0.0000 C   0  0  0  0  0  0  0  0  0
   -0.7245    1.2343    0.0000 C   0  0  0  0  0  0  0  0  0
  1  2  1  0  0  0  0
  1 11  1  0  0  0  0
  2  3  1  0  0  0  0
  3  4  1  0  0  0  0
  4  5  1  0  0  0  0
  5  6  1  0  0  0  0
  5 10  1  0  0  0  0
  6  7  1  0  0  0  0
  7  8  1  0  0  0  0
  8  9  1  0  0  0  0
  9 10  1  0  0  0  0
 11 12  4  0  0  0  0
 11 20  4  0  0  0  0
 12 13  1  0  0  0  0
 12 17  4  0  0  0  0
 13 14  1  0  0  0  0
 14 15  1  0  0  0  0
 15 16  1  0  0  0  0
 16 17  1  0  0  0  0
 17 18  4  0  0  0  0
 18 19  4  0  0  0  0
 19 20  4  0  0  0  0
M  END
>  <Name_Molregno>
350654

>  <HISTAMINE H3>
6.52

$$$$
350663
  Marvin  02231216192D 0   1.00000     0.00000     0

 25 27  0  0  0  0  0  0  0  0999 V2000
   -7.1547    0.9397    0.0000 S   0  0  0  0  0  0  0  0  0
   -7.9705    1.0626    0.0000 O   0  0  0  0  0  0  0  0  0
   -7.2777    0.1239    0.0000 O   0  0  0  0  0  0  0  0  0
   -6.3390    0.8167    0.0000 N   0  0  0  0  0  0  0  0  0
   -5.8742    1.4984    0.0000 C   0  0  0  0  0  0  0  0  0
   -5.0515    1.5600    0.0000 C   0  0  0  0  0  0  0  0  0
   -4.4904    0.9553    0.0000 C   0  0  0  0  0  0  0  0  0
   -4.6133    0.1395    0.0000 C   0  0  0  0  0  0  0  0  0
   -3.8989   -0.2730    0.0000 C   0  0  0  0  0  0  0  0  0
   -3.8989   -1.0980    0.0000 C   0  0  0  0  0  0  0  0  0
   -3.1844   -1.5105    0.0000 O   0  0  0  0  0  0  0  0  0
   -2.4699   -1.0980    0.0000 C   0  0  0  0  0  0  0  0  0
   -1.7555   -1.5105    0.0000 C   0  0  0  0  0  0  0  0  0
   -1.0410   -1.0980    0.0000 C   0  0  0  0  0  0  0  0  0
   -0.3265   -1.5105    0.0000 N   0  0  0  0  0  0  0  0  0
    0.3880   -1.0980    0.0000 C   0  0  0  0  0  0  0  0  0
    1.1024   -1.5105    0.0000 C   0  0  0  0  0  0  0  0  0
    1.1024   -2.3355    0.0000 C   0  0  0  0  0  0  0  0  0
    0.3880   -2.7480    0.0000 C   0  0  0  0  0  0  0  0  0
   -0.3265   -2.3355    0.0000 C   0  0  0  0  0  0  0  0  0
   -4.6133   -1.5105    0.0000 C   0  0  0  0  0  0  0  0  0
   -5.3278   -1.0980    0.0000 C   0  0  0  0  0  0  0  0  0
   -5.3278   -0.2730    0.0000 C   0  0  0  0  0  0  0  0  0
   -6.0958    0.0284    0.0000 C   0  0  0  0  0  0  0  0  0
   -7.0318    1.7555    0.0000 C   0  0  0  0  0  0  0  0  0
  1  2  2  0  0  0  0
  1  3  2  0  0  0  0
  1  4  1  0  0  0  0
  1 25  1  0  0  0  0
  4  5  1  0  0  0  0
  4 24  1  0  0  0  0
  5  6  1  0  0  0  0
  6  7  1  0  0  0  0
  7  8  1  0  0  0  0
  8  9  4  0  0  0  0
  8 23  4  0  0  0  0
  9 10  4  0  0  0  0
 10 11  1  0  0  0  0
 10 21  4  0  0  0  0
 11 12  1  0  0  0  0
 12 13  1  0  0  0  0
 13 14  1  0  0  0  0
 14 15  1  0  0  0  0
 15 16  1  0  0  0  0
 15 20  1  0  0  0  0
 16 17  1  0  0  0  0
 17 18  1  0  0  0  0
 18 19  1  0  0  0  0
 19 20  1  0  0  0  0
 21 22  4  0  0  0  0
 22 23  4  0  0  0  0
 23 24  1  0  0  0  0
M  END
>  <Name_Molregno>
350663

>  <HISTAMINE H3>
8.54

$$$$
350665
  Marvin  02231216192D 0   1.00000     0.00000     0

 23 25  0  0  0  0  0  0  0  0999 V2000
    0.0140   -0.7811    0.0000 O   0  0  0  0  0  0  0  0  0
    0.7285   -0.3686    0.0000 C   0  0  0  0  0  0  0  0  0
    1.4430   -0.7811    0.0000 C   0  0  0  0  0  0  0  0  0
    2.1574   -0.3686    0.0000 C   0  0  0  0  0  0  0  0  0
    2.8719   -0.7811    0.0000 N   0  0  0  0  0  0  0  0  0
    3.5864   -0.3686    0.0000 C   0  0  0  0  0  0  0  0  0
    4.3008   -0.7811    0.0000 C   0  0  0  0  0  0  0  0  0
    4.3008   -1.6061    0.0000 C   0  0  0  0  0  0  0  0  0
    3.5864   -2.0186    0.0000 C   0  0  0  0  0  0  0  0  0
    2.8719   -1.6061    0.0000 C   0  0  0  0  0  0  0  0  0
   -0.7005   -0.3686    0.0000 C   0  0  0  0  0  0  0  0  0
   -1.4149   -0.7811    0.0000 C   0  0  0  0  0  0  0  0  0
   -2.1294   -0.3686    0.0000 C   0  0  0  0  0  0  0  0  0
   -2.7744   -0.8830    0.0000 C   0  0  0  0  0  0  0  0  0
   -3.5787   -0.6994    0.0000 C   0  0  0  0  0  0  0  0  0
   -3.9367    0.0439    0.0000 N   0  0  0  0  0  0  0  0  0
   -3.5787    0.7872    0.0000 C   0  0  0  0  0  0  0  0  0
   -2.7744    0.9707    0.0000 C   0  0  0  0  0  0  0  0  0
   -2.1294    0.4564    0.0000 C   0  0  0  0  0  0  0  0  0
   -1.4149    0.8689    0.0000 C   0  0  0  0  0  0  0  0  0
   -0.7005    0.4564    0.0000 C   0  0  0  0  0  0  0  0  0
   -4.7617    0.0439    0.0000 C   0  0  0  0  0  0  0  0  0
   -5.1742   -0.6706    0.0000 C   0  0  0  0  0  0  0  0  0
  1  2  1  0  0  0  0
  1 11  1  0  0  0  0
  2  3  1  0  0  0  0
  3  4  1  0  0  0  0
  4  5  1  0  0  0  0
  5  6  1  0  0  0  0
  5 10  1  0  0  0  0
  6  7  1  0  0  0  0
  7  8  1  0  0  0  0
  8  9  1  0  0  0  0
  9 10  1  0  0  0  0
 11 12  4  0  0  0  0
 11 21  4  0  0  0  0
 12 13  4  0  0  0  0
 13 14  1  0  0  0  0
 13 19  4  0  0  0  0
 14 15  1  0  0  0  0
 15 16  1  0  0  0  0
 16 17  1  0  0  0  0
 16 22  1  0  0  0  0
 17 18  1  0  0  0  0
 18 19  1  0  0  0  0
 19 20  4  0  0  0  0
 20 21  4  0  0  0  0
 22 23  1  0  0  0  0
M  END
>  <Name_Molregno>
350665

>  <HISTAMINE H3>
9.59

$$$$
350689
  Marvin  02231216192D 0   1.00000     0.00000     0

 22 24  0  0  0  0  0  0  0  0999 V2000
    0.0089   -0.8528    0.0000 O   0  0  0  0  0  0  0  0  0
    0.7233   -0.4403    0.0000 C   0  0  0  0  0  0  0  0  0
    1.4378   -0.8528    0.0000 C   0  0  0  0  0  0  0  0  0
    2.1523   -0.4403    0.0000 C   0  0  0  0  0  0  0  0  0
    2.8667   -0.8528    0.0000 N   0  0  0  0  0  0  0  0  0
    3.5812   -0.4403    0.0000 C   0  0  0  0  0  0  0  0  0
    4.2957   -0.8528    0.0000 C   0  0  0  0  0  0  0  0  0
    4.2957   -1.6778    0.0000 C   0  0  0  0  0  0  0  0  0
    3.5812   -2.0903    0.0000 C   0  0  0  0  0  0  0  0  0
    2.8667   -1.6778    0.0000 C   0  0  0  0  0  0  0  0  0
   -0.7056   -0.4403    0.0000 C   0  0  0  0  0  0  0  0  0
   -1.4201   -0.8528    0.0000 C   0  0  0  0  0  0  0  0  0
   -2.1346   -0.4403    0.0000 C   0  0  0  0  0  0  0  0  0
   -2.8490   -0.8528    0.0000 C   0  0  0  0  0  0  0  0  0
   -3.5635   -0.4403    0.0000 C   0  0  0  0  0  0  0  0  0
   -3.5635    0.3847    0.0000 N   0  0  0  0  0  0  0  0  0
   -2.8490    0.7972    0.0000 C   0  0  0  0  0  0  0  0  0
   -2.1346    0.3847    0.0000 C   0  0  0  0  0  0  0  0  0
   -1.4201    0.7972    0.0000 C   0  0  0  0  0  0  0  0  0
   -0.7056    0.3847    0.0000 C   0  0  0  0  0  0  0  0  0
   -4.2780    0.7972    0.0000 C   0  0  0  0  0  0  0  0  0
   -4.9924    0.3847    0.0000 C   0  0  0  0  0  0  0  0  0
  1  2  1  0  0  0  0
  1 11  1  0  0  0  0
  2  3  1  0  0  0  0
  3  4  1  0  0  0  0
  4  5  1  0  0  0  0
  5  6  1  0  0  0  0
  5 10  1  0  0  0  0
  6  7  1  0  0  0  0
  7  8  1  0  0  0  0
  8  9  1  0  0  0  0
  9 10  1  0  0  0  0
 11 12  4  0  0  0  0
 11 20  4  0  0  0  0
 12 13  4  0  0  0  0
 13 14  1  0  0  0  0
 13 18  4  0  0  0  0
 14 15  1  0  0  0  0
 15 16  1  0  0  0  0
 16 17  1  0  0  0  0
 16 21  1  0  0  0  0
 17 18  1  0  0  0  0
 18 19  4  0  0  0  0
 19 20  4  0  0  0  0
 21 22  1  0  0  0  0
M  END
>  <Name_Molregno>
350689

>  <HISTAMINE H3>
9.27

$$$$
350690
  Marvin  02231216192D 0   1.00000     0.00000     0

 27 30  0  0  0  0  0  0  0  0999 V2000
   -2.5091    0.0171    0.0000 O   0  0  0  0  0  0  0  0  0
   -3.2236   -0.3954    0.0000 C   0  0  0  0  0  0  0  0  0
   -3.9380    0.0171    0.0000 C   0  0  0  0  0  0  0  0  0
   -4.6525   -0.3954    0.0000 C   0  0  0  0  0  0  0  0  0
   -5.3670    0.0171    0.0000 N   0  0  0  0  0  0  0  0  0
   -6.0814   -0.3954    0.0000 C   0  0  0  0  0  0  0  0  0
   -6.7959    0.0171    0.0000 C   0  0  0  0  0  0  0  0  0
   -6.7959    0.8421    0.0000 C   0  0  0  0  0  0  0  0  0
   -6.0814    1.2546    0.0000 C   0  0  0  0  0  0  0  0  0
   -5.3670    0.8421    0.0000 C   0  0  0  0  0  0  0  0  0
   -1.7946   -0.3954    0.0000 C   0  0  0  0  0  0  0  0  0
   -1.0801    0.0171    0.0000 C   0  0  0  0  0  0  0  0  0
   -0.3657   -0.3954    0.0000 C   0  0  0  0  0  0  0  0  0
    0.3488    0.0171    0.0000 C   0  0  0  0  0  0  0  0  0
    1.0633   -0.3954    0.0000 C   0  0  0  0  0  0  0  0  0
    1.0633   -1.2204    0.0000 N   0  0  0  0  0  0  0  0  0
    0.3488   -1.6329    0.0000 C   0  0  0  0  0  0  0  0  0
   -0.3657   -1.2204    0.0000 C   0  0  0  0  0  0  0  0  0
   -1.0801   -1.6329    0.0000 C   0  0  0  0  0  0  0  0  0
   -1.7946   -1.2204    0.0000 C   0  0  0  0  0  0  0  0  0
    1.7777   -1.6329    0.0000 C   0  0  0  0  0  0  0  0  0
    2.4922   -1.2204    0.0000 C   0  0  0  0  0  0  0  0  0
    2.4922   -0.3954    0.0000 C   0  0  0  0  0  0  0  0  0
    3.2067    0.0171    0.0000 C   0  0  0  0  0  0  0  0  0
    3.9212   -0.3954    0.0000 C   0  0  0  0  0  0  0  0  0
    3.9212   -1.2204    0.0000 C   0  0  0  0  0  0  0  0  0
    3.2067   -1.6329    0.0000 C   0  0  0  0  0  0  0  0  0
  1  2  1  0  0  0  0
  1 11  1  0  0  0  0
  2  3  1  0  0  0  0
  3  4  1  0  0  0  0
  4  5  1  0  0  0  0
  5  6  1  0  0  0  0
  5 10  1  0  0  0  0
  6  7  1  0  0  0  0
  7  8  1  0  0  0  0
  8  9  1  0  0  0  0
  9 10  1  0  0  0  0
 11 12  4  0  0  0  0
 11 20  4  0  0  0  0
 12 13  4  0  0  0  0
 13 14  1  0  0  0  0
 13 18  4  0  0  0  0
 14 15  1  0  0  0  0
 15 16  1  0  0  0  0
 16 17  1  0  0  0  0
 16 21  1  0  0  0  0
 17 18  1  0  0  0  0
 18 19  4  0  0  0  0
 19 20  4  0  0  0  0
 21 22  1  0  0  0  0
 22 23  1  0  0  0  0
 22 27  1  0  0  0  0
 23 24  1  0  0  0  0
 24 25  1  0  0  0  0
 25 26  1  0  0  0  0
 26 27  1  0  0  0  0
M  END
>  <Name_Molregno>
350690

>  <HISTAMINE H3>
9

$$$$
350692
  Marvin  02231216192D 0   1.00000     0.00000     0

 28 31  0  0  0  0  0  0  0  0999 V2000
   -2.6801    0.0291    0.0000 O   0  0  0  0  0  0  0  0  0
   -3.3946   -0.3834    0.0000 C   0  0  0  0  0  0  0  0  0
   -4.1091    0.0291    0.0000 C   0  0  0  0  0  0  0  0  0
   -4.8235   -0.3834    0.0000 C   0  0  0  0  0  0  0  0  0
   -5.5380    0.0291    0.0000 N   0  0  0  0  0  0  0  0  0
   -6.2525   -0.3834    0.0000 C   0  0  0  0  0  0  0  0  0
   -6.9669    0.0291    0.0000 C   0  0  0  0  0  0  0  0  0
   -6.9669    0.8541    0.0000 C   0  0  0  0  0  0  0  0  0
   -6.2525    1.2666    0.0000 C   0  0  0  0  0  0  0  0  0
   -5.5380    0.8541    0.0000 C   0  0  0  0  0  0  0  0  0
   -1.9656   -0.3834    0.0000 C   0  0  0  0  0  0  0  0  0
   -1.2512    0.0291    0.0000 C   0  0  0  0  0  0  0  0  0
   -0.5367   -0.3834    0.0000 C   0  0  0  0  0  0  0  0  0
    0.1083    0.1310    0.0000 C   0  0  0  0  0  0  0  0  0
    0.9126   -0.0526    0.0000 C   0  0  0  0  0  0  0  0  0
    1.2706   -0.7959    0.0000 N   0  0  0  0  0  0  0  0  0
    0.9126   -1.5392    0.0000 C   0  0  0  0  0  0  0  0  0
    0.1083   -1.7228    0.0000 C   0  0  0  0  0  0  0  0  0
   -0.5367   -1.2084    0.0000 C   0  0  0  0  0  0  0  0  0
   -1.2512   -1.6209    0.0000 C   0  0  0  0  0  0  0  0  0
   -1.9656   -1.2084    0.0000 C   0  0  0  0  0  0  0  0  0
    2.0956   -0.7959    0.0000 C   0  0  0  0  0  0  0  0  0
    2.5081   -1.5104    0.0000 C   0  0  0  0  0  0  0  0  0
    3.3331   -1.5104    0.0000 C   0  0  0  0  0  0  0  0  0
    3.7456   -2.2249    0.0000 C   0  0  0  0  0  0  0  0  0
    3.3331   -2.9393    0.0000 C   0  0  0  0  0  0  0  0  0
    2.5081   -2.9393    0.0000 C   0  0  0  0  0  0  0  0  0
    2.0956   -2.2249    0.0000 C   0  0  0  0  0  0  0  0  0
  1  2  1  0  0  0  0
  1 11  1  0  0  0  0
  2  3  1  0  0  0  0
  3  4  1  0  0  0  0
  4  5  1  0  0  0  0
  5  6  1  0  0  0  0
  5 10  1  0  0  0  0
  6  7  1  0  0  0  0
  7  8  1  0  0  0  0
  8  9  1  0  0  0  0
  9 10  1  0  0  0  0
 11 12  4  0  0  0  0
 11 21  4  0  0  0  0
 12 13  4  0  0  0  0
 13 14  1  0  0  0  0
 13 19  4  0  0  0  0
 14 15  1  0  0  0  0
 15 16  1  0  0  0  0
 16 17  1  0  0  0  0
 16 22  1  0  0  0  0
 17 18  1  0  0  0  0
 18 19  1  0  0  0  0
 19 20  4  0  0  0  0
 20 21  4  0  0  0  0
 22 23  1  0  0  0  0
 23 24  1  0  0  0  0
 23 28  1  0  0  0  0
 24 25  1  0  0  0  0
 25 26  1  0  0  0  0
 26 27  1  0  0  0  0
 27 28  1  0  0  0  0
M  END
>  <Name_Molregno>
350692

>  <HISTAMINE H3>
9.28

$$$$
353070
  Marvin  02231216192D 0   1.00000     0.00000     0

 23 26  0  0  0  0  0  0  0  0999 V2000
    0.4642    2.7256    0.0000 Cl  0  0  0  0  0  0  0  0  0
    1.0689    2.1644    0.0000 C   0  0  0  0  0  0  0  0  0
    1.8573    2.4076    0.0000 C   0  0  0  0  0  0  0  0  0
    2.4620    1.8465    0.0000 C   0  0  0  0  0  0  0  0  0
    3.2053    2.2044    0.0000 O   0  0  0  0  0  0  0  0  0
    3.9486    1.8465    0.0000 C   0  0  0  0  0  0  0  0  0
    4.1322    1.0422    0.0000 C   0  0  0  0  0  0  0  0  0
    4.9206    0.7990    0.0000 C   0  0  0  0  0  0  0  0  0
    5.5253    1.3601    0.0000 C   0  0  0  0  0  0  0  0  0
    5.3418    2.1644    0.0000 C   0  0  0  0  0  0  0  0  0
    4.5534    2.4076    0.0000 C   0  0  0  0  0  0  0  0  0
    3.6178    0.3972    0.0000 C   0  0  0  0  0  0  0  0  0
    2.7928    0.3972    0.0000 N   0  0  0  0  0  0  0  0  0
    2.2785    1.0422    0.0000 C   0  0  0  0  0  0  0  0  0
    1.4901    0.7990    0.0000 C   0  0  0  0  0  0  0  0  0
    0.8853    1.3601    0.0000 C   0  0  0  0  0  0  0  0  0
    3.9758   -0.3461    0.0000 N   0  0  0  0  0  0  0  0  0
    4.7985   -0.4078    0.0000 C   0  0  0  0  0  0  0  0  0
    5.1564   -1.1511    0.0000 C   0  0  0  0  0  0  0  0  0
    4.6917   -1.8327    0.0000 N   0  0  0  0  0  0  0  0  0
    3.8690   -1.7711    0.0000 C   0  0  0  0  0  0  0  0  0
    3.5111   -1.0278    0.0000 C   0  0  0  0  0  0  0  0  0
    5.0497   -2.5760    0.0000 C   0  0  0  0  0  0  0  0  0
  1  2  1  0  0  0  0
  2  3  4  0  0  0  0
  2 16  4  0  0  0  0
  3  4  4  0  0  0  0
  4  5  1  0  0  0  0
  4 14  4  0  0  0  0
  5  6  1  0  0  0  0
  6  7  4  0  0  0  0
  6 11  4  0  0  0  0
  7  8  4  0  0  0  0
  7 12  1  0  0  0  0
  8  9  4  0  0  0  0
  9 10  4  0  0  0  0
 10 11  4  0  0  0  0
 12 13  2  0  0  0  0
 12 17  1  0  0  0  0
 13 14  1  0  0  0  0
 14 15  4  0  0  0  0
 15 16  4  0  0  0  0
 17 18  1  0  0  0  0
 17 22  1  0  0  0  0
 18 19  1  0  0  0  0
 19 20  1  0  0  0  0
 20 21  1  0  0  0  0
 20 23  1  0  0  0  0
 21 22  1  0  0  0  0
M  END
>  <Name_Molregno>
353070

>  <HISTAMINE H1>
8.11

>  <HISTAMINE H2>
5.06

>  <HISTAMINE H3>
5.04

>  <HISTAMINE H4>
7.57

$$$$
354518
  Marvin  02231216192D 0   1.00000     0.00000     0

 27 30  0  0  0  0  0  0  0  0999 V2000
    0.7894    2.7704    0.0000 O   0  0  0  0  0  0  0  0  0
    0.7894    1.9454    0.0000 C   0  0  0  0  0  0  0  0  0
    1.5039    1.5329    0.0000 N   0  0  0  0  0  0  0  0  0
    1.5039    0.7079    0.0000 C   0  0  0  0  0  0  0  0  0
    0.7894    0.2954    0.0000 C   0  0  0  0  0  0  0  0  0
    0.0750    0.7079    0.0000 C   0  0  0  0  0  0  0  0  0
    0.0750    1.5329    0.0000 C   0  0  0  0  0  0  0  0  0
    2.2184    1.9454    0.0000 C   0  0  0  0  0  0  0  0  0
    2.9329    1.5329    0.0000 C   0  0  0  0  0  0  0  0  0
    3.6473    1.9454    0.0000 C   0  0  0  0  0  0  0  0  0
    4.3618    1.5329    0.0000 C   0  0  0  0  0  0  0  0  0
    4.3618    0.7079    0.0000 C   0  0  0  0  0  0  0  0  0
    3.6473    0.2954    0.0000 C   0  0  0  0  0  0  0  0  0
    2.9329    0.7079    0.0000 C   0  0  0  0  0  0  0  0  0
    5.0763    0.2954    0.0000 C   0  0  0  0  0  0  0  0  0
    5.7907    0.7079    0.0000 C   0  0  0  0  0  0  0  0  0
    6.5052    0.2954    0.0000 C   0  0  0  0  0  0  0  0  0
    6.5052   -0.5296    0.0000 C   0  0  0  0  0  0  0  0  0
    5.7907   -0.9421    0.0000 C   0  0  0  0  0  0  0  0  0
    5.0763   -0.5296    0.0000 C   0  0  0  0  0  0  0  0  0
    7.2197   -0.9421    0.0000 C   0  0  0  0  0  0  0  0  0
    7.2197   -1.7671    0.0000 N   0  0  0  0  0  0  0  0  0
    7.9342   -2.1796    0.0000 C   0  0  0  0  0  0  0  0  0
    7.9342   -3.0046    0.0000 C   0  0  0  0  0  0  0  0  0
    7.2197   -3.4171    0.0000 C   0  0  0  0  0  0  0  0  0
    6.5052   -3.0046    0.0000 C   0  0  0  0  0  0  0  0  0
    6.5052   -2.1796    0.0000 C   0  0  0  0  0  0  0  0  0
  1  2  2  0  0  0  0
  2  3  1  0  0  0  0
  2  7  1  0  0  0  0
  3  4  1  0  0  0  0
  3  8  1  0  0  0  0
  4  5  1  0  0  0  0
  5  6  1  0  0  0  0
  6  7  1  0  0  0  0
  8  9  1  0  0  0  0
  9 10  4  0  0  0  0
  9 14  4  0  0  0  0
 10 11  4  0  0  0  0
 11 12  4  0  0  0  0
 12 13  4  0  0  0  0
 12 15  1  0  0  0  0
 13 14  4  0  0  0  0
 15 16  4  0  0  0  0
 15 20  4  0  0  0  0
 16 17  4  0  0  0  0
 17 18  4  0  0  0  0
 18 19  4  0  0  0  0
 18 21  1  0  0  0  0
 19 20  4  0  0  0  0
 21 22  1  0  0  0  0
 22 23  1  0  0  0  0
 22 27  1  0  0  0  0
 23 24  1  0  0  0  0
 24 25  1  0  0  0  0
 25 26  1  0  0  0  0
 26 27  1  0  0  0  0
M  END
>  <Name_Molregno>
354518

>  <HISTAMINE H3>
7.33

$$$$
354551
  Marvin  02231216192D 0   1.00000     0.00000     0

 32 35  0  0  0  0  0  0  0  0999 V2000
    8.2595    3.9840    0.0000 O   0  0  0  0  0  0  0  0  0
    8.9739    3.5715    0.0000 C   0  0  0  0  0  0  0  0  0
    8.9739    2.7465    0.0000 N   0  0  0  0  0  0  0  0  0
    9.6884    2.3340    0.0000 C   0  0  0  0  0  0  0  0  0
    9.6884    1.5090    0.0000 C   0  0  0  0  0  0  0  0  0
    8.9739    1.0965    0.0000 N   0  0  0  0  0  0  0  0  0
    8.2595    1.5090    0.0000 C   0  0  0  0  0  0  0  0  0
    8.2595    2.3340    0.0000 C   0  0  0  0  0  0  0  0  0
    8.9739    0.2715    0.0000 C   0  0  0  0  0  0  0  0  0
    8.2595   -0.1410    0.0000 C   0  0  0  0  0  0  0  0  0
    8.2595   -0.9660    0.0000 C   0  0  0  0  0  0  0  0  0
    7.5450   -1.3785    0.0000 C   0  0  0  0  0  0  0  0  0
    6.8305   -0.9660    0.0000 C   0  0  0  0  0  0  0  0  0
    6.8305   -0.1410    0.0000 C   0  0  0  0  0  0  0  0  0
    7.5450    0.2715    0.0000 C   0  0  0  0  0  0  0  0  0
    6.1161   -1.3785    0.0000 C   0  0  0  0  0  0  0  0  0
    6.1161   -2.2035    0.0000 C   0  0  0  0  0  0  0  0  0
    5.4016   -2.6160    0.0000 C   0  0  0  0  0  0  0  0  0
    4.6871   -2.2035    0.0000 C   0  0  0  0  0  0  0  0  0
    4.6871   -1.3785    0.0000 C   0  0  0  0  0  0  0  0  0
    5.4016   -0.9660    0.0000 C   0  0  0  0  0  0  0  0  0
    3.9726   -2.6160    0.0000 C   0  0  0  0  0  0  0  0  0
    3.2582   -2.2035    0.0000 N   0  0  0  0  0  0  0  0  0
    2.5437   -2.6160    0.0000 C   0  0  0  0  0  0  0  0  0
    1.8292   -2.2035    0.0000 C   0  0  0  0  0  0  0  0  0
    1.8292   -1.3785    0.0000 N   0  0  0  0  0  0  0  0  0
    2.5437   -0.9660    0.0000 C   0  0  0  0  0  0  0  0  0
    3.2582   -1.3785    0.0000 C   0  0  0  0  0  0  0  0  0
    1.1148   -0.9660    0.0000 C   0  0  0  0  0  0  0  0  0
    0.4003   -1.3785    0.0000 O   0  0  0  0  0  0  0  0  0
    1.1148   -0.1410    0.0000 C   0  0  0  0  0  0  0  0  0
    9.6884    3.9840    0.0000 C   0  0  0  0  0  0  0  0  0
  1  2  2  0  0  0  0
  2  3  1  0  0  0  0
  2 32  1  0  0  0  0
  3  4  1  0  0  0  0
  3  8  1  0  0  0  0
  4  5  1  0  0  0  0
  5  6  1  0  0  0  0
  6  7  1  0  0  0  0
  6  9  1  0  0  0  0
  7  8  1  0  0  0  0
  9 10  1  0  0  0  0
 10 11  4  0  0  0  0
 10 15  4  0  0  0  0
 11 12  4  0  0  0  0
 12 13  4  0  0  0  0
 13 14  4  0  0  0  0
 13 16  1  0  0  0  0
 14 15  4  0  0  0  0
 16 17  4  0  0  0  0
 16 21  4  0  0  0  0
 17 18  4  0  0  0  0
 18 19  4  0  0  0  0
 19 20  4  0  0  0  0
 19 22  1  0  0  0  0
 20 21  4  0  0  0  0
 22 23  1  0  0  0  0
 23 24  1  0  0  0  0
 23 28  1  0  0  0  0
 24 25  1  0  0  0  0
 25 26  1  0  0  0  0
 26 27  1  0  0  0  0
 26 29  1  0  0  0  0
 27 28  1  0  0  0  0
 29 30  2  0  0  0  0
 29 31  1  0  0  0  0
M  END
>  <Name_Molregno>
354551

>  <HISTAMINE H3>
5.85

$$$$
354553
  Marvin  02231216192D 0   1.00000     0.00000     0

 29 32  0  0  0  0  0  0  0  0999 V2000
    7.1737    3.8752    0.0000 O   0  0  0  0  0  0  0  0  0
    7.8882    3.4627    0.0000 C   0  0  0  0  0  0  0  0  0
    7.8882    2.6377    0.0000 N   0  0  0  0  0  0  0  0  0
    8.6026    2.2252    0.0000 C   0  0  0  0  0  0  0  0  0
    8.6026    1.4002    0.0000 C   0  0  0  0  0  0  0  0  0
    7.8882    0.9877    0.0000 N   0  0  0  0  0  0  0  0  0
    7.1737    1.4002    0.0000 C   0  0  0  0  0  0  0  0  0
    7.1737    2.2252    0.0000 C   0  0  0  0  0  0  0  0  0
    7.8882    0.1627    0.0000 C   0  0  0  0  0  0  0  0  0
    7.1737   -0.2498    0.0000 C   0  0  0  0  0  0  0  0  0
    7.1737   -1.0748    0.0000 C   0  0  0  0  0  0  0  0  0
    6.4592   -1.4873    0.0000 C   0  0  0  0  0  0  0  0  0
    5.7447   -1.0748    0.0000 C   0  0  0  0  0  0  0  0  0
    5.7447   -0.2498    0.0000 C   0  0  0  0  0  0  0  0  0
    6.4592    0.1627    0.0000 C   0  0  0  0  0  0  0  0  0
    5.0303   -1.4873    0.0000 C   0  0  0  0  0  0  0  0  0
    5.0303   -2.3123    0.0000 C   0  0  0  0  0  0  0  0  0
    4.3158   -2.7248    0.0000 C   0  0  0  0  0  0  0  0  0
    3.6013   -2.3123    0.0000 C   0  0  0  0  0  0  0  0  0
    3.6013   -1.4873    0.0000 C   0  0  0  0  0  0  0  0  0
    4.3158   -1.0748    0.0000 C   0  0  0  0  0  0  0  0  0
    2.8869   -2.7248    0.0000 C   0  0  0  0  0  0  0  0  0
    2.1724   -2.3123    0.0000 N   0  0  0  0  0  0  0  0  0
    1.4579   -2.7248    0.0000 C   0  0  0  0  0  0  0  0  0
    0.7434   -2.3123    0.0000 C   0  0  0  0  0  0  0  0  0
    0.7434   -1.4873    0.0000 C   0  0  0  0  0  0  0  0  0
    1.4579   -1.0748    0.0000 C   0  0  0  0  0  0  0  0  0
    2.1724   -1.4873    0.0000 C   0  0  0  0  0  0  0  0  0
    8.6026    3.8752    0.0000 C   0  0  0  0  0  0  0  0  0
  1  2  2  0  0  0  0
  2  3  1  0  0  0  0
  2 29  1  0  0  0  0
  3  4  1  0  0  0  0
  3  8  1  0  0  0  0
  4  5  1  0  0  0  0
  5  6  1  0  0  0  0
  6  7  1  0  0  0  0
  6  9  1  0  0  0  0
  7  8  1  0  0  0  0
  9 10  1  0  0  0  0
 10 11  4  0  0  0  0
 10 15  4  0  0  0  0
 11 12  4  0  0  0  0
 12 13  4  0  0  0  0
 13 14  4  0  0  0  0
 13 16  1  0  0  0  0
 14 15  4  0  0  0  0
 16 17  4  0  0  0  0
 16 21  4  0  0  0  0
 17 18  4  0  0  0  0
 18 19  4  0  0  0  0
 19 20  4  0  0  0  0
 19 22  1  0  0  0  0
 20 21  4  0  0  0  0
 22 23  1  0  0  0  0
 23 24  1  0  0  0  0
 23 28  1  0  0  0  0
 24 25  1  0  0  0  0
 25 26  1  0  0  0  0
 26 27  1  0  0  0  0
 27 28  1  0  0  0  0
M  END
>  <Name_Molregno>
354553

>  <HISTAMINE H3>
8.2

$$$$
354554
  Marvin  02231216192D 0   1.00000     0.00000     0

 27 30  0  0  0  0  0  0  0  0999 V2000
   -3.0386    2.0764    0.0000 N   0  0  0  0  0  0  0  0  0
   -2.3242    1.6639    0.0000 C   0  0  0  0  0  0  0  0  0
   -2.3242    0.8389    0.0000 C   0  0  0  0  0  0  0  0  0
   -1.6097    0.4264    0.0000 C   0  0  0  0  0  0  0  0  0
   -1.6097   -0.3986    0.0000 C   0  0  0  0  0  0  0  0  0
   -2.3242   -0.8111    0.0000 C   0  0  0  0  0  0  0  0  0
   -3.0386   -0.3986    0.0000 C   0  0  0  0  0  0  0  0  0
   -3.0386    0.4264    0.0000 C   0  0  0  0  0  0  0  0  0
   -2.3242   -1.6361    0.0000 C   0  0  0  0  0  0  0  0  0
   -1.6097   -2.0486    0.0000 C   0  0  0  0  0  0  0  0  0
   -1.6097   -2.8736    0.0000 C   0  0  0  0  0  0  0  0  0
   -2.3242   -3.2861    0.0000 C   0  0  0  0  0  0  0  0  0
   -3.0386   -2.8736    0.0000 C   0  0  0  0  0  0  0  0  0
   -3.0386   -2.0486    0.0000 C   0  0  0  0  0  0  0  0  0
   -2.3242   -4.1111    0.0000 C   0  0  0  0  0  0  0  0  0
   -3.0386   -4.5236    0.0000 N   0  0  0  0  0  0  0  0  0
   -3.0386   -5.3486    0.0000 C   0  0  0  0  0  0  0  0  0
   -3.7531   -5.7611    0.0000 C   0  0  0  0  0  0  0  0  0
   -4.4676   -5.3486    0.0000 C   0  0  0  0  0  0  0  0  0
   -4.4676   -4.5236    0.0000 C   0  0  0  0  0  0  0  0  0
   -3.7531   -4.1111    0.0000 C   0  0  0  0  0  0  0  0  0
   -3.0386    2.9014    0.0000 C   0  0  0  0  0  0  0  0  0
   -3.7531    3.3139    0.0000 C   0  0  0  0  0  0  0  0  0
   -3.7531    4.1389    0.0000 C   0  0  0  0  0  0  0  0  0
   -3.0386    4.5514    0.0000 C   0  0  0  0  0  0  0  0  0
   -2.3242    4.1389    0.0000 C   0  0  0  0  0  0  0  0  0
   -2.3242    3.3139    0.0000 C   0  0  0  0  0  0  0  0  0
  1  2  1  0  0  0  0
  1 22  1  0  0  0  0
  2  3  1  0  0  0  0
  3  4  4  0  0  0  0
  3  8  4  0  0  0  0
  4  5  4  0  0  0  0
  5  6  4  0  0  0  0
  6  7  4  0  0  0  0
  6  9  1  0  0  0  0
  7  8  4  0  0  0  0
  9 10  4  0  0  0  0
  9 14  4  0  0  0  0
 10 11  4  0  0  0  0
 11 12  4  0  0  0  0
 12 13  4  0  0  0  0
 12 15  1  0  0  0  0
 13 14  4  0  0  0  0
 15 16  1  0  0  0  0
 16 17  1  0  0  0  0
 16 21  1  0  0  0  0
 17 18  1  0  0  0  0
 18 19  1  0  0  0  0
 19 20  1  0  0  0  0
 20 21  1  0  0  0  0
 22 23  1  0  0  0  0
 22 27  1  0  0  0  0
 23 24  1  0  0  0  0
 24 25  1  0  0  0  0
 25 26  1  0  0  0  0
 26 27  1  0  0  0  0
M  END
>  <Name_Molregno>
354554

>  <HISTAMINE H3>
8.77

$$$$
354580
  Marvin  02231216192D 0   1.00000     0.00000     0

 28 31  0  0  0  0  0  0  0  0999 V2000
    4.7282   -4.8439    0.0000 N   0  0  0  0  0  0  0  0  0
    5.4427   -5.2564    0.0000 C   0  0  0  0  0  0  0  0  0
    5.4427   -6.0814    0.0000 C   0  0  0  0  0  0  0  0  0
    4.7282   -6.4939    0.0000 C   0  0  0  0  0  0  0  0  0
    4.0138   -6.0814    0.0000 C   0  0  0  0  0  0  0  0  0
    4.0138   -5.2564    0.0000 C   0  0  0  0  0  0  0  0  0
    4.7282   -4.0189    0.0000 C   0  0  0  0  0  0  0  0  0
    4.0138   -3.6064    0.0000 C   0  0  0  0  0  0  0  0  0
    4.0138   -2.7814    0.0000 C   0  0  0  0  0  0  0  0  0
    3.2993   -2.3689    0.0000 C   0  0  0  0  0  0  0  0  0
    3.2993   -1.5439    0.0000 C   0  0  0  0  0  0  0  0  0
    4.0138   -1.1314    0.0000 C   0  0  0  0  0  0  0  0  0
    4.7282   -1.5439    0.0000 C   0  0  0  0  0  0  0  0  0
    4.7282   -2.3689    0.0000 C   0  0  0  0  0  0  0  0  0
    4.0138   -0.3064    0.0000 C   0  0  0  0  0  0  0  0  0
    3.2993    0.1061    0.0000 C   0  0  0  0  0  0  0  0  0
    3.2993    0.9311    0.0000 C   0  0  0  0  0  0  0  0  0
    4.0138    1.3436    0.0000 C   0  0  0  0  0  0  0  0  0
    4.7282    0.9311    0.0000 C   0  0  0  0  0  0  0  0  0
    4.7282    0.1061    0.0000 C   0  0  0  0  0  0  0  0  0
    4.0138    2.1686    0.0000 C   0  0  0  0  0  0  0  0  0
    3.2993    2.5811    0.0000 C   0  0  0  0  0  0  0  0  0
    3.2993    3.4061    0.0000 N   0  0  0  0  0  0  0  0  0
    2.5848    3.8186    0.0000 C   0  0  0  0  0  0  0  0  0
    2.5848    4.6436    0.0000 C   0  0  0  0  0  0  0  0  0
    3.2993    5.0561    0.0000 C   0  0  0  0  0  0  0  0  0
    4.0138    4.6436    0.0000 C   0  0  0  0  0  0  0  0  0
    4.0138    3.8186    0.0000 C   0  0  0  0  0  0  0  0  0
  1  2  1  0  0  0  0
  1  6  1  0  0  0  0
  1  7  1  0  0  0  0
  2  3  1  0  0  0  0
  3  4  1  0  0  0  0
  4  5  1  0  0  0  0
  5  6  1  0  0  0  0
  7  8  1  0  0  0  0
  8  9  1  0  0  0  0
  9 10  4  0  0  0  0
  9 14  4  0  0  0  0
 10 11  4  0  0  0  0
 11 12  4  0  0  0  0
 12 13  4  0  0  0  0
 12 15  1  0  0  0  0
 13 14  4  0  0  0  0
 15 16  4  0  0  0  0
 15 20  4  0  0  0  0
 16 17  4  0  0  0  0
 17 18  4  0  0  0  0
 18 19  4  0  0  0  0
 18 21  1  0  0  0  0
 19 20  4  0  0  0  0
 21 22  1  0  0  0  0
 22 23  1  0  0  0  0
 23 24  1  0  0  0  0
 23 28  1  0  0  0  0
 24 25  1  0  0  0  0
 25 26  1  0  0  0  0
 26 27  1  0  0  0  0
 27 28  1  0  0  0  0
M  END
>  <Name_Molregno>
354580

>  <HISTAMINE H3>
8.93

$$$$
354606
  Marvin  02231216192D 0   1.00000     0.00000     0

 20 21  0  0  0  0  0  0  0  0999 V2000
   -2.5023    2.6155    0.0000 N   0  0  0  0  0  0  0  0  0
   -3.2168    2.2030    0.0000 C   0  0  0  0  0  0  0  0  0
   -3.2168    1.3780    0.0000 C   0  0  0  0  0  0  0  0  0
   -2.5023    0.9655    0.0000 C   0  0  0  0  0  0  0  0  0
   -2.5023    0.1405    0.0000 C   0  0  0  0  0  0  0  0  0
   -3.2168   -0.2720    0.0000 C   0  0  0  0  0  0  0  0  0
   -3.9312    0.1405    0.0000 C   0  0  0  0  0  0  0  0  0
   -3.9312    0.9655    0.0000 C   0  0  0  0  0  0  0  0  0
   -3.2168   -1.0970    0.0000 C   0  0  0  0  0  0  0  0  0
   -2.5023   -1.5095    0.0000 C   0  0  0  0  0  0  0  0  0
   -2.5023   -2.3345    0.0000 C   0  0  0  0  0  0  0  0  0
   -3.2168   -2.7470    0.0000 C   0  0  0  0  0  0  0  0  0
   -3.9312   -2.3345    0.0000 C   0  0  0  0  0  0  0  0  0
   -3.9312   -1.5095    0.0000 C   0  0  0  0  0  0  0  0  0
   -3.2168   -3.5720    0.0000 C   0  0  0  0  0  0  0  0  0
   -3.9312   -3.9845    0.0000 N   0  0  0  0  0  0  0  0  0
   -3.9312   -4.8095    0.0000 C   0  0  0  0  0  0  0  0  0
   -4.6457   -3.5720    0.0000 C   0  0  0  0  0  0  0  0  0
   -2.5023    3.4405    0.0000 C   0  0  0  0  0  0  0  0  0
   -1.7878    2.2030    0.0000 C   0  0  0  0  0  0  0  0  0
  1  2  1  0  0  0  0
  1 19  1  0  0  0  0
  1 20  1  0  0  0  0
  2  3  1  0  0  0  0
  3  4  4  0  0  0  0
  3  8  4  0  0  0  0
  4  5  4  0  0  0  0
  5  6  4  0  0  0  0
  6  7  4  0  0  0  0
  6  9  1  0  0  0  0
  7  8  4  0  0  0  0
  9 10  4  0  0  0  0
  9 14  4  0  0  0  0
 10 11  4  0  0  0  0
 11 12  4  0  0  0  0
 12 13  4  0  0  0  0
 12 15  1  0  0  0  0
 13 14  4  0  0  0  0
 15 16  1  0  0  0  0
 16 17  1  0  0  0  0
 16 18  1  0  0  0  0
M  END
>  <Name_Molregno>
354606

>  <HISTAMINE H3>
8.73

$$$$
354617
  Marvin  02231216192D 0   1.00000     0.00000     0

 28 31  0  0  0  0  0  0  0  0999 V2000
   -3.5675    2.5857    0.0000 N   0  0  0  0  0  0  0  0  0
   -2.8530    2.1732    0.0000 C   0  0  0  0  0  0  0  0  0
   -2.8530    1.3482    0.0000 C   0  0  0  0  0  0  0  0  0
   -2.1385    0.9357    0.0000 C   0  0  0  0  0  0  0  0  0
   -2.1385    0.1107    0.0000 C   0  0  0  0  0  0  0  0  0
   -2.8530   -0.3018    0.0000 C   0  0  0  0  0  0  0  0  0
   -3.5675    0.1107    0.0000 C   0  0  0  0  0  0  0  0  0
   -3.5675    0.9357    0.0000 C   0  0  0  0  0  0  0  0  0
   -2.8530   -1.1268    0.0000 C   0  0  0  0  0  0  0  0  0
   -2.1385   -1.5393    0.0000 C   0  0  0  0  0  0  0  0  0
   -2.1385   -2.3643    0.0000 C   0  0  0  0  0  0  0  0  0
   -2.8530   -2.7768    0.0000 C   0  0  0  0  0  0  0  0  0
   -3.5675   -2.3643    0.0000 C   0  0  0  0  0  0  0  0  0
   -3.5675   -1.5393    0.0000 C   0  0  0  0  0  0  0  0  0
   -2.8530   -3.6018    0.0000 C   0  0  0  0  0  0  0  0  0
   -3.5675   -4.0143    0.0000 N   0  0  0  0  0  0  0  0  0
   -3.5675   -4.8393    0.0000 C   0  0  0  0  0  0  0  0  0
   -2.8530   -5.2518    0.0000 C   0  0  0  0  0  0  0  0  0
   -2.8530   -6.0768    0.0000 C   0  0  0  0  0  0  0  0  0
   -3.5675   -6.4893    0.0000 C   0  0  0  0  0  0  0  0  0
   -4.2819   -6.0768    0.0000 C   0  0  0  0  0  0  0  0  0
   -4.2819   -5.2518    0.0000 C   0  0  0  0  0  0  0  0  0
   -3.5675    3.4107    0.0000 C   0  0  0  0  0  0  0  0  0
   -4.2819    3.8232    0.0000 C   0  0  0  0  0  0  0  0  0
   -4.2819    4.6482    0.0000 C   0  0  0  0  0  0  0  0  0
   -3.5675    5.0607    0.0000 C   0  0  0  0  0  0  0  0  0
   -2.8530    4.6482    0.0000 C   0  0  0  0  0  0  0  0  0
   -2.8530    3.8232    0.0000 C   0  0  0  0  0  0  0  0  0
  1  2  1  0  0  0  0
  1 23  1  0  0  0  0
  2  3  1  0  0  0  0
  3  4  4  0  0  0  0
  3  8  4  0  0  0  0
  4  5  4  0  0  0  0
  5  6  4  0  0  0  0
  6  7  4  0  0  0  0
  6  9  1  0  0  0  0
  7  8  4  0  0  0  0
  9 10  4  0  0  0  0
  9 14  4  0  0  0  0
 10 11  4  0  0  0  0
 11 12  4  0  0  0  0
 12 13  4  0  0  0  0
 12 15  1  0  0  0  0
 13 14  4  0  0  0  0
 15 16  1  0  0  0  0
 16 17  1  0  0  0  0
 17 18  1  0  0  0  0
 17 22  1  0  0  0  0
 18 19  1  0  0  0  0
 19 20  1  0  0  0  0
 20 21  1  0  0  0  0
 21 22  1  0  0  0  0
 23 24  1  0  0  0  0
 23 28  1  0  0  0  0
 24 25  1  0  0  0  0
 25 26  1  0  0  0  0
 26 27  1  0  0  0  0
 27 28  1  0  0  0  0
M  END
>  <Name_Molregno>
354617

>  <HISTAMINE H3>
6.25

$$$$
354645
  Marvin  02231216192D 0   1.00000     0.00000     0

 26 27  0  0  0  0  0  0  0  0999 V2000
    6.4312    0.3436    0.0000 N   0  0  0  0  0  0  0  0  0
    5.7167    0.7561    0.0000 C   0  0  0  0  0  0  0  0  0
    5.0022    0.3436    0.0000 C   0  0  0  0  0  0  0  0  0
    5.0022   -0.4814    0.0000 C   0  0  0  0  0  0  0  0  0
    4.2878   -0.8939    0.0000 C   0  0  0  0  0  0  0  0  0
    3.5733   -0.4814    0.0000 C   0  0  0  0  0  0  0  0  0
    3.5733    0.3436    0.0000 C   0  0  0  0  0  0  0  0  0
    4.2878    0.7561    0.0000 C   0  0  0  0  0  0  0  0  0
    2.8588   -0.8939    0.0000 C   0  0  0  0  0  0  0  0  0
    2.8588   -1.7189    0.0000 C   0  0  0  0  0  0  0  0  0
    2.1444   -2.1314    0.0000 C   0  0  0  0  0  0  0  0  0
    1.4299   -1.7189    0.0000 C   0  0  0  0  0  0  0  0  0
    1.4299   -0.8939    0.0000 C   0  0  0  0  0  0  0  0  0
    2.1444   -0.4814    0.0000 C   0  0  0  0  0  0  0  0  0
    0.7154   -2.1314    0.0000 C   0  0  0  0  0  0  0  0  0
    0.0009   -1.7189    0.0000 N   0  0  0  0  0  0  0  0  0
   -0.7135   -2.1314    0.0000 C   0  0  0  0  0  0  0  0  0
   -1.4280   -1.7189    0.0000 C   0  0  0  0  0  0  0  0  0
   -2.1425   -2.1314    0.0000 C   0  0  0  0  0  0  0  0  0
   -2.8569   -1.7189    0.0000 C   0  0  0  0  0  0  0  0  0
   -3.5714   -2.1314    0.0000 C   0  0  0  0  0  0  0  0  0
    7.1456    0.7561    0.0000 C   0  0  0  0  0  0  0  0  0
    7.8601    0.3436    0.0000 C   0  0  0  0  0  0  0  0  0
    8.5746    0.7561    0.0000 C   0  0  0  0  0  0  0  0  0
    9.2891    0.3436    0.0000 C   0  0  0  0  0  0  0  0  0
   10.0035    0.7561    0.0000 C   0  0  0  0  0  0  0  0  0
  1  2  1  0  0  0  0
  1 22  1  0  0  0  0
  2  3  1  0  0  0  0
  3  4  4  0  0  0  0
  3  8  4  0  0  0  0
  4  5  4  0  0  0  0
  5  6  4  0  0  0  0
  6  7  4  0  0  0  0
  6  9  1  0  0  0  0
  7  8  4  0  0  0  0
  9 10  4  0  0  0  0
  9 14  4  0  0  0  0
 10 11  4  0  0  0  0
 11 12  4  0  0  0  0
 12 13  4  0  0  0  0
 12 15  1  0  0  0  0
 13 14  4  0  0  0  0
 15 16  1  0  0  0  0
 16 17  1  0  0  0  0
 17 18  1  0  0  0  0
 18 19  1  0  0  0  0
 19 20  1  0  0  0  0
 20 21  1  0  0  0  0
 22 23  1  0  0  0  0
 23 24  1  0  0  0  0
 24 25  1  0  0  0  0
 25 26  1  0  0  0  0
M  END
>  <Name_Molregno>
354645

>  <HISTAMINE H3>
6.12

>  <HISTAMINE H4>
5.19

$$$$
354674
  Marvin  02231216192D 0   1.00000     0.00000     0

 26 29  0  0  0  0  0  0  0  0999 V2000
    0.3833   -2.3966    0.0000 N   0  0  0  0  0  0  0  0  0
    1.0977   -2.8091    0.0000 C   0  0  0  0  0  0  0  0  0
    1.0977   -3.6341    0.0000 C   0  0  0  0  0  0  0  0  0
    0.3833   -4.0466    0.0000 C   0  0  0  0  0  0  0  0  0
   -0.3312   -3.6341    0.0000 C   0  0  0  0  0  0  0  0  0
   -0.3312   -2.8091    0.0000 C   0  0  0  0  0  0  0  0  0
    0.3833   -1.5716    0.0000 C   0  0  0  0  0  0  0  0  0
    1.0977   -1.1591    0.0000 C   0  0  0  0  0  0  0  0  0
    1.0977   -0.3341    0.0000 C   0  0  0  0  0  0  0  0  0
    1.8122    0.0784    0.0000 C   0  0  0  0  0  0  0  0  0
    2.5267   -0.3341    0.0000 C   0  0  0  0  0  0  0  0  0
    2.5267   -1.1591    0.0000 C   0  0  0  0  0  0  0  0  0
    1.8122   -1.5716    0.0000 C   0  0  0  0  0  0  0  0  0
    3.2411    0.0784    0.0000 C   0  0  0  0  0  0  0  0  0
    3.2411    0.9034    0.0000 C   0  0  0  0  0  0  0  0  0
    3.9556    1.3159    0.0000 C   0  0  0  0  0  0  0  0  0
    4.6701    0.9034    0.0000 C   0  0  0  0  0  0  0  0  0
    4.6701    0.0784    0.0000 C   0  0  0  0  0  0  0  0  0
    3.9556   -0.3341    0.0000 C   0  0  0  0  0  0  0  0  0
    5.3846    1.3159    0.0000 C   0  0  0  0  0  0  0  0  0
    6.0990    0.9034    0.0000 N   0  0  0  0  0  0  0  0  0
    6.8135    1.3159    0.0000 C   0  0  0  0  0  0  0  0  0
    7.5280    0.9034    0.0000 C   0  0  0  0  0  0  0  0  0
    7.5280    0.0784    0.0000 C   0  0  0  0  0  0  0  0  0
    6.8135   -0.3341    0.0000 C   0  0  0  0  0  0  0  0  0
    6.0990    0.0784    0.0000 C   0  0  0  0  0  0  0  0  0
  1  2  1  0  0  0  0
  1  6  1  0  0  0  0
  1  7  1  0  0  0  0
  2  3  1  0  0  0  0
  3  4  1  0  0  0  0
  4  5  1  0  0  0  0
  5  6  1  0  0  0  0
  7  8  1  0  0  0  0
  8  9  4  0  0  0  0
  8 13  4  0  0  0  0
  9 10  4  0  0  0  0
 10 11  4  0  0  0  0
 11 12  4  0  0  0  0
 11 14  1  0  0  0  0
 12 13  4  0  0  0  0
 14 15  4  0  0  0  0
 14 19  4  0  0  0  0
 15 16  4  0  0  0  0
 16 17  4  0  0  0  0
 17 18  4  0  0  0  0
 17 20  1  0  0  0  0
 18 19  4  0  0  0  0
 20 21  1  0  0  0  0
 21 22  1  0  0  0  0
 21 26  1  0  0  0  0
 22 23  1  0  0  0  0
 23 24  1  0  0  0  0
 24 25  1  0  0  0  0
 25 26  1  0  0  0  0
M  END
>  <Name_Molregno>
354674

>  <HISTAMINE H3>
8.97

>  <HISTAMINE H4>
4.6

$$$$
354714
  Marvin  02231216192D 0   1.00000     0.00000     0

 28 31  0  0  0  0  0  0  0  0999 V2000
    0.3038   -2.2647    0.0000 N   0  0  0  0  0  0  0  0  0
    1.0183   -2.6772    0.0000 C   0  0  0  0  0  0  0  0  0
    1.0183   -3.5022    0.0000 C   0  0  0  0  0  0  0  0  0
    0.3038   -3.9147    0.0000 C   0  0  0  0  0  0  0  0  0
   -0.4107   -3.5022    0.0000 C   0  0  0  0  0  0  0  0  0
   -0.4107   -2.6772    0.0000 C   0  0  0  0  0  0  0  0  0
    0.3038   -4.7397    0.0000 C   0  0  0  0  0  0  0  0  0
    0.3038   -1.4397    0.0000 C   0  0  0  0  0  0  0  0  0
    1.0183   -1.0272    0.0000 C   0  0  0  0  0  0  0  0  0
    1.0183   -0.2022    0.0000 C   0  0  0  0  0  0  0  0  0
    1.7328    0.2103    0.0000 C   0  0  0  0  0  0  0  0  0
    2.4472   -0.2022    0.0000 C   0  0  0  0  0  0  0  0  0
    2.4472   -1.0272    0.0000 C   0  0  0  0  0  0  0  0  0
    1.7328   -1.4397    0.0000 C   0  0  0  0  0  0  0  0  0
    3.1617    0.2103    0.0000 C   0  0  0  0  0  0  0  0  0
    3.1617    1.0353    0.0000 C   0  0  0  0  0  0  0  0  0
    3.8762    1.4478    0.0000 C   0  0  0  0  0  0  0  0  0
    4.5906    1.0353    0.0000 C   0  0  0  0  0  0  0  0  0
    4.5906    0.2103    0.0000 C   0  0  0  0  0  0  0  0  0
    3.8762   -0.2022    0.0000 C   0  0  0  0  0  0  0  0  0
    5.3051    1.4478    0.0000 C   0  0  0  0  0  0  0  0  0
    6.0196    1.0353    0.0000 N   0  0  0  0  0  0  0  0  0
    6.7341    1.4478    0.0000 C   0  0  0  0  0  0  0  0  0
    7.4485    1.0353    0.0000 C   0  0  0  0  0  0  0  0  0
    7.4485    0.2103    0.0000 C   0  0  0  0  0  0  0  0  0
    6.7341   -0.2022    0.0000 C   0  0  0  0  0  0  0  0  0
    6.0196    0.2103    0.0000 C   0  0  0  0  0  0  0  0  0
    8.1630   -0.2022    0.0000 C   0  0  0  0  0  0  0  0  0
  1  2  1  0  0  0  0
  1  6  1  0  0  0  0
  1  8  1  0  0  0  0
  2  3  1  0  0  0  0
  3  4  1  0  0  0  0
  4  5  1  0  0  0  0
  4  7  1  0  0  0  0
  5  6  1  0  0  0  0
  8  9  1  0  0  0  0
  9 10  4  0  0  0  0
  9 14  4  0  0  0  0
 10 11  4  0  0  0  0
 11 12  4  0  0  0  0
 12 13  4  0  0  0  0
 12 15  1  0  0  0  0
 13 14  4  0  0  0  0
 15 16  4  0  0  0  0
 15 20  4  0  0  0  0
 16 17  4  0  0  0  0
 17 18  4  0  0  0  0
 18 19  4  0  0  0  0
 18 21  1  0  0  0  0
 19 20  4  0  0  0  0
 21 22  1  0  0  0  0
 22 23  1  0  0  0  0
 22 27  1  0  0  0  0
 23 24  1  0  0  0  0
 24 25  1  0  0  0  0
 25 26  1  0  0  0  0
 25 28  1  0  0  0  0
 26 27  1  0  0  0  0
M  END
>  <Name_Molregno>
354714

>  <HISTAMINE H3>
8.21

$$$$
354740
  Marvin  02231216192D 0   1.00000     0.00000     0

 30 33  0  0  1  0  0  0  0  0999 V2000
    0.2833   -2.2295    0.0000 N   0  0  0  0  0  0  0  0  0
    0.9978   -2.6420    0.0000 C   0  0  0  0  0  0  0  0  0
    0.9978   -3.4670    0.0000 C   0  0  0  0  0  0  0  0  0
    0.2833   -3.8795    0.0000 C   0  0  0  0  0  0  0  0  0
   -0.4311   -3.4670    0.0000 C   0  0  0  0  0  0  0  0  0
   -0.4311   -2.6420    0.0000 C   0  0  0  0  0  0  0  0  0
   -1.1456   -3.8795    0.0000 C   0  0  0  0  0  0  0  0  0
    1.7123   -3.8795    0.0000 C   0  0  0  0  0  0  0  0  0
    0.2833   -1.4045    0.0000 C   0  0  0  0  0  0  0  0  0
    0.9978   -0.9920    0.0000 C   0  0  0  0  0  0  0  0  0
    0.9978   -0.1670    0.0000 C   0  0  0  0  0  0  0  0  0
    1.7123    0.2455    0.0000 C   0  0  0  0  0  0  0  0  0
    2.4268   -0.1670    0.0000 C   0  0  0  0  0  0  0  0  0
    2.4268   -0.9920    0.0000 C   0  0  0  0  0  0  0  0  0
    1.7123   -1.4045    0.0000 C   0  0  0  0  0  0  0  0  0
    3.1412    0.2455    0.0000 C   0  0  0  0  0  0  0  0  0
    3.1412    1.0705    0.0000 C   0  0  0  0  0  0  0  0  0
    3.8557    1.4830    0.0000 C   0  0  0  0  0  0  0  0  0
    4.5702    1.0705    0.0000 C   0  0  0  0  0  0  0  0  0
    4.5702    0.2455    0.0000 C   0  0  0  0  0  0  0  0  0
    3.8557   -0.1670    0.0000 C   0  0  0  0  0  0  0  0  0
    5.2846    1.4830    0.0000 C   0  0  0  0  0  0  0  0  0
    5.9991    1.0705    0.0000 N   0  0  0  0  0  0  0  0  0
    6.7136    1.4830    0.0000 C   0  0  0  0  0  0  0  0  0
    7.4281    1.0705    0.0000 C   0  0  0  0  0  0  0  0  0
    7.4281    0.2455    0.0000 C   0  0  0  0  0  0  0  0  0
    6.7136   -0.1670    0.0000 C   0  0  0  0  0  0  0  0  0
    5.9991    0.2455    0.0000 C   0  0  0  0  0  0  0  0  0
    6.7136   -0.9920    0.0000 C   0  0  0  0  0  0  0  0  0
    8.1425    1.4830    0.0000 C   0  0  0  0  0  0  0  0  0
  1  2  1  0  0  0  0
  1  6  1  0  0  0  0
  1  9  1  0  0  0  0
  2  3  1  0  0  0  0
  3  4  1  0  0  0  0
  3  8  1  0  0  0  0
  4  5  1  0  0  0  0
  5  6  1  0  0  0  0
  5  7  1  0  0  0  0
  9 10  1  0  0  0  0
 10 11  4  0  0  0  0
 10 15  4  0  0  0  0
 11 12  4  0  0  0  0
 12 13  4  0  0  0  0
 13 14  4  0  0  0  0
 13 16  1  0  0  0  0
 14 15  4  0  0  0  0
 16 17  4  0  0  0  0
 16 21  4  0  0  0  0
 17 18  4  0  0  0  0
 18 19  4  0  0  0  0
 19 20  4  0  0  0  0
 19 22  1  0  0  0  0
 20 21  4  0  0  0  0
 22 23  1  0  0  0  0
 23 24  1  0  0  0  0
 23 28  1  0  0  0  0
 24 25  1  0  0  0  0
 25 26  1  0  0  0  0
 25 30  1  0  0  0  0
 26 27  1  0  0  0  0
 27 28  1  0  0  0  0
 27 29  1  0  0  0  0
M  END
>  <Name_Molregno>
354740

>  <HISTAMINE H3>
6.4

>  <HISTAMINE H4>
4.86

$$$$
354743
  Marvin  02231216192D 0   1.00000     0.00000     0

 30 33  0  0  0  0  0  0  0  0999 V2000
   -3.4956    2.5838    0.0000 N   0  0  0  0  0  0  0  0  0
   -2.7811    2.1713    0.0000 C   0  0  0  0  0  0  0  0  0
   -2.7811    1.3463    0.0000 C   0  0  0  0  0  0  0  0  0
   -2.0667    0.9338    0.0000 C   0  0  0  0  0  0  0  0  0
   -2.0667    0.1088    0.0000 C   0  0  0  0  0  0  0  0  0
   -2.7811   -0.3037    0.0000 C   0  0  0  0  0  0  0  0  0
   -3.4956    0.1088    0.0000 C   0  0  0  0  0  0  0  0  0
   -3.4956    0.9338    0.0000 C   0  0  0  0  0  0  0  0  0
   -2.7811   -1.1287    0.0000 C   0  0  0  0  0  0  0  0  0
   -2.0667   -1.5412    0.0000 C   0  0  0  0  0  0  0  0  0
   -2.0667   -2.3662    0.0000 C   0  0  0  0  0  0  0  0  0
   -2.7811   -2.7787    0.0000 C   0  0  0  0  0  0  0  0  0
   -3.4956   -2.3662    0.0000 C   0  0  0  0  0  0  0  0  0
   -3.4956   -1.5412    0.0000 C   0  0  0  0  0  0  0  0  0
   -2.7811   -3.6037    0.0000 C   0  0  0  0  0  0  0  0  0
   -3.4956   -4.0162    0.0000 N   0  0  0  0  0  0  0  0  0
   -4.2101   -3.6037    0.0000 C   0  0  0  0  0  0  0  0  0
   -3.4956   -4.8412    0.0000 C   0  0  0  0  0  0  0  0  0
   -2.7811   -5.2537    0.0000 C   0  0  0  0  0  0  0  0  0
   -2.7811   -6.0787    0.0000 C   0  0  0  0  0  0  0  0  0
   -3.4956   -6.4912    0.0000 C   0  0  0  0  0  0  0  0  0
   -4.2101   -6.0787    0.0000 C   0  0  0  0  0  0  0  0  0
   -4.2101   -5.2537    0.0000 C   0  0  0  0  0  0  0  0  0
   -4.2101    2.1713    0.0000 C   0  0  0  0  0  0  0  0  0
   -3.4956    3.4088    0.0000 C   0  0  0  0  0  0  0  0  0
   -4.2101    3.8213    0.0000 C   0  0  0  0  0  0  0  0  0
   -4.2101    4.6463    0.0000 C   0  0  0  0  0  0  0  0  0
   -3.4956    5.0588    0.0000 C   0  0  0  0  0  0  0  0  0
   -2.7811    4.6463    0.0000 C   0  0  0  0  0  0  0  0  0
   -2.7811    3.8213    0.0000 C   0  0  0  0  0  0  0  0  0
  1  2  1  0  0  0  0
  1 24  1  0  0  0  0
  1 25  1  0  0  0  0
  2  3  1  0  0  0  0
  3  4  4  0  0  0  0
  3  8  4  0  0  0  0
  4  5  4  0  0  0  0
  5  6  4  0  0  0  0
  6  7  4  0  0  0  0
  6  9  1  0  0  0  0
  7  8  4  0  0  0  0
  9 10  4  0  0  0  0
  9 14  4  0  0  0  0
 10 11  4  0  0  0  0
 11 12  4  0  0  0  0
 12 13  4  0  0  0  0
 12 15  1  0  0  0  0
 13 14  4  0  0  0  0
 15 16  1  0  0  0  0
 16 17  1  0  0  0  0
 16 18  1  0  0  0  0
 18 19  1  0  0  0  0
 18 23  1  0  0  0  0
 19 20  1  0  0  0  0
 20 21  1  0  0  0  0
 21 22  1  0  0  0  0
 22 23  1  0  0  0  0
 25 26  1  0  0  0  0
 25 30  1  0  0  0  0
 26 27  1  0  0  0  0
 27 28  1  0  0  0  0
 28 29  1  0  0  0  0
 29 30  1  0  0  0  0
M  END
>  <Name_Molregno>
354743

>  <HISTAMINE H3>
7.43

>  <HISTAMINE H4>
5.19

$$$$
354775
  Marvin  02231216192D 0   1.00000     0.00000     0

 26 29  0  0  0  0  0  0  0  0999 V2000
    1.6932   -3.5442    0.0000 O   0  0  0  0  0  0  0  0  0
    0.9787   -3.1317    0.0000 C   0  0  0  0  0  0  0  0  0
    0.9787   -2.3067    0.0000 C   0  0  0  0  0  0  0  0  0
    1.6932   -1.8942    0.0000 N   0  0  0  0  0  0  0  0  0
    2.4077   -2.3067    0.0000 C   0  0  0  0  0  0  0  0  0
    2.4077   -3.1317    0.0000 C   0  0  0  0  0  0  0  0  0
    1.6932   -1.0692    0.0000 C   0  0  0  0  0  0  0  0  0
    2.4077   -0.6567    0.0000 C   0  0  0  0  0  0  0  0  0
    2.4077    0.1683    0.0000 C   0  0  0  0  0  0  0  0  0
    3.1222    0.5808    0.0000 C   0  0  0  0  0  0  0  0  0
    3.8366    0.1683    0.0000 C   0  0  0  0  0  0  0  0  0
    3.8366   -0.6567    0.0000 C   0  0  0  0  0  0  0  0  0
    3.1222   -1.0692    0.0000 C   0  0  0  0  0  0  0  0  0
    4.5511    0.5808    0.0000 C   0  0  0  0  0  0  0  0  0
    4.5511    1.4058    0.0000 C   0  0  0  0  0  0  0  0  0
    5.2656    1.8183    0.0000 C   0  0  0  0  0  0  0  0  0
    5.9800    1.4058    0.0000 C   0  0  0  0  0  0  0  0  0
    5.9800    0.5808    0.0000 C   0  0  0  0  0  0  0  0  0
    5.2656    0.1683    0.0000 C   0  0  0  0  0  0  0  0  0
    6.6945    1.8183    0.0000 C   0  0  0  0  0  0  0  0  0
    7.4090    1.4058    0.0000 N   0  0  0  0  0  0  0  0  0
    8.1234    1.8183    0.0000 C   0  0  0  0  0  0  0  0  0
    8.8379    1.4058    0.0000 C   0  0  0  0  0  0  0  0  0
    8.8379    0.5808    0.0000 O   0  0  0  0  0  0  0  0  0
    8.1234    0.1683    0.0000 C   0  0  0  0  0  0  0  0  0
    7.4090    0.5808    0.0000 C   0  0  0  0  0  0  0  0  0
  1  2  1  0  0  0  0
  1  6  1  0  0  0  0
  2  3  1  0  0  0  0
  3  4  1  0  0  0  0
  4  5  1  0  0  0  0
  4  7  1  0  0  0  0
  5  6  1  0  0  0  0
  7  8  1  0  0  0  0
  8  9  4  0  0  0  0
  8 13  4  0  0  0  0
  9 10  4  0  0  0  0
 10 11  4  0  0  0  0
 11 12  4  0  0  0  0
 11 14  1  0  0  0  0
 12 13  4  0  0  0  0
 14 15  4  0  0  0  0
 14 19  4  0  0  0  0
 15 16  4  0  0  0  0
 16 17  4  0  0  0  0
 17 18  4  0  0  0  0
 17 20  1  0  0  0  0
 18 19  4  0  0  0  0
 20 21  1  0  0  0  0
 21 22  1  0  0  0  0
 21 26  1  0  0  0  0
 22 23  1  0  0  0  0
 23 24  1  0  0  0  0
 24 25  1  0  0  0  0
 25 26  1  0  0  0  0
M  END
>  <Name_Molregno>
354775

>  <HISTAMINE H3>
7.91

$$$$
357195
  Marvin  02231216192D 0   1.00000     0.00000     0

 19 21  0  0  1  0  0  0  0  0999 V2000
   -0.1361   -2.2537    0.0000 Cl  0  0  0  0  0  0  0  0  0
    0.5784   -1.8412    0.0000 C   0  0  0  0  0  0  0  0  0
    0.5784   -1.0162    0.0000 C   0  0  0  0  0  0  0  0  0
    1.2929   -0.6037    0.0000 C   0  0  0  0  0  0  0  0  0
    2.0073   -1.0162    0.0000 C   0  0  0  0  0  0  0  0  0
    2.0073   -1.8412    0.0000 C   0  0  0  0  0  0  0  0  0
    1.2929   -2.2537    0.0000 C   0  0  0  0  0  0  0  0  0
    2.7218   -0.6037    0.0000 C   0  0  0  0  0  0  0  0  0
    3.4363   -1.0162    0.0000 N   0  0  0  0  0  0  0  0  0
    4.1507   -0.6037    0.0000 C   0  0  0  0  0  0  0  0  0
    4.8652   -1.0162    0.0000 C   0  0  0  0  0  0  0  0  0
    5.5797   -0.6037    0.0000 C   0  0  0  0  0  0  0  0  0
    5.9922    0.1107    0.0000 C   0  0  0  0  0  0  0  0  0
    6.4047   -0.6037    0.0000 C   0  0  0  0  0  0  0  0  0
    7.1192   -1.0162    0.0000 C   0  0  0  0  0  0  0  0  0
    7.8728   -0.6807    0.0000 N   0  0  0  0  0  0  0  0  0
    8.4249   -1.2938    0.0000 C   0  0  0  0  0  0  0  0  0
    8.0124   -2.0082    0.0000 N   0  0  0  0  0  0  0  0  0
    7.2054   -1.8367    0.0000 C   0  0  0  0  0  0  0  0  0
  1  2  1  0  0  0  0
  2  3  4  0  0  0  0
  2  7  4  0  0  0  0
  3  4  4  0  0  0  0
  4  5  4  0  0  0  0
  5  6  4  0  0  0  0
  5  8  1  0  0  0  0
  6  7  4  0  0  0  0
  8  9  1  0  0  0  0
  9 10  1  0  0  0  0
 10 11  1  0  0  0  0
 11 12  1  0  0  0  0
 12 13  1  0  0  0  0
 12 14  1  0  0  0  0
 13 14  1  0  0  0  0
 14 15  1  0  0  0  0
 15 16  4  0  0  0  0
 15 19  4  0  0  0  0
 16 17  4  0  0  0  0
 17 18  4  0  0  0  0
 18 19  4  0  0  0  0
M  STY  1   1 DAT
M  SAL   1  1  18
M  SDT   1 MRV_IMPLICIT_H                                        
M  SDD   1     0.0000    0.0000    DR    ALL  0       0  
M  SED   1 IMPL_H1
M  END
>  <Name_Molregno>
357195

>  <HISTAMINE H3>
8.04

>  <HISTAMINE H4>
7.36

$$$$
357220
  Marvin  02231216192D 0   1.00000     0.00000     0

 18 20  0  0  1  0  0  0  0  0999 V2000
   -0.0997   -0.1434    0.0000 N   0  0  0  0  0  0  0  0  0
    0.4523    0.4697    0.0000 C   0  0  0  0  0  0  0  0  0
    1.2060    0.1341    0.0000 C   0  0  0  0  0  0  0  0  0
    1.1198   -0.6864    0.0000 N   0  0  0  0  0  0  0  0  0
    0.3128   -0.8579    0.0000 C   0  0  0  0  0  0  0  0  0
    1.9205    0.5466    0.0000 C   0  0  0  0  0  0  0  0  0
    2.3330    1.2611    0.0000 C   0  0  0  0  0  0  0  0  0
    2.7455    0.5466    0.0000 C   0  0  0  0  0  0  0  0  0
    3.4600    0.1341    0.0000 C   0  0  0  0  0  0  0  0  0
    4.1744    0.5466    0.0000 C   0  0  0  0  0  0  0  0  0
    4.8889    0.1341    0.0000 N   0  0  0  0  0  0  0  0  0
    5.6034    0.5466    0.0000 C   0  0  0  0  0  0  0  0  0
    6.3178    0.1341    0.0000 C   0  0  0  0  0  0  0  0  0
    7.0323    0.5466    0.0000 C   0  0  0  0  0  0  0  0  0
    7.7468    0.1341    0.0000 C   0  0  0  0  0  0  0  0  0
    7.7468   -0.6909    0.0000 C   0  0  0  0  0  0  0  0  0
    7.0323   -1.1034    0.0000 C   0  0  0  0  0  0  0  0  0
    6.3178   -0.6909    0.0000 C   0  0  0  0  0  0  0  0  0
  1  2  4  0  0  0  0
  1  5  4  0  0  0  0
  2  3  4  0  0  0  0
  3  4  4  0  0  0  0
  3  6  1  0  0  0  0
  4  5  4  0  0  0  0
  6  7  1  0  0  0  0
  6  8  1  0  0  0  0
  7  8  1  0  0  0  0
  8  9  1  0  0  0  0
  9 10  1  0  0  0  0
 10 11  1  0  0  0  0
 11 12  1  0  0  0  0
 12 13  1  0  0  0  0
 13 14  1  0  0  0  0
 13 18  1  0  0  0  0
 14 15  1  0  0  0  0
 15 16  1  0  0  0  0
 16 17  1  0  0  0  0
 17 18  1  0  0  0  0
M  STY  1   1 DAT
M  SAL   1  1   1
M  SDT   1 MRV_IMPLICIT_H                                        
M  SDD   1     0.0000    0.0000    DR    ALL  0       0  
M  SED   1 IMPL_H1
M  END
>  <Name_Molregno>
357220

>  <HISTAMINE H3>
7.36

>  <HISTAMINE H4>
6.79

$$$$
357221
  Marvin  02231216192D 0   1.00000     0.00000     0

 18 20  0  0  1  0  0  0  0  0999 V2000
    7.0994    2.5698    0.0000 Cl  0  0  0  0  0  0  0  0  0
    6.3849    2.1573    0.0000 C   0  0  0  0  0  0  0  0  0
    6.3849    1.3323    0.0000 C   0  0  0  0  0  0  0  0  0
    5.6705    0.9198    0.0000 C   0  0  0  0  0  0  0  0  0
    4.9560    1.3323    0.0000 C   0  0  0  0  0  0  0  0  0
    4.9560    2.1573    0.0000 C   0  0  0  0  0  0  0  0  0
    5.6705    2.5698    0.0000 C   0  0  0  0  0  0  0  0  0
    4.2415    0.9198    0.0000 C   0  0  0  0  0  0  0  0  0
    4.2415    0.0948    0.0000 N   0  0  0  0  0  0  0  0  0
    3.5271   -0.3177    0.0000 C   0  0  0  0  0  0  0  0  0
    3.5271   -1.1427    0.0000 C   0  0  0  0  0  0  0  0  0
    3.9396   -1.8572    0.0000 C   0  0  0  0  0  0  0  0  0
    3.1146   -1.8572    0.0000 C   0  0  0  0  0  0  0  0  0
    2.4001   -2.2697    0.0000 C   0  0  0  0  0  0  0  0  0
    2.3138   -3.0902    0.0000 N   0  0  0  0  0  0  0  0  0
    1.5069   -3.2617    0.0000 C   0  0  0  0  0  0  0  0  0
    1.0944   -2.5472    0.0000 N   0  0  0  0  0  0  0  0  0
    1.6464   -1.9341    0.0000 C   0  0  0  0  0  0  0  0  0
  1  2  1  0  0  0  0
  2  3  4  0  0  0  0
  2  7  4  0  0  0  0
  3  4  4  0  0  0  0
  4  5  4  0  0  0  0
  5  6  4  0  0  0  0
  5  8  1  0  0  0  0
  6  7  4  0  0  0  0
  8  9  1  0  0  0  0
  9 10  1  0  0  0  0
 10 11  1  0  0  0  0
 11 12  1  0  0  0  0
 11 13  1  0  0  0  0
 12 13  1  0  0  0  0
 13 14  1  0  0  0  0
 14 15  4  0  0  0  0
 14 18  4  0  0  0  0
 15 16  4  0  0  0  0
 16 17  4  0  0  0  0
 17 18  4  0  0  0  0
M  STY  1   1 DAT
M  SAL   1  1  17
M  SDT   1 MRV_IMPLICIT_H                                        
M  SDD   1     0.0000    0.0000    DR    ALL  0       0  
M  SED   1 IMPL_H1
M  END
>  <Name_Molregno>
357221

>  <HISTAMINE H3>
6.44

>  <HISTAMINE H4>
6.47

$$$$
357222
  Marvin  02231216192D 0   1.00000     0.00000     0

 17 19  0  0  1  0  0  0  0  0999 V2000
    5.7474    1.8459    0.0000 N   0  0  0  0  0  0  0  0  0
    6.0024    1.0613    0.0000 C   0  0  0  0  0  0  0  0  0
    5.3349    0.5764    0.0000 C   0  0  0  0  0  0  0  0  0
    4.6675    1.0613    0.0000 N   0  0  0  0  0  0  0  0  0
    4.9224    1.8459    0.0000 C   0  0  0  0  0  0  0  0  0
    5.3349   -0.2486    0.0000 C   0  0  0  0  0  0  0  0  0
    5.7474   -0.9631    0.0000 C   0  0  0  0  0  0  0  0  0
    4.9224   -0.9631    0.0000 C   0  0  0  0  0  0  0  0  0
    4.2080   -1.3756    0.0000 C   0  0  0  0  0  0  0  0  0
    3.4935   -0.9631    0.0000 N   0  0  0  0  0  0  0  0  0
    2.7790   -1.3756    0.0000 C   0  0  0  0  0  0  0  0  0
    2.0646   -0.9631    0.0000 C   0  0  0  0  0  0  0  0  0
    1.3501   -1.3756    0.0000 C   0  0  0  0  0  0  0  0  0
    0.6356   -0.9631    0.0000 C   0  0  0  0  0  0  0  0  0
    0.6356   -0.1381    0.0000 C   0  0  0  0  0  0  0  0  0
    1.3501    0.2744    0.0000 C   0  0  0  0  0  0  0  0  0
    2.0646   -0.1381    0.0000 C   0  0  0  0  0  0  0  0  0
  1  2  4  0  0  0  0
  1  5  4  0  0  0  0
  2  3  4  0  0  0  0
  3  4  4  0  0  0  0
  3  6  1  0  0  0  0
  4  5  4  0  0  0  0
  6  7  1  0  0  0  0
  6  8  1  0  0  0  0
  7  8  1  0  0  0  0
  8  9  1  0  0  0  0
  9 10  1  0  0  0  0
 10 11  1  0  0  0  0
 11 12  1  0  0  0  0
 12 13  1  0  0  0  0
 12 17  1  0  0  0  0
 13 14  1  0  0  0  0
 14 15  1  0  0  0  0
 15 16  1  0  0  0  0
 16 17  1  0  0  0  0
M  STY  1   1 DAT
M  SAL   1  1   1
M  SDT   1 MRV_IMPLICIT_H                                        
M  SDD   1     0.0000    0.0000    DR    ALL  0       0  
M  SED   1 IMPL_H1
M  END
>  <Name_Molregno>
357222

>  <HISTAMINE H3>
6.5

>  <HISTAMINE H4>
6.47

$$$$
364055
  Marvin  02231216192D 0   1.00000     0.00000     0

 28 31  0  0  1  0  0  0  0  0999 V2000
   -3.2571   -1.2816    0.0000 O   0  0  0  0  0  0  0  0  0
   -2.5426   -1.6941    0.0000 C   0  0  0  0  0  0  0  0  0
   -1.8281   -1.2816    0.0000 N   0  0  0  0  0  0  0  0  0
   -1.8281   -0.4566    0.0000 C   0  0  0  0  0  0  0  0  0
   -1.1137   -0.0441    0.0000 C   0  0  0  0  0  0  0  0  0
   -1.1137    0.7809    0.0000 C   0  0  0  0  0  0  0  0  0
   -0.3992    1.1934    0.0000 C   0  0  0  0  0  0  0  0  0
    0.3153    0.7809    0.0000 C   0  0  0  0  0  0  0  0  0
    0.3153   -0.0441    0.0000 C   0  0  0  0  0  0  0  0  0
   -0.3992   -0.4566    0.0000 C   0  0  0  0  0  0  0  0  0
    1.0297    1.1934    0.0000 C   0  0  0  0  0  0  0  0  0
    1.0297    2.0184    0.0000 C   0  0  0  0  0  0  0  0  0
    1.7442    2.4309    0.0000 C   0  0  0  0  0  0  0  0  0
    2.4587    2.0184    0.0000 C   0  0  0  0  0  0  0  0  0
    2.4587    1.1934    0.0000 C   0  0  0  0  0  0  0  0  0
    1.7442    0.7809    0.0000 C   0  0  0  0  0  0  0  0  0
   -1.1137   -1.6941    0.0000 C   0  0  0  0  0  0  0  0  0
   -2.5426   -2.5191    0.0000 N   0  0  0  0  0  0  0  0  0
   -1.8752   -3.0040    0.0000 C   0  0  0  0  0  0  0  0  0
   -2.1301   -3.7887    0.0000 C   0  0  0  0  0  0  0  0  0
   -2.9551   -3.7887    0.0000 C   0  0  0  0  0  0  0  0  0
   -3.2101   -3.0040    0.0000 C   0  0  0  0  0  0  0  0  0
   -3.9947   -2.7491    0.0000 C   0  0  0  0  0  0  0  0  0
   -4.1662   -1.9421    0.0000 N   0  0  0  0  0  0  0  0  0
   -4.9199   -1.6066    0.0000 C   0  0  0  0  0  0  0  0  0
   -4.8336   -0.7861    0.0000 C   0  0  0  0  0  0  0  0  0
   -4.0267   -0.6146    0.0000 C   0  0  0  0  0  0  0  0  0
   -3.6142   -1.3290    0.0000 C   0  0  0  0  0  0  0  0  0
  1  2  2  0  0  0  0
  2  3  1  0  0  0  0
  2 18  1  0  0  0  0
  3  4  1  0  0  0  0
  3 17  1  0  0  0  0
  4  5  1  0  0  0  0
  5  6  4  0  0  0  0
  5 10  4  0  0  0  0
  6  7  4  0  0  0  0
  7  8  4  0  0  0  0
  8  9  4  0  0  0  0
  8 11  1  0  0  0  0
  9 10  4  0  0  0  0
 11 12  4  0  0  0  0
 11 16  4  0  0  0  0
 12 13  4  0  0  0  0
 13 14  4  0  0  0  0
 14 15  4  0  0  0  0
 15 16  4  0  0  0  0
 18 19  1  0  0  0  0
 18 22  1  0  0  0  0
 19 20  1  0  0  0  0
 20 21  1  0  0  0  0
 21 22  1  0  0  0  0
 22 23  1  0  0  0  0
 23 24  1  0  0  0  0
 24 25  1  0  0  0  0
 24 28  1  0  0  0  0
 25 26  1  0  0  0  0
 26 27  1  0  0  0  0
 27 28  1  0  0  0  0
M  END
>  <Name_Molregno>
364055

>  <HISTAMINE H3>
6.55

$$$$
364056
  Marvin  02231216192D 0   1.00000     0.00000     0

 26 28  0  0  0  0  0  0  0  0999 V2000
    0.9270    1.0007    0.0000 O   0  0  0  0  0  0  0  0  0
    1.6415    0.5882    0.0000 C   0  0  0  0  0  0  0  0  0
    1.6415   -0.2368    0.0000 N   0  0  0  0  0  0  0  0  0
    0.9270   -0.6493    0.0000 C   0  0  0  0  0  0  0  0  0
    0.9270   -1.4743    0.0000 C   0  0  0  0  0  0  0  0  0
    1.6415   -1.8868    0.0000 C   0  0  0  0  0  0  0  0  0
    1.6415   -2.7118    0.0000 C   0  0  0  0  0  0  0  0  0
    0.9270   -3.1243    0.0000 C   0  0  0  0  0  0  0  0  0
    0.2125   -2.7118    0.0000 C   0  0  0  0  0  0  0  0  0
    0.2125   -1.8868    0.0000 C   0  0  0  0  0  0  0  0  0
    0.9270   -3.9493    0.0000 C   0  0  0  0  0  0  0  0  0
    1.6415   -4.3618    0.0000 C   0  0  0  0  0  0  0  0  0
    1.6415   -5.1868    0.0000 C   0  0  0  0  0  0  0  0  0
    0.9270   -5.5993    0.0000 C   0  0  0  0  0  0  0  0  0
    0.2125   -5.1868    0.0000 C   0  0  0  0  0  0  0  0  0
    0.2125   -4.3618    0.0000 C   0  0  0  0  0  0  0  0  0
    2.3559   -0.6493    0.0000 C   0  0  0  0  0  0  0  0  0
    2.3559    1.0007    0.0000 N   0  0  0  0  0  0  0  0  0
    2.3559    1.8257    0.0000 C   0  0  0  0  0  0  0  0  0
    3.0704    2.2382    0.0000 C   0  0  0  0  0  0  0  0  0
    3.7849    1.8257    0.0000 N   0  0  0  0  0  0  0  0  0
    3.7849    1.0007    0.0000 C   0  0  0  0  0  0  0  0  0
    3.0704    0.5882    0.0000 C   0  0  0  0  0  0  0  0  0
    4.4994    2.2382    0.0000 C   0  0  0  0  0  0  0  0  0
    4.4994    3.0632    0.0000 C   0  0  0  0  0  0  0  0  0
    5.2138    1.8257    0.0000 C   0  0  0  0  0  0  0  0  0
  1  2  2  0  0  0  0
  2  3  1  0  0  0  0
  2 18  1  0  0  0  0
  3  4  1  0  0  0  0
  3 17  1  0  0  0  0
  4  5  1  0  0  0  0
  5  6  4  0  0  0  0
  5 10  4  0  0  0  0
  6  7  4  0  0  0  0
  7  8  4  0  0  0  0
  8  9  4  0  0  0  0
  8 11  1  0  0  0  0
  9 10  4  0  0  0  0
 11 12  4  0  0  0  0
 11 16  4  0  0  0  0
 12 13  4  0  0  0  0
 13 14  4  0  0  0  0
 14 15  4  0  0  0  0
 15 16  4  0  0  0  0
 18 19  1  0  0  0  0
 18 23  1  0  0  0  0
 19 20  1  0  0  0  0
 20 21  1  0  0  0  0
 21 22  1  0  0  0  0
 21 24  1  0  0  0  0
 22 23  1  0  0  0  0
 24 25  1  0  0  0  0
 24 26  1  0  0  0  0
M  END
>  <Name_Molregno>
364056

>  <HISTAMINE H3>
7.43

$$$$
364063
  Marvin  02231216192D 0   1.00000     0.00000     0

 22 25  0  0  1  0  0  0  0  0999 V2000
   -0.4949   -0.0004    0.0000 O   0  0  0  0  0  0  0  0  0
   -0.0824   -0.7148    0.0000 C   0  0  0  0  0  0  0  0  0
   -0.4949   -1.4293    0.0000 N   0  0  0  0  0  0  0  0  0
   -0.1593   -2.1830    0.0000 C   0  0  0  0  0  0  0  0  0
   -0.7724   -2.7350    0.0000 C   0  0  0  0  0  0  0  0  0
   -1.4869   -2.3225    0.0000 C   0  0  0  0  0  0  0  0  0
   -1.3154   -1.5155    0.0000 C   0  0  0  0  0  0  0  0  0
   -1.8674   -0.9024    0.0000 C   0  0  0  0  0  0  0  0  0
   -2.6744   -1.0740    0.0000 N   0  0  0  0  0  0  0  0  0
   -3.0099   -1.8276    0.0000 C   0  0  0  0  0  0  0  0  0
   -3.8304   -1.7414    0.0000 C   0  0  0  0  0  0  0  0  0
   -4.0019   -0.9344    0.0000 C   0  0  0  0  0  0  0  0  0
   -3.2875   -0.5219    0.0000 C   0  0  0  0  0  0  0  0  0
    0.7426   -0.7148    0.0000 N   0  0  0  0  0  0  0  0  0
    1.2275   -1.3823    0.0000 C   0  0  0  0  0  0  0  0  0
    2.0122   -1.1273    0.0000 C   0  0  0  0  0  0  0  0  0
    2.0122   -0.3023    0.0000 C   0  0  0  0  0  0  0  0  0
    1.2275   -0.0474    0.0000 C   0  0  0  0  0  0  0  0  0
    2.7266    0.1102    0.0000 C   0  0  0  0  0  0  0  0  0
    3.4411   -0.3023    0.0000 C   0  0  0  0  0  0  0  0  0
    3.4411   -1.1273    0.0000 C   0  0  0  0  0  0  0  0  0
    2.7266   -1.5398    0.0000 C   0  0  0  0  0  0  0  0  0
  1  2  2  0  0  0  0
  2  3  1  0  0  0  0
  2 14  1  0  0  0  0
  3  4  1  0  0  0  0
  3  7  1  0  0  0  0
  4  5  1  0  0  0  0
  5  6  1  0  0  0  0
  6  7  1  0  0  0  0
  7  8  1  0  0  0  0
  8  9  1  0  0  0  0
  9 10  1  0  0  0  0
  9 13  1  0  0  0  0
 10 11  1  0  0  0  0
 11 12  1  0  0  0  0
 12 13  1  0  0  0  0
 14 15  1  0  0  0  0
 14 18  1  0  0  0  0
 15 16  1  0  0  0  0
 16 17  4  0  0  0  0
 16 22  4  0  0  0  0
 17 18  1  0  0  0  0
 17 19  4  0  0  0  0
 19 20  4  0  0  0  0
 20 21  4  0  0  0  0
 21 22  4  0  0  0  0
M  END
>  <Name_Molregno>
364063

>  <HISTAMINE H3>
7.03

$$$$
364064
  Marvin  02231216192D 0   1.00000     0.00000     0

 20 22  0  0  0  0  0  0  0  0999 V2000
   -0.0020   -3.0906    0.0000 O   0  0  0  0  0  0  0  0  0
    0.4105   -2.3761    0.0000 C   0  0  0  0  0  0  0  0  0
    1.2355   -2.3761    0.0000 N   0  0  0  0  0  0  0  0  0
    1.7204   -3.0436    0.0000 C   0  0  0  0  0  0  0  0  0
    2.5051   -2.7886    0.0000 C   0  0  0  0  0  0  0  0  0
    2.5051   -1.9636    0.0000 C   0  0  0  0  0  0  0  0  0
    1.7204   -1.7087    0.0000 C   0  0  0  0  0  0  0  0  0
    3.2195   -1.5511    0.0000 C   0  0  0  0  0  0  0  0  0
    3.9340   -1.9636    0.0000 C   0  0  0  0  0  0  0  0  0
    3.9340   -2.7886    0.0000 C   0  0  0  0  0  0  0  0  0
    3.2195   -3.2011    0.0000 C   0  0  0  0  0  0  0  0  0
   -0.0020   -1.6617    0.0000 N   0  0  0  0  0  0  0  0  0
   -0.8270   -1.6617    0.0000 C   0  0  0  0  0  0  0  0  0
   -1.2395   -0.9472    0.0000 C   0  0  0  0  0  0  0  0  0
   -0.8270   -0.2327    0.0000 N   0  0  0  0  0  0  0  0  0
   -0.0020   -0.2327    0.0000 C   0  0  0  0  0  0  0  0  0
    0.4105   -0.9472    0.0000 C   0  0  0  0  0  0  0  0  0
   -1.2395    0.4817    0.0000 C   0  0  0  0  0  0  0  0  0
   -2.0645    0.4817    0.0000 C   0  0  0  0  0  0  0  0  0
   -0.8270    1.1962    0.0000 C   0  0  0  0  0  0  0  0  0
  1  2  2  0  0  0  0
  2  3  1  0  0  0  0
  2 12  1  0  0  0  0
  3  4  1  0  0  0  0
  3  7  1  0  0  0  0
  4  5  1  0  0  0  0
  5  6  4  0  0  0  0
  5 11  4  0  0  0  0
  6  7  1  0  0  0  0
  6  8  4  0  0  0  0
  8  9  4  0  0  0  0
  9 10  4  0  0  0  0
 10 11  4  0  0  0  0
 12 13  1  0  0  0  0
 12 17  1  0  0  0  0
 13 14  1  0  0  0  0
 14 15  1  0  0  0  0
 15 16  1  0  0  0  0
 15 18  1  0  0  0  0
 16 17  1  0  0  0  0
 18 19  1  0  0  0  0
 18 20  1  0  0  0  0
M  END
>  <Name_Molregno>
364064

>  <HISTAMINE H3>
7.23

$$$$
364065
  Marvin  02231216192D 0   1.00000     0.00000     0

 20 23  0  0  0  0  0  0  0  0999 V2000
   -0.8294   -3.3724    0.0000 O   0  0  0  0  0  0  0  0  0
   -0.4169   -2.6580    0.0000 C   0  0  0  0  0  0  0  0  0
    0.4081   -2.6580    0.0000 N   0  0  0  0  0  0  0  0  0
    0.8930   -3.3254    0.0000 C   0  0  0  0  0  0  0  0  0
    1.6776   -3.0705    0.0000 C   0  0  0  0  0  0  0  0  0
    1.6776   -2.2455    0.0000 C   0  0  0  0  0  0  0  0  0
    0.8930   -1.9905    0.0000 C   0  0  0  0  0  0  0  0  0
    2.3921   -1.8330    0.0000 C   0  0  0  0  0  0  0  0  0
    3.1065   -2.2455    0.0000 C   0  0  0  0  0  0  0  0  0
    3.1065   -3.0705    0.0000 C   0  0  0  0  0  0  0  0  0
    2.3921   -3.4830    0.0000 C   0  0  0  0  0  0  0  0  0
   -0.8294   -1.9435    0.0000 N   0  0  0  0  0  0  0  0  0
   -1.6544   -1.9435    0.0000 C   0  0  0  0  0  0  0  0  0
   -2.0669   -1.2290    0.0000 C   0  0  0  0  0  0  0  0  0
   -1.6544   -0.5146    0.0000 N   0  0  0  0  0  0  0  0  0
   -0.8294   -0.5146    0.0000 C   0  0  0  0  0  0  0  0  0
   -0.4169   -1.2290    0.0000 C   0  0  0  0  0  0  0  0  0
   -2.0669    0.1999    0.0000 C   0  0  0  0  0  0  0  0  0
   -2.7814    0.6124    0.0000 C   0  0  0  0  0  0  0  0  0
   -2.0669    1.0249    0.0000 C   0  0  0  0  0  0  0  0  0
  1  2  2  0  0  0  0
  2  3  1  0  0  0  0
  2 12  1  0  0  0  0
  3  4  1  0  0  0  0
  3  7  1  0  0  0  0
  4  5  1  0  0  0  0
  5  6  4  0  0  0  0
  5 11  4  0  0  0  0
  6  7  1  0  0  0  0
  6  8  4  0  0  0  0
  8  9  4  0  0  0  0
  9 10  4  0  0  0  0
 10 11  4  0  0  0  0
 12 13  1  0  0  0  0
 12 17  1  0  0  0  0
 13 14  1  0  0  0  0
 14 15  1  0  0  0  0
 15 16  1  0  0  0  0
 15 18  1  0  0  0  0
 16 17  1  0  0  0  0
 18 19  1  0  0  0  0
 18 20  1  0  0  0  0
 19 20  1  0  0  0  0
M  END
>  <Name_Molregno>
364065

>  <HISTAMINE H3>
7.35

$$$$
364072
  Marvin  02231216192D 0   1.00000     0.00000     0

 22 25  0  0  0  0  0  0  0  0999 V2000
    0.6276   -3.2968    0.0000 O   0  0  0  0  0  0  0  0  0
    1.0401   -2.5823    0.0000 C   0  0  0  0  0  0  0  0  0
    1.8651   -2.5823    0.0000 N   0  0  0  0  0  0  0  0  0
    2.3500   -3.2497    0.0000 C   0  0  0  0  0  0  0  0  0
    3.1346   -2.9948    0.0000 C   0  0  0  0  0  0  0  0  0
    3.1346   -2.1698    0.0000 C   0  0  0  0  0  0  0  0  0
    2.3500   -1.9149    0.0000 C   0  0  0  0  0  0  0  0  0
    3.8491   -1.7573    0.0000 C   0  0  0  0  0  0  0  0  0
    4.5636   -2.1698    0.0000 C   0  0  0  0  0  0  0  0  0
    4.5636   -2.9948    0.0000 C   0  0  0  0  0  0  0  0  0
    3.8491   -3.4073    0.0000 C   0  0  0  0  0  0  0  0  0
    0.6276   -1.8678    0.0000 N   0  0  0  0  0  0  0  0  0
   -0.1974   -1.8678    0.0000 C   0  0  0  0  0  0  0  0  0
   -0.6099   -1.1534    0.0000 C   0  0  0  0  0  0  0  0  0
   -0.1974   -0.4389    0.0000 N   0  0  0  0  0  0  0  0  0
    0.6276   -0.4389    0.0000 C   0  0  0  0  0  0  0  0  0
    1.0401   -1.1534    0.0000 C   0  0  0  0  0  0  0  0  0
   -0.6099    0.2756    0.0000 C   0  0  0  0  0  0  0  0  0
   -1.4304    0.3618    0.0000 C   0  0  0  0  0  0  0  0  0
   -1.6019    1.1688    0.0000 C   0  0  0  0  0  0  0  0  0
   -0.8874    1.5813    0.0000 C   0  0  0  0  0  0  0  0  0
   -0.2743    1.0293    0.0000 C   0  0  0  0  0  0  0  0  0
  1  2  2  0  0  0  0
  2  3  1  0  0  0  0
  2 12  1  0  0  0  0
  3  4  1  0  0  0  0
  3  7  1  0  0  0  0
  4  5  1  0  0  0  0
  5  6  4  0  0  0  0
  5 11  4  0  0  0  0
  6  7  1  0  0  0  0
  6  8  4  0  0  0  0
  8  9  4  0  0  0  0
  9 10  4  0  0  0  0
 10 11  4  0  0  0  0
 12 13  1  0  0  0  0
 12 17  1  0  0  0  0
 13 14  1  0  0  0  0
 14 15  1  0  0  0  0
 15 16  1  0  0  0  0
 15 18  1  0  0  0  0
 16 17  1  0  0  0  0
 18 19  1  0  0  0  0
 18 22  1  0  0  0  0
 19 20  1  0  0  0  0
 20 21  1  0  0  0  0
 21 22  1  0  0  0  0
M  END
>  <Name_Molregno>
364072

>  <HISTAMINE H3>
7.64

$$$$
364073
  Marvin  02231216192D 0   1.00000     0.00000     0

 25 27  0  0  0  0  0  0  0  0999 V2000
    3.0106   -2.5594    0.0000 O   0  0  0  0  0  0  0  0  0
    2.2961   -2.9719    0.0000 C   0  0  0  0  0  0  0  0  0
    1.5816   -2.5594    0.0000 N   0  0  0  0  0  0  0  0  0
    1.5816   -1.7344    0.0000 C   0  0  0  0  0  0  0  0  0
    0.8672   -1.3219    0.0000 C   0  0  0  0  0  0  0  0  0
    0.8672   -0.4969    0.0000 C   0  0  0  0  0  0  0  0  0
    1.5816   -0.0844    0.0000 N   0  0  0  0  0  0  0  0  0
    2.2961   -0.4969    0.0000 C   0  0  0  0  0  0  0  0  0
    2.2961   -1.3219    0.0000 C   0  0  0  0  0  0  0  0  0
    1.5816    0.7406    0.0000 C   0  0  0  0  0  0  0  0  0
    0.8672    1.1531    0.0000 O   0  0  0  0  0  0  0  0  0
    2.2961    1.1531    0.0000 N   0  0  0  0  0  0  0  0  0
    2.2961    1.9781    0.0000 C   0  0  0  0  0  0  0  0  0
    3.0106    2.3906    0.0000 C   0  0  0  0  0  0  0  0  0
    3.7250    1.9781    0.0000 N   0  0  0  0  0  0  0  0  0
    3.7250    1.1531    0.0000 C   0  0  0  0  0  0  0  0  0
    3.0106    0.7406    0.0000 C   0  0  0  0  0  0  0  0  0
    4.4395    2.3906    0.0000 C   0  0  0  0  0  0  0  0  0
    5.1540    1.9781    0.0000 C   0  0  0  0  0  0  0  0  0
    4.4395    3.2156    0.0000 C   0  0  0  0  0  0  0  0  0
    2.2961   -3.7969    0.0000 C   0  0  0  0  0  0  0  0  0
    2.9635   -4.2818    0.0000 C   0  0  0  0  0  0  0  0  0
    2.7086   -5.0665    0.0000 C   0  0  0  0  0  0  0  0  0
    1.8836   -5.0665    0.0000 C   0  0  0  0  0  0  0  0  0
    1.6287   -4.2818    0.0000 C   0  0  0  0  0  0  0  0  0
  1  2  2  0  0  0  0
  2  3  1  0  0  0  0
  2 21  1  0  0  0  0
  3  4  1  0  0  0  0
  4  5  1  0  0  0  0
  4  9  1  0  0  0  0
  5  6  1  0  0  0  0
  6  7  1  0  0  0  0
  7  8  1  0  0  0  0
  7 10  1  0  0  0  0
  8  9  1  0  0  0  0
 10 11  2  0  0  0  0
 10 12  1  0  0  0  0
 12 13  1  0  0  0  0
 12 17  1  0  0  0  0
 13 14  1  0  0  0  0
 14 15  1  0  0  0  0
 15 16  1  0  0  0  0
 15 18  1  0  0  0  0
 16 17  1  0  0  0  0
 18 19  1  0  0  0  0
 18 20  1  0  0  0  0
 21 22  1  0  0  0  0
 21 25  1  0  0  0  0
 22 23  1  0  0  0  0
 23 24  1  0  0  0  0
 24 25  1  0  0  0  0
M  END
>  <Name_Molregno>
364073

>  <HISTAMINE H3>
7.77

$$$$
364080
  Marvin  02231216192D 0   1.00000     0.00000     0

 28 31  0  0  0  0  0  0  0  0999 V2000
    1.3298   -0.3078    0.0000 O   0  0  0  0  0  0  0  0  0
    0.5069   -0.3667    0.0000 C   0  0  0  0  0  0  0  0  0
    0.0445    0.3166    0.0000 N   0  0  0  0  0  0  0  0  0
   -0.1644    1.1576    0.0000 C   0  0  0  0  0  0  0  0  0
   -0.9693    1.5123    0.0000 C   0  0  0  0  0  0  0  0  0
   -1.0082    2.3198    0.0000 C   0  0  0  0  0  0  0  0  0
   -1.3605    1.6632    0.0000 C   0  0  0  0  0  0  0  0  0
   -1.3167    0.6909    0.0000 C   0  0  0  0  0  0  0  0  0
   -1.8809    0.2873    0.0000 C   0  0  0  0  0  0  0  0  0
   -1.7105    1.1114    0.0000 C   0  0  0  0  0  0  0  0  0
   -0.5292    0.7299    0.0000 C   0  0  0  0  0  0  0  0  0
    0.1465   -1.1087    0.0000 C   0  0  0  0  0  0  0  0  0
    0.6089   -1.7920    0.0000 C   0  0  0  0  0  0  0  0  0
    0.2484   -2.5340    0.0000 C   0  0  0  0  0  0  0  0  0
   -0.5745   -2.5929    0.0000 N   0  0  0  0  0  0  0  0  0
   -1.0369   -1.9097    0.0000 C   0  0  0  0  0  0  0  0  0
   -0.6764   -1.1676    0.0000 C   0  0  0  0  0  0  0  0  0
   -0.9350   -3.3350    0.0000 C   0  0  0  0  0  0  0  0  0
   -0.4726   -4.0182    0.0000 O   0  0  0  0  0  0  0  0  0
   -1.7579   -3.3938    0.0000 N   0  0  0  0  0  0  0  0  0
   -2.1184   -4.1359    0.0000 C   0  0  0  0  0  0  0  0  0
   -2.9413   -4.1947    0.0000 C   0  0  0  0  0  0  0  0  0
   -3.4037   -3.5115    0.0000 N   0  0  0  0  0  0  0  0  0
   -3.0432   -2.7694    0.0000 C   0  0  0  0  0  0  0  0  0
   -2.2203   -2.7106    0.0000 C   0  0  0  0  0  0  0  0  0
   -4.2266   -3.5703    0.0000 C   0  0  0  0  0  0  0  0  0
   -4.5871   -4.3124    0.0000 C   0  0  0  0  0  0  0  0  0
   -4.6890   -2.8871    0.0000 C   0  0  0  0  0  0  0  0  0
  1  2  2  0  0  0  0
  2  3  1  0  0  0  0
  2 12  1  0  0  0  0
  3  4  1  0  0  0  0
  3 11  1  0  0  0  0
  4  5  1  0  0  0  0
  5  6  1  0  0  0  0
  5 10  1  0  0  0  0
  6  7  1  0  0  0  0
  7  8  1  0  0  0  0
  8  9  1  0  0  0  0
  8 11  1  0  0  0  0
  9 10  1  0  0  0  0
 12 13  1  0  0  0  0
 12 17  1  0  0  0  0
 13 14  1  0  0  0  0
 14 15  1  0  0  0  0
 15 16  1  0  0  0  0
 15 18  1  0  0  0  0
 16 17  1  0  0  0  0
 18 19  2  0  0  0  0
 18 20  1  0  0  0  0
 20 21  1  0  0  0  0
 20 25  1  0  0  0  0
 21 22  1  0  0  0  0
 22 23  1  0  0  0  0
 23 24  1  0  0  0  0
 23 26  1  0  0  0  0
 24 25  1  0  0  0  0
 26 27  1  0  0  0  0
 26 28  1  0  0  0  0
M  END
>  <Name_Molregno>
364080

>  <HISTAMINE H3>
7.85

$$$$
364081
  Marvin  02231216192D 0   1.00000     0.00000     0

 24 25  0  0  0  0  0  0  0  0999 V2000
    4.0636    2.3712    0.0000 O   0  0  0  0  0  0  0  0  0
    3.3491    1.9587    0.0000 C   0  0  0  0  0  0  0  0  0
    2.6347    2.3713    0.0000 O   0  0  0  0  0  0  0  0  0
    3.3491    1.1337    0.0000 C   0  0  0  0  0  0  0  0  0
    4.0636    0.7212    0.0000 C   0  0  0  0  0  0  0  0  0
    4.0636   -0.1038    0.0000 C   0  0  0  0  0  0  0  0  0
    3.3491   -0.5163    0.0000 N   0  0  0  0  0  0  0  0  0
    2.6347   -0.1038    0.0000 C   0  0  0  0  0  0  0  0  0
    2.6347    0.7212    0.0000 C   0  0  0  0  0  0  0  0  0
    3.3491   -1.3413    0.0000 C   0  0  0  0  0  0  0  0  0
    4.0636   -1.7538    0.0000 O   0  0  0  0  0  0  0  0  0
    2.6347   -1.7537    0.0000 N   0  0  0  0  0  0  0  0  0
    2.6347   -2.5788    0.0000 C   0  0  0  0  0  0  0  0  0
    1.9202   -2.9912    0.0000 C   0  0  0  0  0  0  0  0  0
    1.2057   -2.5787    0.0000 N   0  0  0  0  0  0  0  0  0
    1.2057   -1.7537    0.0000 C   0  0  0  0  0  0  0  0  0
    1.9202   -1.3412    0.0000 C   0  0  0  0  0  0  0  0  0
    0.4913   -2.9912    0.0000 C   0  0  0  0  0  0  0  0  0
   -0.2232   -2.5787    0.0000 C   0  0  0  0  0  0  0  0  0
    0.4913   -3.8162    0.0000 C   0  0  0  0  0  0  0  0  0
    4.0636    3.1962    0.0000 C   0  0  0  0  0  0  0  0  0
    4.0636    4.0212    0.0000 C   0  0  0  0  0  0  0  0  0
    4.8886    3.1962    0.0000 C   0  0  0  0  0  0  0  0  0
    3.2386    3.1962    0.0000 C   0  0  0  0  0  0  0  0  0
  1  2  1  0  0  0  0
  1 21  1  0  0  0  0
  2  3  2  0  0  0  0
  2  4  1  0  0  0  0
  4  5  1  0  0  0  0
  4  9  1  0  0  0  0
  5  6  1  0  0  0  0
  6  7  1  0  0  0  0
  7  8  1  0  0  0  0
  7 10  1  0  0  0  0
  8  9  1  0  0  0  0
 10 11  2  0  0  0  0
 10 12  1  0  0  0  0
 12 13  1  0  0  0  0
 12 17  1  0  0  0  0
 13 14  1  0  0  0  0
 14 15  1  0  0  0  0
 15 16  1  0  0  0  0
 15 18  1  0  0  0  0
 16 17  1  0  0  0  0
 18 19  1  0  0  0  0
 18 20  1  0  0  0  0
 21 22  1  0  0  0  0
 21 23  1  0  0  0  0
 21 24  1  0  0  0  0
M  END
>  <Name_Molregno>
364081

>  <HISTAMINE H3>
7.6

$$$$
364088
  Marvin  02231216192D 0   1.00000     0.00000     0

 24 26  0  0  0  0  0  0  0  0999 V2000
   -0.9289   -0.2805    0.0000 O   0  0  0  0  0  0  0  0  0
   -0.2144   -0.6930    0.0000 C   0  0  0  0  0  0  0  0  0
   -0.2144   -1.5180    0.0000 N   0  0  0  0  0  0  0  0  0
    0.5001   -1.9305    0.0000 C   0  0  0  0  0  0  0  0  0
    0.5001   -2.7555    0.0000 C   0  0  0  0  0  0  0  0  0
   -0.2144   -3.1680    0.0000 C   0  0  0  0  0  0  0  0  0
   -0.9289   -2.7555    0.0000 C   0  0  0  0  0  0  0  0  0
   -0.9289   -1.9305    0.0000 C   0  0  0  0  0  0  0  0  0
   -0.2144   -3.9930    0.0000 C   0  0  0  0  0  0  0  0  0
   -0.9289   -4.4055    0.0000 C   0  0  0  0  0  0  0  0  0
   -0.9289   -5.2305    0.0000 C   0  0  0  0  0  0  0  0  0
   -1.6433   -5.6430    0.0000 C   0  0  0  0  0  0  0  0  0
   -2.3578   -5.2305    0.0000 C   0  0  0  0  0  0  0  0  0
   -2.3578   -4.4055    0.0000 C   0  0  0  0  0  0  0  0  0
   -1.6433   -3.9930    0.0000 C   0  0  0  0  0  0  0  0  0
    0.5001   -0.2805    0.0000 N   0  0  0  0  0  0  0  0  0
    0.5001    0.5445    0.0000 C   0  0  0  0  0  0  0  0  0
    1.2145    0.9570    0.0000 C   0  0  0  0  0  0  0  0  0
    1.9290    0.5445    0.0000 N   0  0  0  0  0  0  0  0  0
    1.9290   -0.2805    0.0000 C   0  0  0  0  0  0  0  0  0
    1.2145   -0.6930    0.0000 C   0  0  0  0  0  0  0  0  0
    2.6435    0.9570    0.0000 C   0  0  0  0  0  0  0  0  0
    2.6435    1.7820    0.0000 C   0  0  0  0  0  0  0  0  0
    3.3580    0.5445    0.0000 C   0  0  0  0  0  0  0  0  0
  1  2  2  0  0  0  0
  2  3  1  0  0  0  0
  2 16  1  0  0  0  0
  3  4  1  0  0  0  0
  3  8  1  0  0  0  0
  4  5  1  0  0  0  0
  5  6  1  0  0  0  0
  6  7  1  0  0  0  0
  6  9  1  0  0  0  0
  7  8  1  0  0  0  0
  9 10  1  0  0  0  0
 10 11  4  0  0  0  0
 10 15  4  0  0  0  0
 11 12  4  0  0  0  0
 12 13  4  0  0  0  0
 13 14  4  0  0  0  0
 14 15  4  0  0  0  0
 16 17  1  0  0  0  0
 16 21  1  0  0  0  0
 17 18  1  0  0  0  0
 18 19  1  0  0  0  0
 19 20  1  0  0  0  0
 19 22  1  0  0  0  0
 20 21  1  0  0  0  0
 22 23  1  0  0  0  0
 22 24  1  0  0  0  0
M  END
>  <Name_Molregno>
364088

>  <HISTAMINE H3>
7.85

$$$$
364089
  Marvin  02231216192D 0   1.00000     0.00000     0

 21 22  0  0  0  0  0  0  0  0999 V2000
   -0.5096   -0.4451    0.0000 O   0  0  0  0  0  0  0  0  0
    0.2048   -0.8576    0.0000 C   0  0  0  0  0  0  0  0  0
    0.2048   -1.6826    0.0000 N   0  0  0  0  0  0  0  0  0
    0.9193   -2.0951    0.0000 C   0  0  0  0  0  0  0  0  0
    0.9193   -2.9201    0.0000 C   0  0  0  0  0  0  0  0  0
    0.2048   -3.3326    0.0000 C   0  0  0  0  0  0  0  0  0
   -0.5096   -2.9201    0.0000 C   0  0  0  0  0  0  0  0  0
   -0.5096   -2.0951    0.0000 C   0  0  0  0  0  0  0  0  0
    0.2048   -4.1576    0.0000 C   0  0  0  0  0  0  0  0  0
    0.2048   -4.9826    0.0000 C   0  0  0  0  0  0  0  0  0
    1.0298   -4.1576    0.0000 C   0  0  0  0  0  0  0  0  0
   -0.6202   -4.1576    0.0000 C   0  0  0  0  0  0  0  0  0
    0.9193   -0.4451    0.0000 N   0  0  0  0  0  0  0  0  0
    0.9193    0.3799    0.0000 C   0  0  0  0  0  0  0  0  0
    1.6338    0.7924    0.0000 C   0  0  0  0  0  0  0  0  0
    2.3483    0.3799    0.0000 N   0  0  0  0  0  0  0  0  0
    2.3483   -0.4451    0.0000 C   0  0  0  0  0  0  0  0  0
    1.6338   -0.8576    0.0000 C   0  0  0  0  0  0  0  0  0
    3.0627    0.7924    0.0000 C   0  0  0  0  0  0  0  0  0
    3.0627    1.6174    0.0000 C   0  0  0  0  0  0  0  0  0
    3.7772    0.3799    0.0000 C   0  0  0  0  0  0  0  0  0
  1  2  2  0  0  0  0
  2  3  1  0  0  0  0
  2 13  1  0  0  0  0
  3  4  1  0  0  0  0
  3  8  1  0  0  0  0
  4  5  1  0  0  0  0
  5  6  1  0  0  0  0
  6  7  1  0  0  0  0
  6  9  1  0  0  0  0
  7  8  1  0  0  0  0
  9 10  1  0  0  0  0
  9 11  1  0  0  0  0
  9 12  1  0  0  0  0
 13 14  1  0  0  0  0
 13 18  1  0  0  0  0
 14 15  1  0  0  0  0
 15 16  1  0  0  0  0
 16 17  1  0  0  0  0
 16 19  1  0  0  0  0
 17 18  1  0  0  0  0
 19 20  1  0  0  0  0
 19 21  1  0  0  0  0
M  END
>  <Name_Molregno>
364089

>  <HISTAMINE H3>
7.33

$$$$
364090
  Marvin  02231216192D 0   1.00000     0.00000     0

 21 23  0  0  0  0  0  0  0  0999 V2000
   -2.3618   -2.4774    0.0000 O   0  0  0  0  0  0  0  0  0
   -1.6473   -2.0649    0.0000 C   0  0  0  0  0  0  0  0  0
   -0.9328   -2.4774    0.0000 N   0  0  0  0  0  0  0  0  0
   -0.9328   -3.3024    0.0000 C   0  0  0  0  0  0  0  0  0
   -0.2183   -3.7149    0.0000 C   0  0  0  0  0  0  0  0  0
    0.4961   -3.3024    0.0000 C   0  0  0  0  0  0  0  0  0
    0.4961   -2.4774    0.0000 C   0  0  0  0  0  0  0  0  0
   -0.2183   -2.0649    0.0000 C   0  0  0  0  0  0  0  0  0
    1.2106   -2.0649    0.0000 C   0  0  0  0  0  0  0  0  0
    1.9251   -2.4774    0.0000 C   0  0  0  0  0  0  0  0  0
    1.9251   -3.3024    0.0000 C   0  0  0  0  0  0  0  0  0
    1.2106   -3.7149    0.0000 C   0  0  0  0  0  0  0  0  0
   -1.6473   -1.2399    0.0000 N   0  0  0  0  0  0  0  0  0
   -2.3618   -0.8274    0.0000 C   0  0  0  0  0  0  0  0  0
   -2.3618   -0.0024    0.0000 C   0  0  0  0  0  0  0  0  0
   -1.6473    0.4101    0.0000 N   0  0  0  0  0  0  0  0  0
   -0.9328   -0.0024    0.0000 C   0  0  0  0  0  0  0  0  0
   -0.9328   -0.8274    0.0000 C   0  0  0  0  0  0  0  0  0
   -1.6473    1.2351    0.0000 C   0  0  0  0  0  0  0  0  0
   -2.3618    1.6476    0.0000 C   0  0  0  0  0  0  0  0  0
   -0.9328    1.6476    0.0000 C   0  0  0  0  0  0  0  0  0
  1  2  2  0  0  0  0
  2  3  1  0  0  0  0
  2 13  1  0  0  0  0
  3  4  1  0  0  0  0
  3  8  1  0  0  0  0
  4  5  1  0  0  0  0
  5  6  1  0  0  0  0
  6  7  4  0  0  0  0
  6 12  4  0  0  0  0
  7  8  1  0  0  0  0
  7  9  4  0  0  0  0
  9 10  4  0  0  0  0
 10 11  4  0  0  0  0
 11 12  4  0  0  0  0
 13 14  1  0  0  0  0
 13 18  1  0  0  0  0
 14 15  1  0  0  0  0
 15 16  1  0  0  0  0
 16 17  1  0  0  0  0
 16 19  1  0  0  0  0
 17 18  1  0  0  0  0
 19 20  1  0  0  0  0
 19 21  1  0  0  0  0
M  END
>  <Name_Molregno>
364090

>  <HISTAMINE H3>
7.14

$$$$
364095
  Marvin  02231216192D 0   1.00000     0.00000     0

 25 27  0  0  1  0  0  0  0  0999 V2000
    0.1907    1.3057    0.0000 F   0  0  0  0  0  0  0  0  0
   -0.5238    0.8932    0.0000 C   0  0  0  0  0  0  0  0  0
   -0.9363    1.6077    0.0000 F   0  0  0  0  0  0  0  0  0
   -0.1113    0.1788    0.0000 F   0  0  0  0  0  0  0  0  0
   -1.2382    0.4807    0.0000 C   0  0  0  0  0  0  0  0  0
   -1.2382   -0.3443    0.0000 C   0  0  0  0  0  0  0  0  0
   -1.9527   -0.7568    0.0000 C   0  0  0  0  0  0  0  0  0
   -2.6672   -0.3443    0.0000 C   0  0  0  0  0  0  0  0  0
   -2.6672    0.4807    0.0000 C   0  0  0  0  0  0  0  0  0
   -1.9527    0.8932    0.0000 C   0  0  0  0  0  0  0  0  0
   -3.3816   -0.7568    0.0000 C   0  0  0  0  0  0  0  0  0
   -4.0961   -0.3443    0.0000 C   0  0  0  0  0  0  0  0  0
   -4.8106   -0.7568    0.0000 C   0  0  0  0  0  0  0  0  0
   -5.5251   -0.3443    0.0000 O   0  0  0  0  0  0  0  0  0
   -4.8106   -1.5818    0.0000 N   0  0  0  0  0  0  0  0  0
   -4.1431   -2.0667    0.0000 C   0  0  0  0  0  0  0  0  0
   -4.3981   -2.8513    0.0000 C   0  0  0  0  0  0  0  0  0
   -5.2231   -2.8513    0.0000 C   0  0  0  0  0  0  0  0  0
   -5.4780   -2.0667    0.0000 C   0  0  0  0  0  0  0  0  0
   -6.2626   -1.8118    0.0000 C   0  0  0  0  0  0  0  0  0
   -6.4342   -1.0048    0.0000 N   0  0  0  0  0  0  0  0  0
   -7.1878   -0.6692    0.0000 C   0  0  0  0  0  0  0  0  0
   -7.1016    0.1513    0.0000 C   0  0  0  0  0  0  0  0  0
   -6.2946    0.3228    0.0000 C   0  0  0  0  0  0  0  0  0
   -5.8821   -0.3917    0.0000 C   0  0  0  0  0  0  0  0  0
  1  2  1  0  0  0  0
  2  3  1  0  0  0  0
  2  4  1  0  0  0  0
  2  5  1  0  0  0  0
  5  6  4  0  0  0  0
  5 10  4  0  0  0  0
  6  7  4  0  0  0  0
  7  8  4  0  0  0  0
  8  9  4  0  0  0  0
  8 11  1  0  0  0  0
  9 10  4  0  0  0  0
 11 12  2  0  0  0  0
 12 13  1  0  0  0  0
 13 14  2  0  0  0  0
 13 15  1  0  0  0  0
 15 16  1  0  0  0  0
 15 19  1  0  0  0  0
 16 17  1  0  0  0  0
 17 18  1  0  0  0  0
 18 19  1  0  0  0  0
 19 20  1  0  0  0  0
 20 21  1  0  0  0  0
 21 22  1  0  0  0  0
 21 25  1  0  0  0  0
 22 23  1  0  0  0  0
 23 24  1  0  0  0  0
 24 25  1  0  0  0  0
M  END
>  <Name_Molregno>
364095

>  <HISTAMINE H3>
8.33

$$$$
364096
  Marvin  02231216192D 0   1.00000     0.00000     0

 22 24  0  0  1  0  0  0  0  0999 V2000
    8.0746    0.8186    0.0000 Cl  0  0  0  0  0  0  0  0  0
    7.3601    0.4061    0.0000 C   0  0  0  0  0  0  0  0  0
    7.3601   -0.4189    0.0000 C   0  0  0  0  0  0  0  0  0
    6.6457   -0.8314    0.0000 C   0  0  0  0  0  0  0  0  0
    5.9312   -0.4189    0.0000 C   0  0  0  0  0  0  0  0  0
    5.9312    0.4061    0.0000 C   0  0  0  0  0  0  0  0  0
    6.6457    0.8186    0.0000 C   0  0  0  0  0  0  0  0  0
    5.2167   -0.8314    0.0000 C   0  0  0  0  0  0  0  0  0
    4.5023   -0.4189    0.0000 C   0  0  0  0  0  0  0  0  0
    3.7878   -0.8314    0.0000 C   0  0  0  0  0  0  0  0  0
    3.0733   -0.4189    0.0000 O   0  0  0  0  0  0  0  0  0
    3.7878   -1.6564    0.0000 N   0  0  0  0  0  0  0  0  0
    4.4552   -2.1413    0.0000 C   0  0  0  0  0  0  0  0  0
    4.2003   -2.9260    0.0000 C   0  0  0  0  0  0  0  0  0
    3.3753   -2.9260    0.0000 C   0  0  0  0  0  0  0  0  0
    3.1204   -2.1413    0.0000 C   0  0  0  0  0  0  0  0  0
    2.3357   -1.8864    0.0000 C   0  0  0  0  0  0  0  0  0
    2.1642   -1.0794    0.0000 N   0  0  0  0  0  0  0  0  0
    1.4105   -0.7439    0.0000 C   0  0  0  0  0  0  0  0  0
    1.4968    0.0766    0.0000 C   0  0  0  0  0  0  0  0  0
    2.3037    0.2481    0.0000 C   0  0  0  0  0  0  0  0  0
    2.7162   -0.4663    0.0000 C   0  0  0  0  0  0  0  0  0
  1  2  1  0  0  0  0
  2  3  4  0  0  0  0
  2  7  4  0  0  0  0
  3  4  4  0  0  0  0
  4  5  4  0  0  0  0
  5  6  4  0  0  0  0
  5  8  1  0  0  0  0
  6  7  4  0  0  0  0
  8  9  2  0  0  0  0
  9 10  1  0  0  0  0
 10 11  2  0  0  0  0
 10 12  1  0  0  0  0
 12 13  1  0  0  0  0
 12 16  1  0  0  0  0
 13 14  1  0  0  0  0
 14 15  1  0  0  0  0
 15 16  1  0  0  0  0
 16 17  1  0  0  0  0
 17 18  1  0  0  0  0
 18 19  1  0  0  0  0
 18 22  1  0  0  0  0
 19 20  1  0  0  0  0
 20 21  1  0  0  0  0
 21 22  1  0  0  0  0
M  END
>  <Name_Molregno>
364096

>  <HISTAMINE H3>
7.95

$$$$
364097
  Marvin  02231216192D 0   1.00000     0.00000     0

 25 27  0  0  0  0  0  0  0  0999 V2000
   -5.2785    4.3995    0.0000 O   0  0  0  0  0  0  0  0  0
   -5.9930    3.9870    0.0000 C   0  0  0  0  0  0  0  0  0
   -4.5641    3.9870    0.0000 C   0  0  0  0  0  0  0  0  0
   -3.8496    4.3995    0.0000 C   0  0  0  0  0  0  0  0  0
   -3.1351    3.9870    0.0000 C   0  0  0  0  0  0  0  0  0
   -2.4206    4.3995    0.0000 C   0  0  0  0  0  0  0  0  0
   -1.7062    3.9870    0.0000 C   0  0  0  0  0  0  0  0  0
   -1.7062    3.1620    0.0000 N   0  0  0  0  0  0  0  0  0
   -2.4206    2.7495    0.0000 C   0  0  0  0  0  0  0  0  0
   -3.1351    3.1620    0.0000 C   0  0  0  0  0  0  0  0  0
   -3.8496    2.7495    0.0000 C   0  0  0  0  0  0  0  0  0
   -4.5641    3.1620    0.0000 C   0  0  0  0  0  0  0  0  0
   -5.2785    2.7495    0.0000 O   0  0  0  0  0  0  0  0  0
   -5.2785    1.9245    0.0000 C   0  0  0  0  0  0  0  0  0
   -0.9917    2.7495    0.0000 C   0  0  0  0  0  0  0  0  0
   -0.2772    3.1620    0.0000 O   0  0  0  0  0  0  0  0  0
   -0.9917    1.9245    0.0000 N   0  0  0  0  0  0  0  0  0
   -0.2772    1.5120    0.0000 C   0  0  0  0  0  0  0  0  0
   -0.2772    0.6870    0.0000 C   0  0  0  0  0  0  0  0  0
   -0.9917    0.2745    0.0000 N   0  0  0  0  0  0  0  0  0
   -1.7062    0.6870    0.0000 C   0  0  0  0  0  0  0  0  0
   -1.7062    1.5120    0.0000 C   0  0  0  0  0  0  0  0  0
   -0.9917   -0.5505    0.0000 C   0  0  0  0  0  0  0  0  0
   -0.2772   -0.9630    0.0000 C   0  0  0  0  0  0  0  0  0
   -1.7062   -0.9630    0.0000 C   0  0  0  0  0  0  0  0  0
  1  2  1  0  0  0  0
  1  3  1  0  0  0  0
  3  4  4  0  0  0  0
  3 12  4  0  0  0  0
  4  5  4  0  0  0  0
  5  6  1  0  0  0  0
  5 10  4  0  0  0  0
  6  7  1  0  0  0  0
  7  8  1  0  0  0  0
  8  9  1  0  0  0  0
  8 15  1  0  0  0  0
  9 10  1  0  0  0  0
 10 11  4  0  0  0  0
 11 12  4  0  0  0  0
 12 13  1  0  0  0  0
 13 14  1  0  0  0  0
 15 16  2  0  0  0  0
 15 17  1  0  0  0  0
 17 18  1  0  0  0  0
 17 22  1  0  0  0  0
 18 19  1  0  0  0  0
 19 20  1  0  0  0  0
 20 21  1  0  0  0  0
 20 23  1  0  0  0  0
 21 22  1  0  0  0  0
 23 24  1  0  0  0  0
 23 25  1  0  0  0  0
M  END
>  <Name_Molregno>
364097

>  <HISTAMINE H3>
7.8

$$$$
364098
  Marvin  02231216192D 0   1.00000     0.00000     0

 23 25  0  0  0  0  0  0  0  0999 V2000
   -0.0439    0.0318    0.0000 O   0  0  0  0  0  0  0  0  0
    0.6705   -0.3807    0.0000 C   0  0  0  0  0  0  0  0  0
    0.6705   -1.2057    0.0000 N   0  0  0  0  0  0  0  0  0
    1.3850   -1.6182    0.0000 C   0  0  0  0  0  0  0  0  0
    1.3850   -2.4432    0.0000 C   0  0  0  0  0  0  0  0  0
    0.6705   -2.8557    0.0000 C   0  0  0  0  0  0  0  0  0
   -0.0439   -2.4432    0.0000 C   0  0  0  0  0  0  0  0  0
   -0.0439   -1.6182    0.0000 C   0  0  0  0  0  0  0  0  0
    0.6705   -3.6807    0.0000 C   0  0  0  0  0  0  0  0  0
    1.3850   -4.0932    0.0000 C   0  0  0  0  0  0  0  0  0
    1.3850   -4.9182    0.0000 C   0  0  0  0  0  0  0  0  0
    0.6705   -5.3307    0.0000 C   0  0  0  0  0  0  0  0  0
   -0.0439   -4.9182    0.0000 C   0  0  0  0  0  0  0  0  0
   -0.0439   -4.0932    0.0000 C   0  0  0  0  0  0  0  0  0
    1.3850    0.0318    0.0000 N   0  0  0  0  0  0  0  0  0
    1.3850    0.8568    0.0000 C   0  0  0  0  0  0  0  0  0
    2.0995    1.2693    0.0000 C   0  0  0  0  0  0  0  0  0
    2.8140    0.8568    0.0000 N   0  0  0  0  0  0  0  0  0
    2.8140    0.0318    0.0000 C   0  0  0  0  0  0  0  0  0
    2.0995   -0.3807    0.0000 C   0  0  0  0  0  0  0  0  0
    3.5284    1.2693    0.0000 C   0  0  0  0  0  0  0  0  0
    3.5284    2.0943    0.0000 C   0  0  0  0  0  0  0  0  0
    4.2429    0.8568    0.0000 C   0  0  0  0  0  0  0  0  0
  1  2  2  0  0  0  0
  2  3  1  0  0  0  0
  2 15  1  0  0  0  0
  3  4  1  0  0  0  0
  3  8  1  0  0  0  0
  4  5  1  0  0  0  0
  5  6  1  0  0  0  0
  6  7  1  0  0  0  0
  6  9  1  0  0  0  0
  7  8  1  0  0  0  0
  9 10  4  0  0  0  0
  9 14  4  0  0  0  0
 10 11  4  0  0  0  0
 11 12  4  0  0  0  0
 12 13  4  0  0  0  0
 13 14  4  0  0  0  0
 15 16  1  0  0  0  0
 15 20  1  0  0  0  0
 16 17  1  0  0  0  0
 17 18  1  0  0  0  0
 18 19  1  0  0  0  0
 18 21  1  0  0  0  0
 19 20  1  0  0  0  0
 21 22  1  0  0  0  0
 21 23  1  0  0  0  0
M  END
>  <Name_Molregno>
364098

>  <HISTAMINE H3>
7.07

$$$$
364099
  Marvin  02231216192D 0   1.00000     0.00000     0

 23 25  0  0  0  0  0  0  0  0999 V2000
   -0.0439    0.0318    0.0000 O   0  0  0  0  0  0  0  0  0
    0.6705   -0.3807    0.0000 C   0  0  0  0  0  0  0  0  0
    0.6705   -1.2057    0.0000 N   0  0  0  0  0  0  0  0  0
    1.3850   -1.6182    0.0000 C   0  0  0  0  0  0  0  0  0
    1.3850   -2.4432    0.0000 C   0  0  0  0  0  0  0  0  0
    0.6705   -2.8557    0.0000 C   0  0  0  0  0  0  0  0  0
   -0.0439   -2.4432    0.0000 C   0  0  0  0  0  0  0  0  0
   -0.0439   -1.6182    0.0000 C   0  0  0  0  0  0  0  0  0
    0.6705   -3.6807    0.0000 C   0  0  0  0  0  0  0  0  0
    1.3850   -4.0932    0.0000 C   0  0  0  0  0  0  0  0  0
    1.3850   -4.9182    0.0000 C   0  0  0  0  0  0  0  0  0
    0.6705   -5.3307    0.0000 C   0  0  0  0  0  0  0  0  0
   -0.0439   -4.9182    0.0000 C   0  0  0  0  0  0  0  0  0
   -0.0439   -4.0932    0.0000 C   0  0  0  0  0  0  0  0  0
    1.3850    0.0318    0.0000 N   0  0  0  0  0  0  0  0  0
    1.3850    0.8568    0.0000 C   0  0  0  0  0  0  0  0  0
    2.0995    1.2693    0.0000 C   0  0  0  0  0  0  0  0  0
    2.8140    0.8568    0.0000 N   0  0  0  0  0  0  0  0  0
    2.8140    0.0318    0.0000 C   0  0  0  0  0  0  0  0  0
    2.0995   -0.3807    0.0000 C   0  0  0  0  0  0  0  0  0
    3.5284    1.2693    0.0000 C   0  0  0  0  0  0  0  0  0
    3.5284    2.0943    0.0000 C   0  0  0  0  0  0  0  0  0
    4.2429    0.8568    0.0000 C   0  0  0  0  0  0  0  0  0
  1  2  2  0  0  0  0
  2  3  1  0  0  0  0
  2 15  1  0  0  0  0
  3  4  1  0  0  0  0
  3  8  1  0  0  0  0
  4  5  1  0  0  0  0
  5  6  1  0  0  0  0
  6  7  2  0  0  0  0
  6  9  1  0  0  0  0
  7  8  1  0  0  0  0
  9 10  4  0  0  0  0
  9 14  4  0  0  0  0
 10 11  4  0  0  0  0
 11 12  4  0  0  0  0
 12 13  4  0  0  0  0
 13 14  4  0  0  0  0
 15 16  1  0  0  0  0
 15 20  1  0  0  0  0
 16 17  1  0  0  0  0
 17 18  1  0  0  0  0
 18 19  1  0  0  0  0
 18 21  1  0  0  0  0
 19 20  1  0  0  0  0
 21 22  1  0  0  0  0
 21 23  1  0  0  0  0
M  END
>  <Name_Molregno>
364099

>  <HISTAMINE H3>
7.57

$$$$
364104
  Marvin  02231216192D 0   1.00000     0.00000     0

 26 28  0  0  1  0  0  0  0  0999 V2000
    6.7554    2.0251    0.0000 F   0  0  0  0  0  0  0  0  0
    6.7554    1.2001    0.0000 C   0  0  0  0  0  0  0  0  0
    5.9304    1.2001    0.0000 F   0  0  0  0  0  0  0  0  0
    7.5804    1.2001    0.0000 F   0  0  0  0  0  0  0  0  0
    6.7554    0.3751    0.0000 O   0  0  0  0  0  0  0  0  0
    6.0409   -0.0374    0.0000 C   0  0  0  0  0  0  0  0  0
    6.0409   -0.8624    0.0000 C   0  0  0  0  0  0  0  0  0
    5.3265   -1.2749    0.0000 C   0  0  0  0  0  0  0  0  0
    4.6120   -0.8624    0.0000 C   0  0  0  0  0  0  0  0  0
    4.6120   -0.0374    0.0000 C   0  0  0  0  0  0  0  0  0
    5.3265    0.3751    0.0000 C   0  0  0  0  0  0  0  0  0
    3.8975   -1.2749    0.0000 C   0  0  0  0  0  0  0  0  0
    3.1830   -0.8624    0.0000 C   0  0  0  0  0  0  0  0  0
    2.4686   -1.2749    0.0000 C   0  0  0  0  0  0  0  0  0
    1.7541   -0.8624    0.0000 O   0  0  0  0  0  0  0  0  0
    2.4686   -2.0999    0.0000 N   0  0  0  0  0  0  0  0  0
    3.1360   -2.5848    0.0000 C   0  0  0  0  0  0  0  0  0
    2.8811   -3.3694    0.0000 C   0  0  0  0  0  0  0  0  0
    2.0561   -3.3694    0.0000 C   0  0  0  0  0  0  0  0  0
    1.8011   -2.5848    0.0000 C   0  0  0  0  0  0  0  0  0
    1.0165   -2.3299    0.0000 C   0  0  0  0  0  0  0  0  0
    0.8450   -1.5229    0.0000 N   0  0  0  0  0  0  0  0  0
    0.0913   -1.1873    0.0000 C   0  0  0  0  0  0  0  0  0
    0.1775   -0.3669    0.0000 C   0  0  0  0  0  0  0  0  0
    0.9845   -0.1953    0.0000 C   0  0  0  0  0  0  0  0  0
    1.3970   -0.9098    0.0000 C   0  0  0  0  0  0  0  0  0
  1  2  1  0  0  0  0
  2  3  1  0  0  0  0
  2  4  1  0  0  0  0
  2  5  1  0  0  0  0
  5  6  1  0  0  0  0
  6  7  4  0  0  0  0
  6 11  4  0  0  0  0
  7  8  4  0  0  0  0
  8  9  4  0  0  0  0
  9 10  4  0  0  0  0
  9 12  1  0  0  0  0
 10 11  4  0  0  0  0
 12 13  2  0  0  0  0
 13 14  1  0  0  0  0
 14 15  2  0  0  0  0
 14 16  1  0  0  0  0
 16 17  1  0  0  0  0
 16 20  1  0  0  0  0
 17 18  1  0  0  0  0
 18 19  1  0  0  0  0
 19 20  1  0  0  0  0
 20 21  1  0  0  0  0
 21 22  1  0  0  0  0
 22 23  1  0  0  0  0
 22 26  1  0  0  0  0
 23 24  1  0  0  0  0
 24 25  1  0  0  0  0
 25 26  1  0  0  0  0
M  END
>  <Name_Molregno>
364104

>  <HISTAMINE H3>
7.87

$$$$
364105
  Marvin  02231216192D 0   1.00000     0.00000     0

 27 30  0  0  1  0  0  0  0  0999 V2000
   -3.0877   -0.8269    0.0000 O   0  0  0  0  0  0  0  0  0
   -2.3732   -1.2394    0.0000 C   0  0  0  0  0  0  0  0  0
   -2.3732   -2.0644    0.0000 N   0  0  0  0  0  0  0  0  0
   -1.7058   -2.5493    0.0000 C   0  0  0  0  0  0  0  0  0
   -1.9607   -3.3339    0.0000 C   0  0  0  0  0  0  0  0  0
   -2.7857   -3.3339    0.0000 C   0  0  0  0  0  0  0  0  0
   -3.0407   -2.5493    0.0000 C   0  0  0  0  0  0  0  0  0
   -3.8253   -2.2943    0.0000 C   0  0  0  0  0  0  0  0  0
   -4.4384   -2.8464    0.0000 N   0  0  0  0  0  0  0  0  0
   -4.3522   -3.6669    0.0000 C   0  0  0  0  0  0  0  0  0
   -5.1058   -4.0024    0.0000 C   0  0  0  0  0  0  0  0  0
   -5.6579   -3.3893    0.0000 C   0  0  0  0  0  0  0  0  0
   -5.2454   -2.6749    0.0000 C   0  0  0  0  0  0  0  0  0
   -1.6588   -0.8269    0.0000 C   0  0  0  0  0  0  0  0  0
   -1.6588   -0.0019    0.0000 C   0  0  0  0  0  0  0  0  0
   -0.9443    0.4106    0.0000 C   0  0  0  0  0  0  0  0  0
   -0.9443    1.2356    0.0000 C   0  0  0  0  0  0  0  0  0
   -0.2298    1.6481    0.0000 C   0  0  0  0  0  0  0  0  0
    0.4846    1.2356    0.0000 C   0  0  0  0  0  0  0  0  0
    0.4846    0.4106    0.0000 C   0  0  0  0  0  0  0  0  0
   -0.2298   -0.0019    0.0000 C   0  0  0  0  0  0  0  0  0
    1.1991    1.6481    0.0000 C   0  0  0  0  0  0  0  0  0
    1.1991    2.4731    0.0000 C   0  0  0  0  0  0  0  0  0
    1.9136    2.8856    0.0000 C   0  0  0  0  0  0  0  0  0
    2.6281    2.4731    0.0000 C   0  0  0  0  0  0  0  0  0
    2.6281    1.6481    0.0000 C   0  0  0  0  0  0  0  0  0
    1.9136    1.2356    0.0000 C   0  0  0  0  0  0  0  0  0
  1  2  2  0  0  0  0
  2  3  1  0  0  0  0
  2 14  1  0  0  0  0
  3  4  1  0  0  0  0
  3  7  1  0  0  0  0
  4  5  1  0  0  0  0
  5  6  1  0  0  0  0
  6  7  1  0  0  0  0
  7  8  1  0  0  0  0
  8  9  1  0  0  0  0
  9 10  1  0  0  0  0
  9 13  1  0  0  0  0
 10 11  1  0  0  0  0
 11 12  1  0  0  0  0
 12 13  1  0  0  0  0
 14 15  2  0  0  0  0
 15 16  1  0  0  0  0
 16 17  4  0  0  0  0
 16 21  4  0  0  0  0
 17 18  4  0  0  0  0
 18 19  4  0  0  0  0
 19 20  4  0  0  0  0
 19 22  1  0  0  0  0
 20 21  4  0  0  0  0
 22 23  4  0  0  0  0
 22 27  4  0  0  0  0
 23 24  4  0  0  0  0
 24 25  4  0  0  0  0
 25 26  4  0  0  0  0
 26 27  4  0  0  0  0
M  END
>  <Name_Molregno>
364105

>  <HISTAMINE H3>
8.43

$$$$
364112
  Marvin  02231216192D 0   1.00000     0.00000     0

 25 27  0  0  1  0  0  0  0  0999 V2000
    7.6150    1.9719    0.0000 F   0  0  0  0  0  0  0  0  0
    6.9006    1.5594    0.0000 C   0  0  0  0  0  0  0  0  0
    6.4881    2.2738    0.0000 F   0  0  0  0  0  0  0  0  0
    7.3131    0.8449    0.0000 F   0  0  0  0  0  0  0  0  0
    6.1861    1.1469    0.0000 C   0  0  0  0  0  0  0  0  0
    6.1861    0.3219    0.0000 C   0  0  0  0  0  0  0  0  0
    5.4716   -0.0906    0.0000 C   0  0  0  0  0  0  0  0  0
    4.7572    0.3219    0.0000 C   0  0  0  0  0  0  0  0  0
    4.7572    1.1469    0.0000 C   0  0  0  0  0  0  0  0  0
    5.4716    1.5594    0.0000 C   0  0  0  0  0  0  0  0  0
    4.0427   -0.0906    0.0000 C   0  0  0  0  0  0  0  0  0
    4.0427   -0.9156    0.0000 N   0  0  0  0  0  0  0  0  0
    3.3282   -1.3281    0.0000 C   0  0  0  0  0  0  0  0  0
    2.6137   -0.9156    0.0000 O   0  0  0  0  0  0  0  0  0
    3.3282   -2.1531    0.0000 N   0  0  0  0  0  0  0  0  0
    3.9957   -2.6381    0.0000 C   0  0  0  0  0  0  0  0  0
    3.7407   -3.4227    0.0000 C   0  0  0  0  0  0  0  0  0
    2.9157   -3.4227    0.0000 C   0  0  0  0  0  0  0  0  0
    2.6608   -2.6381    0.0000 C   0  0  0  0  0  0  0  0  0
    1.8762   -2.3831    0.0000 C   0  0  0  0  0  0  0  0  0
    1.7046   -1.5762    0.0000 N   0  0  0  0  0  0  0  0  0
    0.9510   -1.2406    0.0000 C   0  0  0  0  0  0  0  0  0
    1.0372   -0.4201    0.0000 C   0  0  0  0  0  0  0  0  0
    1.8442   -0.2486    0.0000 C   0  0  0  0  0  0  0  0  0
    2.2567   -0.9631    0.0000 C   0  0  0  0  0  0  0  0  0
  1  2  1  0  0  0  0
  2  3  1  0  0  0  0
  2  4  1  0  0  0  0
  2  5  1  0  0  0  0
  5  6  4  0  0  0  0
  5 10  4  0  0  0  0
  6  7  4  0  0  0  0
  7  8  4  0  0  0  0
  8  9  4  0  0  0  0
  8 11  1  0  0  0  0
  9 10  4  0  0  0  0
 11 12  1  0  0  0  0
 12 13  1  0  0  0  0
 13 14  2  0  0  0  0
 13 15  1  0  0  0  0
 15 16  1  0  0  0  0
 15 19  1  0  0  0  0
 16 17  1  0  0  0  0
 17 18  1  0  0  0  0
 18 19  1  0  0  0  0
 19 20  1  0  0  0  0
 20 21  1  0  0  0  0
 21 22  1  0  0  0  0
 21 25  1  0  0  0  0
 22 23  1  0  0  0  0
 23 24  1  0  0  0  0
 24 25  1  0  0  0  0
M  END
>  <Name_Molregno>
364112

>  <HISTAMINE H3>
6.79

$$$$
364113
  Marvin  02231216192D 0   1.00000     0.00000     0

 22 24  0  0  1  0  0  0  0  0999 V2000
    7.6200    1.6061    0.0000 Cl  0  0  0  0  0  0  0  0  0
    6.9055    1.1936    0.0000 C   0  0  0  0  0  0  0  0  0
    6.9055    0.3686    0.0000 C   0  0  0  0  0  0  0  0  0
    6.1910   -0.0439    0.0000 C   0  0  0  0  0  0  0  0  0
    5.4765    0.3686    0.0000 C   0  0  0  0  0  0  0  0  0
    5.4765    1.1936    0.0000 C   0  0  0  0  0  0  0  0  0
    6.1910    1.6061    0.0000 C   0  0  0  0  0  0  0  0  0
    4.7621   -0.0439    0.0000 C   0  0  0  0  0  0  0  0  0
    4.7621   -0.8689    0.0000 N   0  0  0  0  0  0  0  0  0
    4.0476   -1.2814    0.0000 C   0  0  0  0  0  0  0  0  0
    3.3331   -0.8689    0.0000 O   0  0  0  0  0  0  0  0  0
    4.0476   -2.1064    0.0000 N   0  0  0  0  0  0  0  0  0
    4.7150   -2.5913    0.0000 C   0  0  0  0  0  0  0  0  0
    4.4601   -3.3760    0.0000 C   0  0  0  0  0  0  0  0  0
    3.6351   -3.3760    0.0000 C   0  0  0  0  0  0  0  0  0
    3.3802   -2.5913    0.0000 C   0  0  0  0  0  0  0  0  0
    2.5955   -2.3364    0.0000 C   0  0  0  0  0  0  0  0  0
    2.4240   -1.5294    0.0000 N   0  0  0  0  0  0  0  0  0
    1.6703   -1.1939    0.0000 C   0  0  0  0  0  0  0  0  0
    1.7566   -0.3734    0.0000 C   0  0  0  0  0  0  0  0  0
    2.5635   -0.2019    0.0000 C   0  0  0  0  0  0  0  0  0
    2.9760   -0.9163    0.0000 C   0  0  0  0  0  0  0  0  0
  1  2  1  0  0  0  0
  2  3  4  0  0  0  0
  2  7  4  0  0  0  0
  3  4  4  0  0  0  0
  4  5  4  0  0  0  0
  5  6  4  0  0  0  0
  5  8  1  0  0  0  0
  6  7  4  0  0  0  0
  8  9  1  0  0  0  0
  9 10  1  0  0  0  0
 10 11  2  0  0  0  0
 10 12  1  0  0  0  0
 12 13  1  0  0  0  0
 12 16  1  0  0  0  0
 13 14  1  0  0  0  0
 14 15  1  0  0  0  0
 15 16  1  0  0  0  0
 16 17  1  0  0  0  0
 17 18  1  0  0  0  0
 18 19  1  0  0  0  0
 18 22  1  0  0  0  0
 19 20  1  0  0  0  0
 20 21  1  0  0  0  0
 21 22  1  0  0  0  0
M  END
>  <Name_Molregno>
364113

>  <HISTAMINE H3>
6.78

$$$$
364120
  Marvin  02231216192D 0   1.00000     0.00000     0

 26 28  0  0  1  0  0  0  0  0999 V2000
   -0.6948    3.1751    0.0000 F   0  0  0  0  0  0  0  0  0
   -0.6948    2.3501    0.0000 C   0  0  0  0  0  0  0  0  0
   -1.5198    2.3501    0.0000 F   0  0  0  0  0  0  0  0  0
    0.1302    2.3501    0.0000 F   0  0  0  0  0  0  0  0  0
   -0.6948    1.5251    0.0000 O   0  0  0  0  0  0  0  0  0
   -1.4092    1.1126    0.0000 C   0  0  0  0  0  0  0  0  0
   -1.4092    0.2876    0.0000 C   0  0  0  0  0  0  0  0  0
   -2.1237   -0.1249    0.0000 C   0  0  0  0  0  0  0  0  0
   -2.8382    0.2876    0.0000 C   0  0  0  0  0  0  0  0  0
   -2.8382    1.1126    0.0000 C   0  0  0  0  0  0  0  0  0
   -2.1237    1.5251    0.0000 C   0  0  0  0  0  0  0  0  0
   -3.5526   -0.1249    0.0000 C   0  0  0  0  0  0  0  0  0
   -3.5526   -0.9499    0.0000 N   0  0  0  0  0  0  0  0  0
   -4.2671   -1.3624    0.0000 C   0  0  0  0  0  0  0  0  0
   -4.9816   -0.9499    0.0000 O   0  0  0  0  0  0  0  0  0
   -4.2671   -2.1874    0.0000 N   0  0  0  0  0  0  0  0  0
   -3.5997   -2.6723    0.0000 C   0  0  0  0  0  0  0  0  0
   -3.8546   -3.4569    0.0000 C   0  0  0  0  0  0  0  0  0
   -4.6796   -3.4569    0.0000 C   0  0  0  0  0  0  0  0  0
   -4.9345   -2.6723    0.0000 C   0  0  0  0  0  0  0  0  0
   -5.7192   -2.4174    0.0000 C   0  0  0  0  0  0  0  0  0
   -6.3323   -2.9694    0.0000 N   0  0  0  0  0  0  0  0  0
   -6.2460   -3.7899    0.0000 C   0  0  0  0  0  0  0  0  0
   -6.9997   -4.1254    0.0000 C   0  0  0  0  0  0  0  0  0
   -7.5517   -3.5123    0.0000 C   0  0  0  0  0  0  0  0  0
   -7.1392   -2.7979    0.0000 C   0  0  0  0  0  0  0  0  0
  1  2  1  0  0  0  0
  2  3  1  0  0  0  0
  2  4  1  0  0  0  0
  2  5  1  0  0  0  0
  5  6  1  0  0  0  0
  6  7  4  0  0  0  0
  6 11  4  0  0  0  0
  7  8  4  0  0  0  0
  8  9  4  0  0  0  0
  9 10  4  0  0  0  0
  9 12  1  0  0  0  0
 10 11  4  0  0  0  0
 12 13  1  0  0  0  0
 13 14  1  0  0  0  0
 14 15  2  0  0  0  0
 14 16  1  0  0  0  0
 16 17  1  0  0  0  0
 16 20  1  0  0  0  0
 17 18  1  0  0  0  0
 18 19  1  0  0  0  0
 19 20  1  0  0  0  0
 20 21  1  0  0  0  0
 21 22  1  0  0  0  0
 22 23  1  0  0  0  0
 22 26  1  0  0  0  0
 23 24  1  0  0  0  0
 24 25  1  0  0  0  0
 25 26  1  0  0  0  0
M  END
>  <Name_Molregno>
364120

>  <HISTAMINE H3>
6.92

$$$$
364121
  Marvin  02231216192D 0   1.00000     0.00000     0

 27 30  0  0  1  0  0  0  0  0999 V2000
   -3.2390   -1.2926    0.0000 O   0  0  0  0  0  0  0  0  0
   -2.5246   -1.7051    0.0000 C   0  0  0  0  0  0  0  0  0
   -1.8101   -1.2926    0.0000 N   0  0  0  0  0  0  0  0  0
   -1.8101   -0.4676    0.0000 C   0  0  0  0  0  0  0  0  0
   -1.0956   -0.0551    0.0000 C   0  0  0  0  0  0  0  0  0
   -1.0956    0.7699    0.0000 C   0  0  0  0  0  0  0  0  0
   -0.3812    1.1824    0.0000 C   0  0  0  0  0  0  0  0  0
    0.3333    0.7699    0.0000 C   0  0  0  0  0  0  0  0  0
    0.3333   -0.0551    0.0000 C   0  0  0  0  0  0  0  0  0
   -0.3812   -0.4676    0.0000 C   0  0  0  0  0  0  0  0  0
    1.0478    1.1824    0.0000 C   0  0  0  0  0  0  0  0  0
    1.0478    2.0074    0.0000 C   0  0  0  0  0  0  0  0  0
    1.7623    2.4199    0.0000 C   0  0  0  0  0  0  0  0  0
    2.4767    2.0074    0.0000 C   0  0  0  0  0  0  0  0  0
    2.4767    1.1824    0.0000 C   0  0  0  0  0  0  0  0  0
    1.7623    0.7699    0.0000 C   0  0  0  0  0  0  0  0  0
   -2.5246   -2.5301    0.0000 N   0  0  0  0  0  0  0  0  0
   -1.8571   -3.0150    0.0000 C   0  0  0  0  0  0  0  0  0
   -2.1121   -3.7997    0.0000 C   0  0  0  0  0  0  0  0  0
   -2.9371   -3.7997    0.0000 C   0  0  0  0  0  0  0  0  0
   -3.1920   -3.0150    0.0000 C   0  0  0  0  0  0  0  0  0
   -3.9766   -2.7601    0.0000 C   0  0  0  0  0  0  0  0  0
   -4.1482   -1.9531    0.0000 N   0  0  0  0  0  0  0  0  0
   -4.9018   -1.6176    0.0000 C   0  0  0  0  0  0  0  0  0
   -4.8156   -0.7971    0.0000 C   0  0  0  0  0  0  0  0  0
   -4.0086   -0.6256    0.0000 C   0  0  0  0  0  0  0  0  0
   -3.5961   -1.3400    0.0000 C   0  0  0  0  0  0  0  0  0
  1  2  2  0  0  0  0
  2  3  1  0  0  0  0
  2 17  1  0  0  0  0
  3  4  1  0  0  0  0
  4  5  1  0  0  0  0
  5  6  4  0  0  0  0
  5 10  4  0  0  0  0
  6  7  4  0  0  0  0
  7  8  4  0  0  0  0
  8  9  4  0  0  0  0
  8 11  1  0  0  0  0
  9 10  4  0  0  0  0
 11 12  4  0  0  0  0
 11 16  4  0  0  0  0
 12 13  4  0  0  0  0
 13 14  4  0  0  0  0
 14 15  4  0  0  0  0
 15 16  4  0  0  0  0
 17 18  1  0  0  0  0
 17 21  1  0  0  0  0
 18 19  1  0  0  0  0
 19 20  1  0  0  0  0
 20 21  1  0  0  0  0
 21 22  1  0  0  0  0
 22 23  1  0  0  0  0
 23 24  1  0  0  0  0
 23 27  1  0  0  0  0
 24 25  1  0  0  0  0
 25 26  1  0  0  0  0
 26 27  1  0  0  0  0
M  END
>  <Name_Molregno>
364121

>  <HISTAMINE H3>
7.06

$$$$
364129
  Marvin  02231216192D 0   1.00000     0.00000     0

 21 23  0  0  1  0  0  0  0  0999 V2000
   -0.6085   -0.8289    0.0000 O   0  0  0  0  0  0  0  0  0
    0.1059   -1.2414    0.0000 C   0  0  0  0  0  0  0  0  0
    0.8204   -0.8289    0.0000 N   0  0  0  0  0  0  0  0  0
    0.8204   -0.0039    0.0000 C   0  0  0  0  0  0  0  0  0
    1.5349    0.4086    0.0000 C   0  0  0  0  0  0  0  0  0
    1.5349    1.2336    0.0000 C   0  0  0  0  0  0  0  0  0
    2.2494    1.6461    0.0000 C   0  0  0  0  0  0  0  0  0
    2.9638    1.2336    0.0000 C   0  0  0  0  0  0  0  0  0
    2.9638    0.4086    0.0000 C   0  0  0  0  0  0  0  0  0
    2.2494   -0.0039    0.0000 C   0  0  0  0  0  0  0  0  0
    0.1059   -2.0664    0.0000 N   0  0  0  0  0  0  0  0  0
    0.7734   -2.5513    0.0000 C   0  0  0  0  0  0  0  0  0
    0.5184   -3.3359    0.0000 C   0  0  0  0  0  0  0  0  0
   -0.3066   -3.3359    0.0000 C   0  0  0  0  0  0  0  0  0
   -0.5615   -2.5513    0.0000 C   0  0  0  0  0  0  0  0  0
   -1.3461   -2.2964    0.0000 C   0  0  0  0  0  0  0  0  0
   -1.5176   -1.4894    0.0000 N   0  0  0  0  0  0  0  0  0
   -2.2713   -1.1538    0.0000 C   0  0  0  0  0  0  0  0  0
   -2.1851   -0.3333    0.0000 C   0  0  0  0  0  0  0  0  0
   -1.3781   -0.1618    0.0000 C   0  0  0  0  0  0  0  0  0
   -0.9656   -0.8763    0.0000 C   0  0  0  0  0  0  0  0  0
  1  2  2  0  0  0  0
  2  3  1  0  0  0  0
  2 11  1  0  0  0  0
  3  4  1  0  0  0  0
  4  5  1  0  0  0  0
  5  6  1  0  0  0  0
  5 10  1  0  0  0  0
  6  7  1  0  0  0  0
  7  8  1  0  0  0  0
  8  9  1  0  0  0  0
  9 10  1  0  0  0  0
 11 12  1  0  0  0  0
 11 15  1  0  0  0  0
 12 13  1  0  0  0  0
 13 14  1  0  0  0  0
 14 15  1  0  0  0  0
 15 16  1  0  0  0  0
 16 17  1  0  0  0  0
 17 18  1  0  0  0  0
 17 21  1  0  0  0  0
 18 19  1  0  0  0  0
 19 20  1  0  0  0  0
 20 21  1  0  0  0  0
M  END
>  <Name_Molregno>
364129

>  <HISTAMINE H3>
6.53

$$$$
364130
  Marvin  02231216192D 0   1.00000     0.00000     0

 23 25  0  0  1  0  0  0  0  0999 V2000
    7.4444    3.5502    0.0000 O   0  0  0  0  0  0  0  0  0
    7.4444    4.3752    0.0000 C   0  0  0  0  0  0  0  0  0
    6.7300    3.1377    0.0000 C   0  0  0  0  0  0  0  0  0
    6.7300    2.3127    0.0000 C   0  0  0  0  0  0  0  0  0
    6.0155    1.9002    0.0000 C   0  0  0  0  0  0  0  0  0
    5.3010    2.3127    0.0000 C   0  0  0  0  0  0  0  0  0
    5.3010    3.1377    0.0000 C   0  0  0  0  0  0  0  0  0
    6.0155    3.5502    0.0000 C   0  0  0  0  0  0  0  0  0
    4.5865    1.9002    0.0000 C   0  0  0  0  0  0  0  0  0
    4.5865    1.0752    0.0000 N   0  0  0  0  0  0  0  0  0
    3.8721    0.6627    0.0000 C   0  0  0  0  0  0  0  0  0
    3.1576    1.0752    0.0000 O   0  0  0  0  0  0  0  0  0
    3.8721   -0.1623    0.0000 N   0  0  0  0  0  0  0  0  0
    4.5395   -0.6472    0.0000 C   0  0  0  0  0  0  0  0  0
    4.2846   -1.4318    0.0000 C   0  0  0  0  0  0  0  0  0
    3.4596   -1.4318    0.0000 C   0  0  0  0  0  0  0  0  0
    3.2046   -0.6472    0.0000 C   0  0  0  0  0  0  0  0  0
    2.4200   -0.3923    0.0000 C   0  0  0  0  0  0  0  0  0
    1.8069   -0.9443    0.0000 N   0  0  0  0  0  0  0  0  0
    1.8932   -1.7648    0.0000 C   0  0  0  0  0  0  0  0  0
    1.1395   -2.1003    0.0000 C   0  0  0  0  0  0  0  0  0
    0.5875   -1.4872    0.0000 C   0  0  0  0  0  0  0  0  0
    1.0000   -0.7728    0.0000 C   0  0  0  0  0  0  0  0  0
  1  2  1  0  0  0  0
  1  3  1  0  0  0  0
  3  4  4  0  0  0  0
  3  8  4  0  0  0  0
  4  5  4  0  0  0  0
  5  6  4  0  0  0  0
  6  7  4  0  0  0  0
  6  9  1  0  0  0  0
  7  8  4  0  0  0  0
  9 10  1  0  0  0  0
 10 11  1  0  0  0  0
 11 12  2  0  0  0  0
 11 13  1  0  0  0  0
 13 14  1  0  0  0  0
 13 17  1  0  0  0  0
 14 15  1  0  0  0  0
 15 16  1  0  0  0  0
 16 17  1  0  0  0  0
 17 18  1  0  0  0  0
 18 19  1  0  0  0  0
 19 20  1  0  0  0  0
 19 23  1  0  0  0  0
 20 21  1  0  0  0  0
 21 22  1  0  0  0  0
 22 23  1  0  0  0  0
M  END
>  <Name_Molregno>
364130

>  <HISTAMINE H3>
6.53

$$$$
364131
  Marvin  02231216192D 0   1.00000     0.00000     0

 23 25  0  0  1  0  0  0  0  0999 V2000
   -0.7033    1.2232    0.0000 O   0  0  0  0  0  0  0  0  0
    0.0112    1.6357    0.0000 C   0  0  0  0  0  0  0  0  0
   -1.4177    1.6357    0.0000 C   0  0  0  0  0  0  0  0  0
   -2.1322    1.2232    0.0000 C   0  0  0  0  0  0  0  0  0
   -2.8467    1.6357    0.0000 C   0  0  0  0  0  0  0  0  0
   -2.8467    2.4607    0.0000 C   0  0  0  0  0  0  0  0  0
   -2.1322    2.8732    0.0000 C   0  0  0  0  0  0  0  0  0
   -1.4177    2.4607    0.0000 C   0  0  0  0  0  0  0  0  0
   -3.5611    1.2232    0.0000 C   0  0  0  0  0  0  0  0  0
   -3.5611    0.3982    0.0000 N   0  0  0  0  0  0  0  0  0
   -4.2756   -0.0143    0.0000 C   0  0  0  0  0  0  0  0  0
   -4.9901    0.3982    0.0000 O   0  0  0  0  0  0  0  0  0
   -4.2756   -0.8393    0.0000 N   0  0  0  0  0  0  0  0  0
   -3.6082   -1.3243    0.0000 C   0  0  0  0  0  0  0  0  0
   -3.8631   -2.1089    0.0000 C   0  0  0  0  0  0  0  0  0
   -4.6881   -2.1089    0.0000 C   0  0  0  0  0  0  0  0  0
   -4.9431   -1.3243    0.0000 C   0  0  0  0  0  0  0  0  0
   -5.7277   -1.0693    0.0000 C   0  0  0  0  0  0  0  0  0
   -6.3408   -1.6214    0.0000 N   0  0  0  0  0  0  0  0  0
   -6.2545   -2.4418    0.0000 C   0  0  0  0  0  0  0  0  0
   -7.0082   -2.7774    0.0000 C   0  0  0  0  0  0  0  0  0
   -7.5602   -2.1643    0.0000 C   0  0  0  0  0  0  0  0  0
   -7.1477   -1.4498    0.0000 C   0  0  0  0  0  0  0  0  0
  1  2  1  0  0  0  0
  1  3  1  0  0  0  0
  3  4  4  0  0  0  0
  3  8  4  0  0  0  0
  4  5  4  0  0  0  0
  5  6  4  0  0  0  0
  5  9  1  0  0  0  0
  6  7  4  0  0  0  0
  7  8  4  0  0  0  0
  9 10  1  0  0  0  0
 10 11  1  0  0  0  0
 11 12  2  0  0  0  0
 11 13  1  0  0  0  0
 13 14  1  0  0  0  0
 13 17  1  0  0  0  0
 14 15  1  0  0  0  0
 15 16  1  0  0  0  0
 16 17  1  0  0  0  0
 17 18  1  0  0  0  0
 18 19  1  0  0  0  0
 19 20  1  0  0  0  0
 19 23  1  0  0  0  0
 20 21  1  0  0  0  0
 21 22  1  0  0  0  0
 22 23  1  0  0  0  0
M  END
>  <Name_Molregno>
364131

>  <HISTAMINE H3>
6.73

$$$$
364138
  Marvin  02231216192D 0   1.00000     0.00000     0

 25 27  0  0  1  0  0  0  0  0999 V2000
    0.3330   -0.5276    0.0000 F   0  0  0  0  0  0  0  0  0
   -0.3815   -0.1151    0.0000 C   0  0  0  0  0  0  0  0  0
    0.0310    0.5994    0.0000 F   0  0  0  0  0  0  0  0  0
   -0.7940   -0.8296    0.0000 F   0  0  0  0  0  0  0  0  0
   -1.0960    0.2974    0.0000 C   0  0  0  0  0  0  0  0  0
   -1.8104   -0.1151    0.0000 C   0  0  0  0  0  0  0  0  0
   -2.5249    0.2974    0.0000 C   0  0  0  0  0  0  0  0  0
   -2.5249    1.1224    0.0000 C   0  0  0  0  0  0  0  0  0
   -1.8104    1.5349    0.0000 C   0  0  0  0  0  0  0  0  0
   -1.0960    1.1224    0.0000 C   0  0  0  0  0  0  0  0  0
   -3.2394   -0.1151    0.0000 C   0  0  0  0  0  0  0  0  0
   -3.2394   -0.9401    0.0000 N   0  0  0  0  0  0  0  0  0
   -3.9538   -1.3526    0.0000 C   0  0  0  0  0  0  0  0  0
   -4.6683   -0.9401    0.0000 O   0  0  0  0  0  0  0  0  0
   -3.9538   -2.1776    0.0000 N   0  0  0  0  0  0  0  0  0
   -3.2864   -2.6625    0.0000 C   0  0  0  0  0  0  0  0  0
   -3.5413   -3.4472    0.0000 C   0  0  0  0  0  0  0  0  0
   -4.3663   -3.4472    0.0000 C   0  0  0  0  0  0  0  0  0
   -4.6213   -2.6625    0.0000 C   0  0  0  0  0  0  0  0  0
   -5.4059   -2.4076    0.0000 C   0  0  0  0  0  0  0  0  0
   -5.5774   -1.6006    0.0000 N   0  0  0  0  0  0  0  0  0
   -6.3311   -1.2651    0.0000 C   0  0  0  0  0  0  0  0  0
   -6.2449   -0.4446    0.0000 C   0  0  0  0  0  0  0  0  0
   -5.4379   -0.2731    0.0000 C   0  0  0  0  0  0  0  0  0
   -5.0254   -0.9875    0.0000 C   0  0  0  0  0  0  0  0  0
  1  2  1  0  0  0  0
  2  3  1  0  0  0  0
  2  4  1  0  0  0  0
  2  5  1  0  0  0  0
  5  6  4  0  0  0  0
  5 10  4  0  0  0  0
  6  7  4  0  0  0  0
  7  8  4  0  0  0  0
  7 11  1  0  0  0  0
  8  9  4  0  0  0  0
  9 10  4  0  0  0  0
 11 12  1  0  0  0  0
 12 13  1  0  0  0  0
 13 14  2  0  0  0  0
 13 15  1  0  0  0  0
 15 16  1  0  0  0  0
 15 19  1  0  0  0  0
 16 17  1  0  0  0  0
 17 18  1  0  0  0  0
 18 19  1  0  0  0  0
 19 20  1  0  0  0  0
 20 21  1  0  0  0  0
 21 22  1  0  0  0  0
 21 25  1  0  0  0  0
 22 23  1  0  0  0  0
 23 24  1  0  0  0  0
 24 25  1  0  0  0  0
M  END
>  <Name_Molregno>
364138

>  <HISTAMINE H3>
6.93

$$$$
364139
  Marvin  02231216192D 0   1.00000     0.00000     0

 23 25  0  0  1  0  0  0  0  0999 V2000
   -1.5207   -0.3933    0.0000 O   0  0  0  0  0  0  0  0  0
   -0.8062   -0.8058    0.0000 C   0  0  0  0  0  0  0  0  0
   -0.0918   -0.3933    0.0000 N   0  0  0  0  0  0  0  0  0
   -0.0918    0.4317    0.0000 C   0  0  0  0  0  0  0  0  0
    0.6227    0.8442    0.0000 C   0  0  0  0  0  0  0  0  0
    0.6227    1.6692    0.0000 C   0  0  0  0  0  0  0  0  0
    1.3372    2.0817    0.0000 C   0  0  0  0  0  0  0  0  0
    2.0517    1.6692    0.0000 C   0  0  0  0  0  0  0  0  0
    2.0517    0.8442    0.0000 C   0  0  0  0  0  0  0  0  0
    1.3372    0.4317    0.0000 C   0  0  0  0  0  0  0  0  0
    1.3372    2.9067    0.0000 C   0  0  0  0  0  0  0  0  0
    2.0517    3.3192    0.0000 N   0  0  0  0  0  0  0  0  0
   -0.8062   -1.6308    0.0000 N   0  0  0  0  0  0  0  0  0
   -0.1388   -2.1157    0.0000 C   0  0  0  0  0  0  0  0  0
   -0.3937   -2.9003    0.0000 C   0  0  0  0  0  0  0  0  0
   -1.2187   -2.9003    0.0000 C   0  0  0  0  0  0  0  0  0
   -1.4737   -2.1157    0.0000 C   0  0  0  0  0  0  0  0  0
   -2.2583   -1.8607    0.0000 C   0  0  0  0  0  0  0  0  0
   -2.8714   -2.4128    0.0000 N   0  0  0  0  0  0  0  0  0
   -2.7851   -3.2333    0.0000 C   0  0  0  0  0  0  0  0  0
   -3.5388   -3.5688    0.0000 C   0  0  0  0  0  0  0  0  0
   -4.0908   -2.9557    0.0000 C   0  0  0  0  0  0  0  0  0
   -3.6783   -2.2413    0.0000 C   0  0  0  0  0  0  0  0  0
  1  2  2  0  0  0  0
  2  3  1  0  0  0  0
  2 13  1  0  0  0  0
  3  4  1  0  0  0  0
  4  5  1  0  0  0  0
  5  6  4  0  0  0  0
  5 10  4  0  0  0  0
  6  7  4  0  0  0  0
  7  8  4  0  0  0  0
  7 11  1  0  0  0  0
  8  9  4  0  0  0  0
  9 10  4  0  0  0  0
 11 12  1  0  0  0  0
 13 14  1  0  0  0  0
 13 17  1  0  0  0  0
 14 15  1  0  0  0  0
 15 16  1  0  0  0  0
 16 17  1  0  0  0  0
 17 18  1  0  0  0  0
 18 19  1  0  0  0  0
 19 20  1  0  0  0  0
 19 23  1  0  0  0  0
 20 21  1  0  0  0  0
 21 22  1  0  0  0  0
 22 23  1  0  0  0  0
M  END
>  <Name_Molregno>
364139

>  <HISTAMINE H3>
7.11

$$$$
364140
  Marvin  02231216192D 0   1.00000     0.00000     0

 23 25  0  0  1  0  0  0  0  0999 V2000
   -1.6949   -0.3787    0.0000 O   0  0  0  0  0  0  0  0  0
   -0.9804   -0.7912    0.0000 C   0  0  0  0  0  0  0  0  0
   -0.2659   -0.3787    0.0000 N   0  0  0  0  0  0  0  0  0
   -0.2659    0.4463    0.0000 C   0  0  0  0  0  0  0  0  0
    0.4485    0.8588    0.0000 C   0  0  0  0  0  0  0  0  0
    0.4485    1.6838    0.0000 C   0  0  0  0  0  0  0  0  0
    1.1630    2.0963    0.0000 C   0  0  0  0  0  0  0  0  0
    1.8775    1.6838    0.0000 C   0  0  0  0  0  0  0  0  0
    1.8775    0.8588    0.0000 C   0  0  0  0  0  0  0  0  0
    1.1630    0.4463    0.0000 C   0  0  0  0  0  0  0  0  0
    2.5919    2.0963    0.0000 C   0  0  0  0  0  0  0  0  0
    3.3064    1.6838    0.0000 N   0  0  0  0  0  0  0  0  0
   -0.9804   -1.6162    0.0000 N   0  0  0  0  0  0  0  0  0
   -0.3130   -2.1011    0.0000 C   0  0  0  0  0  0  0  0  0
   -0.5679   -2.8857    0.0000 C   0  0  0  0  0  0  0  0  0
   -1.3929   -2.8857    0.0000 C   0  0  0  0  0  0  0  0  0
   -1.6479   -2.1011    0.0000 C   0  0  0  0  0  0  0  0  0
   -2.4325   -1.8462    0.0000 C   0  0  0  0  0  0  0  0  0
   -3.0456   -2.3982    0.0000 N   0  0  0  0  0  0  0  0  0
   -2.9593   -3.2187    0.0000 C   0  0  0  0  0  0  0  0  0
   -3.7130   -3.5542    0.0000 C   0  0  0  0  0  0  0  0  0
   -4.2650   -2.9411    0.0000 C   0  0  0  0  0  0  0  0  0
   -3.8525   -2.2267    0.0000 C   0  0  0  0  0  0  0  0  0
  1  2  2  0  0  0  0
  2  3  1  0  0  0  0
  2 13  1  0  0  0  0
  3  4  1  0  0  0  0
  4  5  1  0  0  0  0
  5  6  4  0  0  0  0
  5 10  4  0  0  0  0
  6  7  4  0  0  0  0
  7  8  4  0  0  0  0
  8  9  4  0  0  0  0
  8 11  1  0  0  0  0
  9 10  4  0  0  0  0
 11 12  1  0  0  0  0
 13 14  1  0  0  0  0
 13 17  1  0  0  0  0
 14 15  1  0  0  0  0
 15 16  1  0  0  0  0
 16 17  1  0  0  0  0
 17 18  1  0  0  0  0
 18 19  1  0  0  0  0
 19 20  1  0  0  0  0
 19 23  1  0  0  0  0
 20 21  1  0  0  0  0
 21 22  1  0  0  0  0
 22 23  1  0  0  0  0
M  END
>  <Name_Molregno>
364140

>  <HISTAMINE H3>
6.96

$$$$
364147
  Marvin  02231216192D 0   1.00000     0.00000     0

 28 31  0  0  1  0  0  0  0  0999 V2000
    4.9336    2.1452    0.0000 O   0  0  0  0  0  0  0  0  0
    4.2191    1.7327    0.0000 C   0  0  0  0  0  0  0  0  0
    4.2191    0.9077    0.0000 C   0  0  0  0  0  0  0  0  0
    3.5047    0.4952    0.0000 C   0  0  0  0  0  0  0  0  0
    2.7902    0.9077    0.0000 C   0  0  0  0  0  0  0  0  0
    2.7902    1.7327    0.0000 C   0  0  0  0  0  0  0  0  0
    3.5047    2.1452    0.0000 C   0  0  0  0  0  0  0  0  0
    2.0757    0.4952    0.0000 C   0  0  0  0  0  0  0  0  0
    2.0757   -0.3298    0.0000 N   0  0  0  0  0  0  0  0  0
    2.7902   -0.7423    0.0000 C   0  0  0  0  0  0  0  0  0
    3.5047   -0.3298    0.0000 O   0  0  0  0  0  0  0  0  0
    2.7902   -1.5673    0.0000 N   0  0  0  0  0  0  0  0  0
    3.4576   -2.0523    0.0000 C   0  0  0  0  0  0  0  0  0
    3.2027   -2.8369    0.0000 C   0  0  0  0  0  0  0  0  0
    2.3777   -2.8369    0.0000 C   0  0  0  0  0  0  0  0  0
    2.1228   -2.0523    0.0000 C   0  0  0  0  0  0  0  0  0
    1.3381   -1.7973    0.0000 C   0  0  0  0  0  0  0  0  0
    0.7250   -2.3493    0.0000 N   0  0  0  0  0  0  0  0  0
    0.8113   -3.1698    0.0000 C   0  0  0  0  0  0  0  0  0
    0.0576   -3.5054    0.0000 C   0  0  0  0  0  0  0  0  0
   -0.4944   -2.8923    0.0000 C   0  0  0  0  0  0  0  0  0
   -0.0819   -2.1778    0.0000 C   0  0  0  0  0  0  0  0  0
    5.6481    1.7327    0.0000 C   0  0  0  0  0  0  0  0  0
    6.3625    2.1452    0.0000 C   0  0  0  0  0  0  0  0  0
    7.0770    1.7327    0.0000 C   0  0  0  0  0  0  0  0  0
    7.0770    0.9077    0.0000 C   0  0  0  0  0  0  0  0  0
    6.3625    0.4952    0.0000 C   0  0  0  0  0  0  0  0  0
    5.6481    0.9077    0.0000 C   0  0  0  0  0  0  0  0  0
  1  2  1  0  0  0  0
  1 23  1  0  0  0  0
  2  3  4  0  0  0  0
  2  7  4  0  0  0  0
  3  4  4  0  0  0  0
  4  5  4  0  0  0  0
  5  6  4  0  0  0  0
  5  8  1  0  0  0  0
  6  7  4  0  0  0  0
  8  9  1  0  0  0  0
  9 10  1  0  0  0  0
 10 11  2  0  0  0  0
 10 12  1  0  0  0  0
 12 13  1  0  0  0  0
 12 16  1  0  0  0  0
 13 14  1  0  0  0  0
 14 15  1  0  0  0  0
 15 16  1  0  0  0  0
 16 17  1  0  0  0  0
 17 18  1  0  0  0  0
 18 19  1  0  0  0  0
 18 22  1  0  0  0  0
 19 20  1  0  0  0  0
 20 21  1  0  0  0  0
 21 22  1  0  0  0  0
 23 24  4  0  0  0  0
 23 28  4  0  0  0  0
 24 25  4  0  0  0  0
 25 26  4  0  0  0  0
 26 27  4  0  0  0  0
 27 28  4  0  0  0  0
M  END
>  <Name_Molregno>
364147

>  <HISTAMINE H3>
7.47

$$$$
364148
  Marvin  02231216192D 0   1.00000     0.00000     0

 23 25  0  0  1  0  0  0  0  0999 V2000
    7.1176    0.5416    0.0000 Cl  0  0  0  0  0  0  0  0  0
    6.4031    0.9541    0.0000 C   0  0  0  0  0  0  0  0  0
    5.6886    0.5416    0.0000 C   0  0  0  0  0  0  0  0  0
    4.9741    0.9541    0.0000 C   0  0  0  0  0  0  0  0  0
    4.9741    1.7791    0.0000 C   0  0  0  0  0  0  0  0  0
    5.6886    2.1916    0.0000 C   0  0  0  0  0  0  0  0  0
    6.4031    1.7791    0.0000 C   0  0  0  0  0  0  0  0  0
    7.1176    2.1916    0.0000 Cl  0  0  0  0  0  0  0  0  0
    4.2597    0.5416    0.0000 C   0  0  0  0  0  0  0  0  0
    4.2597   -0.2834    0.0000 N   0  0  0  0  0  0  0  0  0
    3.5452   -0.6959    0.0000 C   0  0  0  0  0  0  0  0  0
    2.8307   -0.2834    0.0000 O   0  0  0  0  0  0  0  0  0
    3.5452   -1.5209    0.0000 N   0  0  0  0  0  0  0  0  0
    4.2126   -2.0058    0.0000 C   0  0  0  0  0  0  0  0  0
    3.9577   -2.7904    0.0000 C   0  0  0  0  0  0  0  0  0
    3.1327   -2.7904    0.0000 C   0  0  0  0  0  0  0  0  0
    2.8778   -2.0058    0.0000 C   0  0  0  0  0  0  0  0  0
    2.0931   -1.7509    0.0000 C   0  0  0  0  0  0  0  0  0
    1.9216   -0.9439    0.0000 N   0  0  0  0  0  0  0  0  0
    1.1679   -0.6083    0.0000 C   0  0  0  0  0  0  0  0  0
    1.2542    0.2121    0.0000 C   0  0  0  0  0  0  0  0  0
    2.0611    0.3837    0.0000 C   0  0  0  0  0  0  0  0  0
    2.4736   -0.3308    0.0000 C   0  0  0  0  0  0  0  0  0
  1  2  1  0  0  0  0
  2  3  4  0  0  0  0
  2  7  4  0  0  0  0
  3  4  4  0  0  0  0
  4  5  4  0  0  0  0
  4  9  1  0  0  0  0
  5  6  4  0  0  0  0
  6  7  4  0  0  0  0
  7  8  1  0  0  0  0
  9 10  1  0  0  0  0
 10 11  1  0  0  0  0
 11 12  2  0  0  0  0
 11 13  1  0  0  0  0
 13 14  1  0  0  0  0
 13 17  1  0  0  0  0
 14 15  1  0  0  0  0
 15 16  1  0  0  0  0
 16 17  1  0  0  0  0
 17 18  1  0  0  0  0
 18 19  1  0  0  0  0
 19 20  1  0  0  0  0
 19 23  1  0  0  0  0
 20 21  1  0  0  0  0
 21 22  1  0  0  0  0
 22 23  1  0  0  0  0
M  END
>  <Name_Molregno>
364148

>  <HISTAMINE H3>
7.33

$$$$
364156
  Marvin  02231216192D 0   1.00000     0.00000     0

 22 24  0  0  1  0  0  0  0  0999 V2000
   -0.1833    0.0155    0.0000 O   0  0  0  0  0  0  0  0  0
   -0.1833   -0.8095    0.0000 C   0  0  0  0  0  0  0  0  0
    0.5312   -1.2220    0.0000 N   0  0  0  0  0  0  0  0  0
    1.2457   -0.8095    0.0000 C   0  0  0  0  0  0  0  0  0
    1.9602   -1.2220    0.0000 C   0  0  0  0  0  0  0  0  0
    2.6746   -0.8095    0.0000 C   0  0  0  0  0  0  0  0  0
    2.6746    0.0155    0.0000 C   0  0  0  0  0  0  0  0  0
    3.3891    0.4280    0.0000 C   0  0  0  0  0  0  0  0  0
    4.1036    0.0155    0.0000 C   0  0  0  0  0  0  0  0  0
    4.1036   -0.8095    0.0000 C   0  0  0  0  0  0  0  0  0
    3.3891   -1.2220    0.0000 C   0  0  0  0  0  0  0  0  0
   -0.8977   -1.2220    0.0000 N   0  0  0  0  0  0  0  0  0
   -0.9840   -2.0425    0.0000 C   0  0  0  0  0  0  0  0  0
   -1.7909   -2.2140    0.0000 C   0  0  0  0  0  0  0  0  0
   -2.2034   -1.4996    0.0000 C   0  0  0  0  0  0  0  0  0
   -1.6514   -0.8865    0.0000 C   0  0  0  0  0  0  0  0  0
   -1.8229   -0.0795    0.0000 C   0  0  0  0  0  0  0  0  0
   -2.6075    0.1754    0.0000 N   0  0  0  0  0  0  0  0  0
   -3.2750   -0.3095    0.0000 C   0  0  0  0  0  0  0  0  0
   -3.9424    0.1754    0.0000 C   0  0  0  0  0  0  0  0  0
   -3.6875    0.9601    0.0000 C   0  0  0  0  0  0  0  0  0
   -2.8625    0.9601    0.0000 C   0  0  0  0  0  0  0  0  0
  1  2  2  0  0  0  0
  2  3  1  0  0  0  0
  2 12  1  0  0  0  0
  3  4  1  0  0  0  0
  4  5  1  0  0  0  0
  5  6  1  0  0  0  0
  6  7  4  0  0  0  0
  6 11  4  0  0  0  0
  7  8  4  0  0  0  0
  8  9  4  0  0  0  0
  9 10  4  0  0  0  0
 10 11  4  0  0  0  0
 12 13  1  0  0  0  0
 12 16  1  0  0  0  0
 13 14  1  0  0  0  0
 14 15  1  0  0  0  0
 15 16  1  0  0  0  0
 16 17  1  0  0  0  0
 17 18  1  0  0  0  0
 18 19  1  0  0  0  0
 18 22  1  0  0  0  0
 19 20  1  0  0  0  0
 20 21  1  0  0  0  0
 21 22  1  0  0  0  0
M  END
>  <Name_Molregno>
364156

>  <HISTAMINE H3>
6.65

$$$$
364157
  Marvin  02231216192D 0   1.00000     0.00000     0

 23 26  0  0  1  0  0  0  0  0999 V2000
   -0.4286    0.1565    0.0000 O   0  0  0  0  0  0  0  0  0
   -0.8411   -0.5579    0.0000 C   0  0  0  0  0  0  0  0  0
   -0.4286   -1.2724    0.0000 N   0  0  0  0  0  0  0  0  0
    0.3964   -1.2724    0.0000 C   0  0  0  0  0  0  0  0  0
    0.8813   -1.9398    0.0000 C   0  0  0  0  0  0  0  0  0
    1.6659   -1.6849    0.0000 C   0  0  0  0  0  0  0  0  0
    1.6659   -0.8599    0.0000 C   0  0  0  0  0  0  0  0  0
    0.8813   -0.6050    0.0000 C   0  0  0  0  0  0  0  0  0
    2.3804   -0.4474    0.0000 C   0  0  0  0  0  0  0  0  0
    3.0949   -0.8599    0.0000 C   0  0  0  0  0  0  0  0  0
    3.0949   -1.6849    0.0000 C   0  0  0  0  0  0  0  0  0
    2.3804   -2.0974    0.0000 C   0  0  0  0  0  0  0  0  0
   -1.6661   -0.5579    0.0000 N   0  0  0  0  0  0  0  0  0
   -2.1510   -1.2254    0.0000 C   0  0  0  0  0  0  0  0  0
   -2.9357   -0.9704    0.0000 C   0  0  0  0  0  0  0  0  0
   -2.9357   -0.1454    0.0000 C   0  0  0  0  0  0  0  0  0
   -2.1510    0.1095    0.0000 C   0  0  0  0  0  0  0  0  0
   -1.8961    0.8941    0.0000 C   0  0  0  0  0  0  0  0  0
   -1.0891    1.0657    0.0000 N   0  0  0  0  0  0  0  0  0
   -0.7536    1.8193    0.0000 C   0  0  0  0  0  0  0  0  0
    0.0669    1.7331    0.0000 C   0  0  0  0  0  0  0  0  0
    0.2384    0.9261    0.0000 C   0  0  0  0  0  0  0  0  0
   -0.4760    0.5136    0.0000 C   0  0  0  0  0  0  0  0  0
  1  2  2  0  0  0  0
  2  3  1  0  0  0  0
  2 13  1  0  0  0  0
  3  4  1  0  0  0  0
  4  5  1  0  0  0  0
  4  8  1  0  0  0  0
  5  6  1  0  0  0  0
  6  7  4  0  0  0  0
  6 12  4  0  0  0  0
  7  8  1  0  0  0  0
  7  9  4  0  0  0  0
  9 10  4  0  0  0  0
 10 11  4  0  0  0  0
 11 12  4  0  0  0  0
 13 14  1  0  0  0  0
 13 17  1  0  0  0  0
 14 15  1  0  0  0  0
 15 16  1  0  0  0  0
 16 17  1  0  0  0  0
 17 18  1  0  0  0  0
 18 19  1  0  0  0  0
 19 20  1  0  0  0  0
 19 23  1  0  0  0  0
 20 21  1  0  0  0  0
 21 22  1  0  0  0  0
 22 23  1  0  0  0  0
M  END
>  <Name_Molregno>
364157

>  <HISTAMINE H3>
7.28

$$$$
364165
  Marvin  02231216192D 0   1.00000     0.00000     0

 21 23  0  0  0  0  0  0  0  0999 V2000
    0.2311   -0.1674    0.0000 O   0  0  0  0  0  0  0  0  0
   -0.4833   -0.5799    0.0000 C   0  0  0  0  0  0  0  0  0
   -1.1978   -0.1674    0.0000 N   0  0  0  0  0  0  0  0  0
   -1.1978    0.6576    0.0000 C   0  0  0  0  0  0  0  0  0
   -1.9123    1.0701    0.0000 C   0  0  0  0  0  0  0  0  0
   -2.6268    0.6576    0.0000 C   0  0  0  0  0  0  0  0  0
   -3.3412    1.0701    0.0000 C   0  0  0  0  0  0  0  0  0
   -3.3412    1.8951    0.0000 C   0  0  0  0  0  0  0  0  0
   -2.6268    2.3076    0.0000 C   0  0  0  0  0  0  0  0  0
   -1.9123    1.8951    0.0000 C   0  0  0  0  0  0  0  0  0
   -0.4833   -1.4049    0.0000 N   0  0  0  0  0  0  0  0  0
    0.2311   -1.8174    0.0000 C   0  0  0  0  0  0  0  0  0
    0.2311   -2.6424    0.0000 C   0  0  0  0  0  0  0  0  0
   -0.4833   -3.0549    0.0000 N   0  0  0  0  0  0  0  0  0
   -1.1978   -2.6424    0.0000 C   0  0  0  0  0  0  0  0  0
   -1.1978   -1.8174    0.0000 C   0  0  0  0  0  0  0  0  0
   -0.4833   -3.8799    0.0000 C   0  0  0  0  0  0  0  0  0
    0.1841   -4.3648    0.0000 C   0  0  0  0  0  0  0  0  0
   -0.0708   -5.1495    0.0000 C   0  0  0  0  0  0  0  0  0
   -0.8958   -5.1495    0.0000 C   0  0  0  0  0  0  0  0  0
   -1.1508   -4.3648    0.0000 C   0  0  0  0  0  0  0  0  0
  1  2  2  0  0  0  0
  2  3  1  0  0  0  0
  2 11  1  0  0  0  0
  3  4  1  0  0  0  0
  4  5  1  0  0  0  0
  5  6  4  0  0  0  0
  5 10  4  0  0  0  0
  6  7  4  0  0  0  0
  7  8  4  0  0  0  0
  8  9  4  0  0  0  0
  9 10  4  0  0  0  0
 11 12  1  0  0  0  0
 11 16  1  0  0  0  0
 12 13  1  0  0  0  0
 13 14  1  0  0  0  0
 14 15  1  0  0  0  0
 14 17  1  0  0  0  0
 15 16  1  0  0  0  0
 17 18  1  0  0  0  0
 17 21  1  0  0  0  0
 18 19  1  0  0  0  0
 19 20  1  0  0  0  0
 20 21  1  0  0  0  0
M  END
>  <Name_Molregno>
364165

>  <HISTAMINE H3>
7.03

$$$$
364166
  Marvin  02231216192D 0   1.00000     0.00000     0

 23 26  0  0  0  0  0  0  0  0999 V2000
    1.2579   -1.9570    0.0000 O   0  0  0  0  0  0  0  0  0
    0.8454   -1.2425    0.0000 C   0  0  0  0  0  0  0  0  0
    1.2579   -0.5280    0.0000 N   0  0  0  0  0  0  0  0  0
    2.0829   -0.5280    0.0000 C   0  0  0  0  0  0  0  0  0
    2.5678   -1.1955    0.0000 C   0  0  0  0  0  0  0  0  0
    3.3525   -0.9405    0.0000 C   0  0  0  0  0  0  0  0  0
    3.3525   -0.1155    0.0000 C   0  0  0  0  0  0  0  0  0
    2.5678    0.1394    0.0000 C   0  0  0  0  0  0  0  0  0
    4.0669    0.2970    0.0000 C   0  0  0  0  0  0  0  0  0
    4.7814   -0.1155    0.0000 C   0  0  0  0  0  0  0  0  0
    4.7814   -0.9405    0.0000 C   0  0  0  0  0  0  0  0  0
    4.0669   -1.3530    0.0000 C   0  0  0  0  0  0  0  0  0
    0.0204   -1.2425    0.0000 N   0  0  0  0  0  0  0  0  0
   -0.3921   -1.9570    0.0000 C   0  0  0  0  0  0  0  0  0
   -1.2171   -1.9570    0.0000 C   0  0  0  0  0  0  0  0  0
   -1.6296   -1.2425    0.0000 N   0  0  0  0  0  0  0  0  0
   -1.2171   -0.5280    0.0000 C   0  0  0  0  0  0  0  0  0
   -0.3921   -0.5280    0.0000 C   0  0  0  0  0  0  0  0  0
   -2.4546   -1.2425    0.0000 C   0  0  0  0  0  0  0  0  0
   -2.9395   -1.9099    0.0000 C   0  0  0  0  0  0  0  0  0
   -3.7241   -1.6550    0.0000 C   0  0  0  0  0  0  0  0  0
   -3.7241   -0.8300    0.0000 C   0  0  0  0  0  0  0  0  0
   -2.9395   -0.5751    0.0000 C   0  0  0  0  0  0  0  0  0
  1  2  2  0  0  0  0
  2  3  1  0  0  0  0
  2 13  1  0  0  0  0
  3  4  1  0  0  0  0
  4  5  1  0  0  0  0
  4  8  1  0  0  0  0
  5  6  1  0  0  0  0
  6  7  4  0  0  0  0
  6 12  4  0  0  0  0
  7  8  1  0  0  0  0
  7  9  4  0  0  0  0
  9 10  4  0  0  0  0
 10 11  4  0  0  0  0
 11 12  4  0  0  0  0
 13 14  1  0  0  0  0
 13 18  1  0  0  0  0
 14 15  1  0  0  0  0
 15 16  1  0  0  0  0
 16 17  1  0  0  0  0
 16 19  1  0  0  0  0
 17 18  1  0  0  0  0
 19 20  1  0  0  0  0
 19 23  1  0  0  0  0
 20 21  1  0  0  0  0
 21 22  1  0  0  0  0
 22 23  1  0  0  0  0
M  END
>  <Name_Molregno>
364166

>  <HISTAMINE H3>
7.54

$$$$
364167
  Marvin  02231216192D 0   1.00000     0.00000     0

 21 23  0  0  0  0  0  0  0  0999 V2000
    0.4097   -2.0166    0.0000 O   0  0  0  0  0  0  0  0  0
   -0.0028   -1.3022    0.0000 C   0  0  0  0  0  0  0  0  0
    0.4097   -0.5877    0.0000 N   0  0  0  0  0  0  0  0  0
    1.2347   -0.5877    0.0000 C   0  0  0  0  0  0  0  0  0
    1.7197   -1.2551    0.0000 C   0  0  0  0  0  0  0  0  0
    2.5043   -1.0002    0.0000 C   0  0  0  0  0  0  0  0  0
    2.5043   -0.1752    0.0000 C   0  0  0  0  0  0  0  0  0
    1.7197    0.0797    0.0000 C   0  0  0  0  0  0  0  0  0
    3.2188    0.2373    0.0000 C   0  0  0  0  0  0  0  0  0
    3.9332   -0.1752    0.0000 C   0  0  0  0  0  0  0  0  0
    3.9332   -1.0002    0.0000 C   0  0  0  0  0  0  0  0  0
    3.2188   -1.4127    0.0000 C   0  0  0  0  0  0  0  0  0
   -0.8278   -1.3022    0.0000 N   0  0  0  0  0  0  0  0  0
   -1.2403   -2.0166    0.0000 C   0  0  0  0  0  0  0  0  0
   -2.0653   -2.0166    0.0000 C   0  0  0  0  0  0  0  0  0
   -2.4778   -1.3022    0.0000 N   0  0  0  0  0  0  0  0  0
   -2.0653   -0.5877    0.0000 C   0  0  0  0  0  0  0  0  0
   -1.2403   -0.5877    0.0000 C   0  0  0  0  0  0  0  0  0
   -3.3028   -1.3022    0.0000 C   0  0  0  0  0  0  0  0  0
   -3.7153   -2.0166    0.0000 C   0  0  0  0  0  0  0  0  0
   -3.7153   -0.5877    0.0000 C   0  0  0  0  0  0  0  0  0
  1  2  2  0  0  0  0
  2  3  1  0  0  0  0
  2 13  1  0  0  0  0
  3  4  1  0  0  0  0
  4  5  1  0  0  0  0
  4  8  1  0  0  0  0
  5  6  1  0  0  0  0
  6  7  4  0  0  0  0
  6 12  4  0  0  0  0
  7  8  1  0  0  0  0
  7  9  4  0  0  0  0
  9 10  4  0  0  0  0
 10 11  4  0  0  0  0
 11 12  4  0  0  0  0
 13 14  1  0  0  0  0
 13 18  1  0  0  0  0
 14 15  1  0  0  0  0
 15 16  1  0  0  0  0
 16 17  1  0  0  0  0
 16 19  1  0  0  0  0
 17 18  1  0  0  0  0
 19 20  1  0  0  0  0
 19 21  1  0  0  0  0
M  END
>  <Name_Molregno>
364167

>  <HISTAMINE H3>
7.52

$$$$
364174
  Marvin  02231216192D 0   1.00000     0.00000     0

 20 22  0  0  0  0  0  0  0  0999 V2000
    0.0247   -1.9746    0.0000 O   0  0  0  0  0  0  0  0  0
   -0.3878   -1.2601    0.0000 C   0  0  0  0  0  0  0  0  0
    0.0247   -0.5457    0.0000 N   0  0  0  0  0  0  0  0  0
    0.8497   -0.5457    0.0000 C   0  0  0  0  0  0  0  0  0
    1.3346   -1.2131    0.0000 C   0  0  0  0  0  0  0  0  0
    2.1193   -0.9582    0.0000 C   0  0  0  0  0  0  0  0  0
    2.1193   -0.1332    0.0000 C   0  0  0  0  0  0  0  0  0
    1.3346    0.1218    0.0000 C   0  0  0  0  0  0  0  0  0
    2.8337    0.2793    0.0000 C   0  0  0  0  0  0  0  0  0
    3.5482   -0.1332    0.0000 C   0  0  0  0  0  0  0  0  0
    3.5482   -0.9582    0.0000 C   0  0  0  0  0  0  0  0  0
    2.8337   -1.3707    0.0000 C   0  0  0  0  0  0  0  0  0
   -1.2128   -1.2601    0.0000 N   0  0  0  0  0  0  0  0  0
   -1.6253   -1.9746    0.0000 C   0  0  0  0  0  0  0  0  0
   -2.4503   -1.9746    0.0000 C   0  0  0  0  0  0  0  0  0
   -2.8628   -1.2601    0.0000 N   0  0  0  0  0  0  0  0  0
   -2.4503   -0.5457    0.0000 C   0  0  0  0  0  0  0  0  0
   -1.6253   -0.5457    0.0000 C   0  0  0  0  0  0  0  0  0
   -3.6878   -1.2601    0.0000 C   0  0  0  0  0  0  0  0  0
   -4.1003   -1.9746    0.0000 C   0  0  0  0  0  0  0  0  0
  1  2  2  0  0  0  0
  2  3  1  0  0  0  0
  2 13  1  0  0  0  0
  3  4  1  0  0  0  0
  4  5  1  0  0  0  0
  4  8  1  0  0  0  0
  5  6  1  0  0  0  0
  6  7  4  0  0  0  0
  6 12  4  0  0  0  0
  7  8  1  0  0  0  0
  7  9  4  0  0  0  0
  9 10  4  0  0  0  0
 10 11  4  0  0  0  0
 11 12  4  0  0  0  0
 13 14  1  0  0  0  0
 13 18  1  0  0  0  0
 14 15  1  0  0  0  0
 15 16  1  0  0  0  0
 16 17  1  0  0  0  0
 16 19  1  0  0  0  0
 17 18  1  0  0  0  0
 19 20  1  0  0  0  0
M  END
>  <Name_Molregno>
364174

>  <HISTAMINE H3>
7.36

$$$$
364175
  Marvin  02231216192D 0   1.00000     0.00000     0

 20 22  0  0  1  0  0  0  0  0999 V2000
   -0.3371   -1.6401    0.0000 O   0  0  0  0  0  0  0  0  0
    0.3773   -1.2276    0.0000 C   0  0  0  0  0  0  0  0  0
    1.0918   -1.6401    0.0000 N   0  0  0  0  0  0  0  0  0
    1.0918   -2.4651    0.0000 C   0  0  0  0  0  0  0  0  0
    1.5043   -3.1795    0.0000 C   0  0  0  0  0  0  0  0  0
    0.6793   -3.1795    0.0000 C   0  0  0  0  0  0  0  0  0
   -0.0352   -3.5920    0.0000 C   0  0  0  0  0  0  0  0  0
   -0.0352   -4.4170    0.0000 C   0  0  0  0  0  0  0  0  0
   -0.7496   -4.8295    0.0000 C   0  0  0  0  0  0  0  0  0
   -1.4641   -4.4170    0.0000 C   0  0  0  0  0  0  0  0  0
   -1.4641   -3.5920    0.0000 C   0  0  0  0  0  0  0  0  0
   -0.7496   -3.1795    0.0000 C   0  0  0  0  0  0  0  0  0
    0.3773   -0.4026    0.0000 N   0  0  0  0  0  0  0  0  0
   -0.3371    0.0099    0.0000 C   0  0  0  0  0  0  0  0  0
   -0.3371    0.8349    0.0000 C   0  0  0  0  0  0  0  0  0
    0.3773    1.2474    0.0000 N   0  0  0  0  0  0  0  0  0
    1.0918    0.8349    0.0000 C   0  0  0  0  0  0  0  0  0
    1.0918    0.0099    0.0000 C   0  0  0  0  0  0  0  0  0
    0.3773    2.0724    0.0000 C   0  0  0  0  0  0  0  0  0
   -0.3371    2.4849    0.0000 C   0  0  0  0  0  0  0  0  0
  1  2  2  0  0  0  0
  2  3  1  0  0  0  0
  2 13  1  0  0  0  0
  3  4  1  0  0  0  0
  4  5  1  0  0  0  0
  4  6  1  0  0  0  0
  5  6  1  0  0  0  0
  6  7  1  0  0  0  0
  7  8  4  0  0  0  0
  7 12  4  0  0  0  0
  8  9  4  0  0  0  0
  9 10  4  0  0  0  0
 10 11  4  0  0  0  0
 11 12  4  0  0  0  0
 13 14  1  0  0  0  0
 13 18  1  0  0  0  0
 14 15  1  0  0  0  0
 15 16  1  0  0  0  0
 16 17  1  0  0  0  0
 16 19  1  0  0  0  0
 17 18  1  0  0  0  0
 19 20  1  0  0  0  0
M  END
>  <Name_Molregno>
364175

>  <HISTAMINE H3>
7.4

$$$$
364176
  Marvin  02231216192D 0   1.00000     0.00000     0

 28 31  0  0  0  0  0  0  0  0999 V2000
    0.8658    3.0779    0.0000 O   0  0  0  0  0  0  0  0  0
    1.5803    2.6654    0.0000 C   0  0  0  0  0  0  0  0  0
    2.2947    3.0779    0.0000 C   0  0  0  0  0  0  0  0  0
    3.0092    2.6654    0.0000 C   0  0  0  0  0  0  0  0  0
    3.0092    1.8404    0.0000 C   0  0  0  0  0  0  0  0  0
    2.2947    1.4279    0.0000 C   0  0  0  0  0  0  0  0  0
    1.5803    1.8404    0.0000 C   0  0  0  0  0  0  0  0  0
    3.7237    1.4279    0.0000 C   0  0  0  0  0  0  0  0  0
    3.7237    0.6029    0.0000 N   0  0  0  0  0  0  0  0  0
    4.4381    0.1904    0.0000 C   0  0  0  0  0  0  0  0  0
    5.1526    0.6029    0.0000 O   0  0  0  0  0  0  0  0  0
    4.4381   -0.6346    0.0000 N   0  0  0  0  0  0  0  0  0
    5.1526   -1.0471    0.0000 C   0  0  0  0  0  0  0  0  0
    5.1526   -1.8721    0.0000 C   0  0  0  0  0  0  0  0  0
    4.4381   -2.2846    0.0000 N   0  0  0  0  0  0  0  0  0
    3.7237   -1.8721    0.0000 C   0  0  0  0  0  0  0  0  0
    3.7237   -1.0471    0.0000 C   0  0  0  0  0  0  0  0  0
    4.4381   -3.1096    0.0000 C   0  0  0  0  0  0  0  0  0
    5.1056   -3.5945    0.0000 C   0  0  0  0  0  0  0  0  0
    4.8506   -4.3791    0.0000 C   0  0  0  0  0  0  0  0  0
    4.0256   -4.3791    0.0000 C   0  0  0  0  0  0  0  0  0
    3.7707   -3.5945    0.0000 C   0  0  0  0  0  0  0  0  0
    0.8658    3.9029    0.0000 C   0  0  0  0  0  0  0  0  0
    0.1513    4.3154    0.0000 C   0  0  0  0  0  0  0  0  0
    0.1513    5.1404    0.0000 C   0  0  0  0  0  0  0  0  0
    0.8658    5.5529    0.0000 C   0  0  0  0  0  0  0  0  0
    1.5803    5.1404    0.0000 C   0  0  0  0  0  0  0  0  0
    1.5803    4.3154    0.0000 C   0  0  0  0  0  0  0  0  0
  1  2  1  0  0  0  0
  1 23  1  0  0  0  0
  2  3  4  0  0  0  0
  2  7  4  0  0  0  0
  3  4  4  0  0  0  0
  4  5  4  0  0  0  0
  5  6  4  0  0  0  0
  5  8  1  0  0  0  0
  6  7  4  0  0  0  0
  8  9  1  0  0  0  0
  9 10  1  0  0  0  0
 10 11  2  0  0  0  0
 10 12  1  0  0  0  0
 12 13  1  0  0  0  0
 12 17  1  0  0  0  0
 13 14  1  0  0  0  0
 14 15  1  0  0  0  0
 15 16  1  0  0  0  0
 15 18  1  0  0  0  0
 16 17  1  0  0  0  0
 18 19  1  0  0  0  0
 18 22  1  0  0  0  0
 19 20  1  0  0  0  0
 20 21  1  0  0  0  0
 21 22  1  0  0  0  0
 23 24  4  0  0  0  0
 23 28  4  0  0  0  0
 24 25  4  0  0  0  0
 25 26  4  0  0  0  0
 26 27  4  0  0  0  0
 27 28  4  0  0  0  0
M  END
>  <Name_Molregno>
364176

>  <HISTAMINE H3>
7.42

$$$$
364184
  Marvin  02231216192D 0   1.00000     0.00000     0

 26 28  0  0  0  0  0  0  0  0999 V2000
    3.3422    2.0091    0.0000 O   0  0  0  0  0  0  0  0  0
    3.3422    1.1841    0.0000 C   0  0  0  0  0  0  0  0  0
    4.0567    0.7716    0.0000 C   0  0  0  0  0  0  0  0  0
    4.0567   -0.0534    0.0000 C   0  0  0  0  0  0  0  0  0
    3.3422   -0.4659    0.0000 C   0  0  0  0  0  0  0  0  0
    2.6277   -0.0534    0.0000 C   0  0  0  0  0  0  0  0  0
    2.6277    0.7716    0.0000 C   0  0  0  0  0  0  0  0  0
    3.3422   -1.2909    0.0000 C   0  0  0  0  0  0  0  0  0
    2.6277   -1.7034    0.0000 N   0  0  0  0  0  0  0  0  0
    2.6277   -2.5284    0.0000 C   0  0  0  0  0  0  0  0  0
    3.3422   -2.9409    0.0000 O   0  0  0  0  0  0  0  0  0
    1.9132   -2.9409    0.0000 N   0  0  0  0  0  0  0  0  0
    1.9132   -3.7659    0.0000 C   0  0  0  0  0  0  0  0  0
    1.1988   -4.1784    0.0000 C   0  0  0  0  0  0  0  0  0
    0.4843   -3.7659    0.0000 N   0  0  0  0  0  0  0  0  0
    0.4843   -2.9409    0.0000 C   0  0  0  0  0  0  0  0  0
    1.1988   -2.5284    0.0000 C   0  0  0  0  0  0  0  0  0
   -0.2302   -4.1784    0.0000 C   0  0  0  0  0  0  0  0  0
   -0.2302   -5.0034    0.0000 C   0  0  0  0  0  0  0  0  0
   -0.9446   -3.7659    0.0000 C   0  0  0  0  0  0  0  0  0
    4.0567    2.4216    0.0000 C   0  0  0  0  0  0  0  0  0
    4.0567    3.2466    0.0000 C   0  0  0  0  0  0  0  0  0
    4.7711    3.6591    0.0000 C   0  0  0  0  0  0  0  0  0
    5.4856    3.2466    0.0000 C   0  0  0  0  0  0  0  0  0
    5.4856    2.4216    0.0000 C   0  0  0  0  0  0  0  0  0
    4.7711    2.0091    0.0000 C   0  0  0  0  0  0  0  0  0
  1  2  1  0  0  0  0
  1 21  1  0  0  0  0
  2  3  4  0  0  0  0
  2  7  4  0  0  0  0
  3  4  4  0  0  0  0
  4  5  4  0  0  0  0
  5  6  4  0  0  0  0
  5  8  1  0  0  0  0
  6  7  4  0  0  0  0
  8  9  1  0  0  0  0
  9 10  1  0  0  0  0
 10 11  2  0  0  0  0
 10 12  1  0  0  0  0
 12 13  1  0  0  0  0
 12 17  1  0  0  0  0
 13 14  1  0  0  0  0
 14 15  1  0  0  0  0
 15 16  1  0  0  0  0
 15 18  1  0  0  0  0
 16 17  1  0  0  0  0
 18 19  1  0  0  0  0
 18 20  1  0  0  0  0
 21 22  4  0  0  0  0
 21 26  4  0  0  0  0
 22 23  4  0  0  0  0
 23 24  4  0  0  0  0
 24 25  4  0  0  0  0
 25 26  4  0  0  0  0
M  END
>  <Name_Molregno>
364184

>  <HISTAMINE H3>
7.47

$$$$
364185
  Marvin  02231216192D 0   1.00000     0.00000     0

 23 25  0  0  0  0  0  0  0  0999 V2000
    2.7921    4.9732    0.0000 Cl  0  0  0  0  0  0  0  0  0
    2.7921    4.1482    0.0000 C   0  0  0  0  0  0  0  0  0
    3.5065    3.7357    0.0000 C   0  0  0  0  0  0  0  0  0
    3.5065    2.9107    0.0000 C   0  0  0  0  0  0  0  0  0
    2.7921    2.4982    0.0000 C   0  0  0  0  0  0  0  0  0
    2.0776    2.9107    0.0000 C   0  0  0  0  0  0  0  0  0
    2.0776    3.7357    0.0000 C   0  0  0  0  0  0  0  0  0
    1.3631    4.1482    0.0000 Cl  0  0  0  0  0  0  0  0  0
    4.2210    2.4982    0.0000 C   0  0  0  0  0  0  0  0  0
    4.2210    1.6732    0.0000 N   0  0  0  0  0  0  0  0  0
    4.9355    1.2607    0.0000 C   0  0  0  0  0  0  0  0  0
    5.6499    1.6732    0.0000 O   0  0  0  0  0  0  0  0  0
    4.9355    0.4357    0.0000 N   0  0  0  0  0  0  0  0  0
    5.6499    0.0232    0.0000 C   0  0  0  0  0  0  0  0  0
    5.6499   -0.8018    0.0000 C   0  0  0  0  0  0  0  0  0
    4.9355   -1.2143    0.0000 N   0  0  0  0  0  0  0  0  0
    4.2210   -0.8018    0.0000 C   0  0  0  0  0  0  0  0  0
    4.2210    0.0232    0.0000 C   0  0  0  0  0  0  0  0  0
    4.9355   -2.0393    0.0000 C   0  0  0  0  0  0  0  0  0
    5.6029   -2.5242    0.0000 C   0  0  0  0  0  0  0  0  0
    5.3480   -3.3088    0.0000 C   0  0  0  0  0  0  0  0  0
    4.5230   -3.3088    0.0000 C   0  0  0  0  0  0  0  0  0
    4.2680   -2.5242    0.0000 C   0  0  0  0  0  0  0  0  0
  1  2  1  0  0  0  0
  2  3  4  0  0  0  0
  2  7  4  0  0  0  0
  3  4  4  0  0  0  0
  4  5  4  0  0  0  0
  4  9  1  0  0  0  0
  5  6  4  0  0  0  0
  6  7  4  0  0  0  0
  7  8  1  0  0  0  0
  9 10  1  0  0  0  0
 10 11  1  0  0  0  0
 11 12  2  0  0  0  0
 11 13  1  0  0  0  0
 13 14  1  0  0  0  0
 13 18  1  0  0  0  0
 14 15  1  0  0  0  0
 15 16  1  0  0  0  0
 16 17  1  0  0  0  0
 16 19  1  0  0  0  0
 17 18  1  0  0  0  0
 19 20  1  0  0  0  0
 19 23  1  0  0  0  0
 20 21  1  0  0  0  0
 21 22  1  0  0  0  0
 22 23  1  0  0  0  0
M  END
>  <Name_Molregno>
364185

>  <HISTAMINE H3>
7.82

$$$$
364186
  Marvin  02231216192D 0   1.00000     0.00000     0

 21 22  0  0  0  0  0  0  0  0999 V2000
    2.4829    4.4761    0.0000 Cl  0  0  0  0  0  0  0  0  0
    2.4829    3.6511    0.0000 C   0  0  0  0  0  0  0  0  0
    3.1974    3.2386    0.0000 C   0  0  0  0  0  0  0  0  0
    3.1974    2.4136    0.0000 C   0  0  0  0  0  0  0  0  0
    2.4829    2.0011    0.0000 C   0  0  0  0  0  0  0  0  0
    1.7685    2.4136    0.0000 C   0  0  0  0  0  0  0  0  0
    1.7685    3.2386    0.0000 C   0  0  0  0  0  0  0  0  0
    1.0540    3.6511    0.0000 Cl  0  0  0  0  0  0  0  0  0
    3.9119    2.0011    0.0000 C   0  0  0  0  0  0  0  0  0
    3.9119    1.1761    0.0000 N   0  0  0  0  0  0  0  0  0
    4.6263    0.7636    0.0000 C   0  0  0  0  0  0  0  0  0
    5.3408    1.1761    0.0000 O   0  0  0  0  0  0  0  0  0
    4.6263   -0.0614    0.0000 N   0  0  0  0  0  0  0  0  0
    5.3408   -0.4739    0.0000 C   0  0  0  0  0  0  0  0  0
    5.3408   -1.2989    0.0000 C   0  0  0  0  0  0  0  0  0
    4.6263   -1.7114    0.0000 N   0  0  0  0  0  0  0  0  0
    3.9119   -1.2989    0.0000 C   0  0  0  0  0  0  0  0  0
    3.9119   -0.4739    0.0000 C   0  0  0  0  0  0  0  0  0
    4.6263   -2.5364    0.0000 C   0  0  0  0  0  0  0  0  0
    5.3408   -2.9489    0.0000 C   0  0  0  0  0  0  0  0  0
    3.9119   -2.9489    0.0000 C   0  0  0  0  0  0  0  0  0
  1  2  1  0  0  0  0
  2  3  4  0  0  0  0
  2  7  4  0  0  0  0
  3  4  4  0  0  0  0
  4  5  4  0  0  0  0
  4  9  1  0  0  0  0
  5  6  4  0  0  0  0
  6  7  4  0  0  0  0
  7  8  1  0  0  0  0
  9 10  1  0  0  0  0
 10 11  1  0  0  0  0
 11 12  2  0  0  0  0
 11 13  1  0  0  0  0
 13 14  1  0  0  0  0
 13 18  1  0  0  0  0
 14 15  1  0  0  0  0
 15 16  1  0  0  0  0
 16 17  1  0  0  0  0
 16 19  1  0  0  0  0
 17 18  1  0  0  0  0
 19 20  1  0  0  0  0
 19 21  1  0  0  0  0
M  END
>  <Name_Molregno>
364186

>  <HISTAMINE H3>
7.7

$$$$
382415
  Marvin  02231216192D 0   1.00000     0.00000     0

 18 19  0  0  0  0  0  0  0  0999 V2000
   -0.7360    1.4792    0.0000 S   0  0  0  0  0  0  0  0  0
   -0.9909    0.6946    0.0000 C   0  0  0  0  0  0  0  0  0
   -1.8159    0.6946    0.0000 C   0  0  0  0  0  0  0  0  0
   -2.0709    1.4792    0.0000 N   0  0  0  0  0  0  0  0  0
   -1.4034    1.9642    0.0000 C   0  0  0  0  0  0  0  0  0
   -1.4034    2.7892    0.0000 C   0  0  0  0  0  0  0  0  0
   -0.6890    3.2017    0.0000 F   0  0  0  0  0  0  0  0  0
   -2.3008    0.0272    0.0000 C   0  0  0  0  0  0  0  0  0
   -2.7858   -0.6403    0.0000 C   0  0  0  0  0  0  0  0  0
   -3.2707   -1.3077    0.0000 C   0  0  0  0  0  0  0  0  0
   -2.9351   -2.0614    0.0000 C   0  0  0  0  0  0  0  0  0
   -3.4201   -2.7288    0.0000 C   0  0  0  0  0  0  0  0  0
   -4.2405   -2.6426    0.0000 C   0  0  0  0  0  0  0  0  0
   -4.5761   -1.8889    0.0000 C   0  0  0  0  0  0  0  0  0
   -5.3966   -1.8027    0.0000 F   0  0  0  0  0  0  0  0  0
   -4.0912   -1.2215    0.0000 C   0  0  0  0  0  0  0  0  0
   -3.0845   -3.4825    0.0000 C   0  0  0  0  0  0  0  0  0
   -2.7489   -4.2362    0.0000 N   0  0  0  0  0  0  0  0  0
  1  2  4  0  0  0  0
  1  5  4  0  0  0  0
  2  3  4  0  0  0  0
  3  4  4  0  0  0  0
  3  8  1  0  0  0  0
  4  5  4  0  0  0  0
  5  6  1  0  0  0  0
  6  7  1  0  0  0  0
  8  9  3  0  0  0  0
  9 10  1  0  0  0  0
 10 11  4  0  0  0  0
 10 16  4  0  0  0  0
 11 12  4  0  0  0  0
 12 13  4  0  0  0  0
 12 17  1  0  0  0  0
 13 14  4  0  0  0  0
 14 15  1  0  0  0  0
 14 16  4  0  0  0  0
 17 18  3  0  0  0  0
M  END
>  <Name_Molregno>
382415

>  <5-HT1A>
5

>  <5-HT1B>
5

>  <5-HT1D>
5

>  <5-HT1E>
5

>  <5-HT2A>
5

>  <5-HT2C>
5

>  <5-HT3>
5

>  <5-HT5>
5

>  <5-HT6>
5

>  <5-HT7>
5

>  <Alpha-1A>
5

>  <Alpha-1B>
5

>  <Alpha-2A>
5

>  <Alpha-2B>
5

>  <Alpha-2C>
5

>  <Beta-1>
5

>  <Beta-2>
5

>  <DOPAMINE D1>
5

>  <DOPAMINE D2>
5

>  <DOPAMINE D3>
5

>  <DOPAMINE D4>
5

>  <DOPAMINE D5>
5

>  <Dopamine transporter>
5

>  <HISTAMINE H1>
5

>  <HISTAMINE H2>
5

>  <HISTAMINE H3>
5

>  <HISTAMINE H4>
5

>  <Muscarinic acetylcholine receptor M1>
5

>  <Muscarinic acetylcholine receptor M2>
5

>  <Muscarinic acetylcholine receptor M3>
5

>  <Muscarinic acetylcholine receptor M4>
5

>  <Muscarinic acetylcholine receptor M5>
5

>  <Norepinephrine transporter>
5

>  <Serotonin transporter>
5

$$$$
383716
  Marvin  02231216192D 0   1.00000     0.00000     0

 28 30  0  0  0  0  0  0  0  0999 V2000
    3.6045   -1.6193    0.0000 O   0  0  0  0  0  0  0  0  0
    4.3190   -1.2068    0.0000 C   0  0  0  0  0  0  0  0  0
    5.0335   -1.6193    0.0000 C   0  0  0  0  0  0  0  0  0
    5.7479   -1.2068    0.0000 C   0  0  0  0  0  0  0  0  0
    6.4624   -1.6193    0.0000 N   0  0  0  0  0  0  0  0  0
    7.1769   -1.2068    0.0000 C   0  0  0  0  0  0  0  0  0
    6.4624   -2.4443    0.0000 C   0  0  0  0  0  0  0  0  0
    2.8901   -1.2068    0.0000 C   0  0  0  0  0  0  0  0  0
    2.1756   -1.6193    0.0000 C   0  0  0  0  0  0  0  0  0
    1.4611   -1.2068    0.0000 C   0  0  0  0  0  0  0  0  0
    0.7466   -1.6193    0.0000 C   0  0  0  0  0  0  0  0  0
    0.7466   -2.4443    0.0000 N   0  0  0  0  0  0  0  0  0
    1.4611   -2.8568    0.0000 C   0  0  0  0  0  0  0  0  0
    0.0322   -2.8568    0.0000 C   0  0  0  0  0  0  0  0  0
    1.4611   -0.3818    0.0000 C   0  0  0  0  0  0  0  0  0
    0.7466    0.0307    0.0000 N   0  0  0  0  0  0  0  0  0
    0.7466    0.8557    0.0000 C   0  0  0  0  0  0  0  0  0
    1.4611    1.2682    0.0000 N   0  0  0  0  0  0  0  0  0
    1.4611    2.0932    0.0000 C   0  0  0  0  0  0  0  0  0
    0.7466    2.5057    0.0000 N   0  0  0  0  0  0  0  0  0
    0.0322    2.0932    0.0000 C   0  0  0  0  0  0  0  0  0
    0.0322    1.2682    0.0000 C   0  0  0  0  0  0  0  0  0
   -0.6823    0.8557    0.0000 C   0  0  0  0  0  0  0  0  0
   -1.3968    1.2682    0.0000 C   0  0  0  0  0  0  0  0  0
   -1.3968    2.0932    0.0000 C   0  0  0  0  0  0  0  0  0
   -0.6823    2.5057    0.0000 C   0  0  0  0  0  0  0  0  0
    2.1756    0.0307    0.0000 C   0  0  0  0  0  0  0  0  0
    2.8901   -0.3818    0.0000 C   0  0  0  0  0  0  0  0  0
  1  2  1  0  0  0  0
  1  8  1  0  0  0  0
  2  3  1  0  0  0  0
  3  4  1  0  0  0  0
  4  5  1  0  0  0  0
  5  6  1  0  0  0  0
  5  7  1  0  0  0  0
  8  9  4  0  0  0  0
  8 28  4  0  0  0  0
  9 10  4  0  0  0  0
 10 11  1  0  0  0  0
 10 15  4  0  0  0  0
 11 12  1  0  0  0  0
 12 13  1  0  0  0  0
 12 14  1  0  0  0  0
 15 16  1  0  0  0  0
 15 27  4  0  0  0  0
 16 17  1  0  0  0  0
 17 18  4  0  0  0  0
 17 22  4  0  0  0  0
 18 19  4  0  0  0  0
 19 20  4  0  0  0  0
 20 21  4  0  0  0  0
 21 22  4  0  0  0  0
 21 26  4  0  0  0  0
 22 23  4  0  0  0  0
 23 24  4  0  0  0  0
 24 25  4  0  0  0  0
 25 26  4  0  0  0  0
 27 28  4  0  0  0  0
M  END
>  <Name_Molregno>
383716

>  <HISTAMINE H3>
7.74

$$$$
383717
  Marvin  02231216192D 0   1.00000     0.00000     0

 31 34  0  0  0  0  0  0  0  0999 V2000
    0.3772    0.6867    0.0000 O   0  0  0  0  0  0  0  0  0
   -0.3373    0.2742    0.0000 C   0  0  0  0  0  0  0  0  0
   -1.0518    0.6867    0.0000 C   0  0  0  0  0  0  0  0  0
   -1.7663    0.2742    0.0000 C   0  0  0  0  0  0  0  0  0
   -2.4807    0.6867    0.0000 N   0  0  0  0  0  0  0  0  0
   -3.1952    0.2742    0.0000 C   0  0  0  0  0  0  0  0  0
   -3.9097    0.6867    0.0000 C   0  0  0  0  0  0  0  0  0
   -3.9097    1.5117    0.0000 C   0  0  0  0  0  0  0  0  0
   -3.1952    1.9242    0.0000 C   0  0  0  0  0  0  0  0  0
   -2.4807    1.5117    0.0000 C   0  0  0  0  0  0  0  0  0
    1.0916    0.2742    0.0000 C   0  0  0  0  0  0  0  0  0
    1.8061    0.6867    0.0000 C   0  0  0  0  0  0  0  0  0
    2.5206    0.2742    0.0000 C   0  0  0  0  0  0  0  0  0
    3.2350    0.6867    0.0000 C   0  0  0  0  0  0  0  0  0
    3.2350    1.5117    0.0000 N   0  0  0  0  0  0  0  0  0
    2.5206    1.9242    0.0000 C   0  0  0  0  0  0  0  0  0
    3.9495    1.9242    0.0000 C   0  0  0  0  0  0  0  0  0
    2.5206   -0.5508    0.0000 C   0  0  0  0  0  0  0  0  0
    3.2350   -0.9633    0.0000 N   0  0  0  0  0  0  0  0  0
    3.2350   -1.7883    0.0000 C   0  0  0  0  0  0  0  0  0
    2.5206   -2.2008    0.0000 N   0  0  0  0  0  0  0  0  0
    2.5206   -3.0258    0.0000 C   0  0  0  0  0  0  0  0  0
    3.2350   -3.4383    0.0000 N   0  0  0  0  0  0  0  0  0
    3.9495   -3.0258    0.0000 C   0  0  0  0  0  0  0  0  0
    3.9495   -2.2008    0.0000 C   0  0  0  0  0  0  0  0  0
    4.6640   -1.7883    0.0000 C   0  0  0  0  0  0  0  0  0
    5.3785   -2.2008    0.0000 C   0  0  0  0  0  0  0  0  0
    5.3785   -3.0258    0.0000 C   0  0  0  0  0  0  0  0  0
    4.6640   -3.4383    0.0000 C   0  0  0  0  0  0  0  0  0
    1.8061   -0.9633    0.0000 C   0  0  0  0  0  0  0  0  0
    1.0916   -0.5508    0.0000 C   0  0  0  0  0  0  0  0  0
  1  2  1  0  0  0  0
  1 11  1  0  0  0  0
  2  3  1  0  0  0  0
  3  4  1  0  0  0  0
  4  5  1  0  0  0  0
  5  6  1  0  0  0  0
  5 10  1  0  0  0  0
  6  7  1  0  0  0  0
  7  8  1  0  0  0  0
  8  9  1  0  0  0  0
  9 10  1  0  0  0  0
 11 12  4  0  0  0  0
 11 31  4  0  0  0  0
 12 13  4  0  0  0  0
 13 14  1  0  0  0  0
 13 18  4  0  0  0  0
 14 15  1  0  0  0  0
 15 16  1  0  0  0  0
 15 17  1  0  0  0  0
 18 19  1  0  0  0  0
 18 30  4  0  0  0  0
 19 20  1  0  0  0  0
 20 21  4  0  0  0  0
 20 25  4  0  0  0  0
 21 22  4  0  0  0  0
 22 23  4  0  0  0  0
 23 24  4  0  0  0  0
 24 25  4  0  0  0  0
 24 29  4  0  0  0  0
 25 26  4  0  0  0  0
 26 27  4  0  0  0  0
 27 28  4  0  0  0  0
 28 29  4  0  0  0  0
 30 31  4  0  0  0  0
M  END
>  <Name_Molregno>
383717

>  <HISTAMINE H3>
9.52

$$$$
383718
  Marvin  02231216192D 0   1.00000     0.00000     0

 29 31  0  0  0  0  0  0  0  0999 V2000
    0.0217   -0.6676    0.0000 O   0  0  0  0  0  0  0  0  0
    0.7362   -0.2551    0.0000 C   0  0  0  0  0  0  0  0  0
    0.7362    0.5699    0.0000 C   0  0  0  0  0  0  0  0  0
    1.4506    0.9824    0.0000 C   0  0  0  0  0  0  0  0  0
    2.1651    0.5699    0.0000 C   0  0  0  0  0  0  0  0  0
    2.8796    0.9824    0.0000 O   0  0  0  0  0  0  0  0  0
    3.5940    0.5699    0.0000 C   0  0  0  0  0  0  0  0  0
    4.3085    0.9824    0.0000 C   0  0  0  0  0  0  0  0  0
    5.0230    0.5699    0.0000 C   0  0  0  0  0  0  0  0  0
    5.7375    0.9824    0.0000 N   0  0  0  0  0  0  0  0  0
    6.4519    0.5699    0.0000 C   0  0  0  0  0  0  0  0  0
    5.7375    1.8074    0.0000 C   0  0  0  0  0  0  0  0  0
    2.1651   -0.2551    0.0000 C   0  0  0  0  0  0  0  0  0
    1.4506   -0.6676    0.0000 C   0  0  0  0  0  0  0  0  0
    1.4506   -1.4926    0.0000 C   0  0  0  0  0  0  0  0  0
    0.7362   -1.9051    0.0000 O   0  0  0  0  0  0  0  0  0
    2.1651   -1.9051    0.0000 N   0  0  0  0  0  0  0  0  0
    2.8796   -1.4926    0.0000 C   0  0  0  0  0  0  0  0  0
    2.1651   -2.7301    0.0000 C   0  0  0  0  0  0  0  0  0
   -0.6928   -0.2551    0.0000 C   0  0  0  0  0  0  0  0  0
   -0.6928    0.5699    0.0000 N   0  0  0  0  0  0  0  0  0
   -1.4073    0.9824    0.0000 C   0  0  0  0  0  0  0  0  0
   -2.1217    0.5699    0.0000 N   0  0  0  0  0  0  0  0  0
   -2.1217   -0.2551    0.0000 C   0  0  0  0  0  0  0  0  0
   -1.4073   -0.6676    0.0000 C   0  0  0  0  0  0  0  0  0
   -1.4073   -1.4926    0.0000 C   0  0  0  0  0  0  0  0  0
   -2.1217   -1.9051    0.0000 C   0  0  0  0  0  0  0  0  0
   -2.8362   -1.4926    0.0000 C   0  0  0  0  0  0  0  0  0
   -2.8362   -0.6676    0.0000 C   0  0  0  0  0  0  0  0  0
  1  2  1  0  0  0  0
  1 20  1  0  0  0  0
  2  3  4  0  0  0  0
  2 14  4  0  0  0  0
  3  4  4  0  0  0  0
  4  5  4  0  0  0  0
  5  6  1  0  0  0  0
  5 13  4  0  0  0  0
  6  7  1  0  0  0  0
  7  8  1  0  0  0  0
  8  9  1  0  0  0  0
  9 10  1  0  0  0  0
 10 11  1  0  0  0  0
 10 12  1  0  0  0  0
 13 14  4  0  0  0  0
 14 15  1  0  0  0  0
 15 16  2  0  0  0  0
 15 17  1  0  0  0  0
 17 18  1  0  0  0  0
 17 19  1  0  0  0  0
 20 21  4  0  0  0  0
 20 25  4  0  0  0  0
 21 22  4  0  0  0  0
 22 23  4  0  0  0  0
 23 24  4  0  0  0  0
 24 25  4  0  0  0  0
 24 29  4  0  0  0  0
 25 26  4  0  0  0  0
 26 27  4  0  0  0  0
 27 28  4  0  0  0  0
 28 29  4  0  0  0  0
M  END
>  <Name_Molregno>
383718

>  <HISTAMINE H3>
5.99

$$$$
383719
  Marvin  02231216192D 0   1.00000     0.00000     0

 28 30  0  0  1  0  0  0  0  0999 V2000
    6.1705   -1.8449    0.0000 Cl  0  0  0  0  0  0  0  0  0
    6.1705   -2.6699    0.0000 C   0  0  0  0  0  0  0  0  0
    6.8850   -3.0824    0.0000 C   0  0  0  0  0  0  0  0  0
    6.8850   -3.9074    0.0000 C   0  0  0  0  0  0  0  0  0
    6.1705   -4.3199    0.0000 C   0  0  0  0  0  0  0  0  0
    5.4561   -3.9074    0.0000 C   0  0  0  0  0  0  0  0  0
    5.4561   -3.0824    0.0000 C   0  0  0  0  0  0  0  0  0
    4.7416   -2.6699    0.0000 C   0  0  0  0  0  0  0  0  0
    4.0271   -3.0824    0.0000 O   0  0  0  0  0  0  0  0  0
    3.3127   -2.6699    0.0000 C   0  0  0  0  0  0  0  0  0
    2.5982   -3.0824    0.0000 C   0  0  0  0  0  0  0  0  0
    1.8837   -2.6699    0.0000 C   0  0  0  0  0  0  0  0  0
    1.8837   -1.8449    0.0000 C   0  0  0  0  0  0  0  0  0
    1.1692   -1.4324    0.0000 O   0  0  0  0  0  0  0  0  0
    0.4548   -1.8449    0.0000 C   0  0  0  0  0  0  0  0  0
   -0.2597   -1.4324    0.0000 C   0  0  0  0  0  0  0  0  0
   -0.9742   -1.8449    0.0000 C   0  0  0  0  0  0  0  0  0
   -1.6886   -1.4324    0.0000 C   0  0  0  0  0  0  0  0  0
   -1.6886   -0.6074    0.0000 C   0  0  0  0  0  0  0  0  0
   -0.9742   -0.1949    0.0000 N   0  0  0  0  0  0  0  0  0
   -0.2597   -0.6074    0.0000 C   0  0  0  0  0  0  0  0  0
   -0.9742    0.6301    0.0000 C   0  0  0  0  0  0  0  0  0
    2.5982   -1.4324    0.0000 C   0  0  0  0  0  0  0  0  0
    3.3127   -1.8449    0.0000 C   0  0  0  0  0  0  0  0  0
    4.0271   -1.4324    0.0000 C   0  0  0  0  0  0  0  0  0
    4.0271   -0.6074    0.0000 N   0  0  0  0  0  0  0  0  0
    3.3127   -0.1949    0.0000 C   0  0  0  0  0  0  0  0  0
    4.7416   -0.1949    0.0000 C   0  0  0  0  0  0  0  0  0
  1  2  1  0  0  0  0
  2  3  4  0  0  0  0
  2  7  4  0  0  0  0
  3  4  4  0  0  0  0
  4  5  4  0  0  0  0
  5  6  4  0  0  0  0
  6  7  4  0  0  0  0
  7  8  1  0  0  0  0
  8  9  1  0  0  0  0
  9 10  1  0  0  0  0
 10 11  4  0  0  0  0
 10 24  4  0  0  0  0
 11 12  4  0  0  0  0
 12 13  4  0  0  0  0
 13 14  1  0  0  0  0
 13 23  4  0  0  0  0
 14 15  1  0  0  0  0
 15 16  1  0  0  0  0
 16 17  1  0  0  0  0
 16 21  1  0  0  0  0
 17 18  1  0  0  0  0
 18 19  1  0  0  0  0
 19 20  1  0  0  0  0
 20 21  1  0  0  0  0
 20 22  1  0  0  0  0
 23 24  4  0  0  0  0
 24 25  1  0  0  0  0
 25 26  1  0  0  0  0
 26 27  1  0  0  0  0
 26 28  1  0  0  0  0
M  END
>  <Name_Molregno>
383719

>  <HISTAMINE H3>
6.82

$$$$
383720
  Marvin  02231216192D 0   1.00000     0.00000     0

 28 30  0  0  1  0  0  0  0  0999 V2000
    3.9840    1.4244    0.0000 Cl  0  0  0  0  0  0  0  0  0
    4.6984    1.0119    0.0000 C   0  0  0  0  0  0  0  0  0
    5.4129    1.4244    0.0000 C   0  0  0  0  0  0  0  0  0
    6.1274    1.0119    0.0000 C   0  0  0  0  0  0  0  0  0
    6.1274    0.1869    0.0000 C   0  0  0  0  0  0  0  0  0
    5.4129   -0.2256    0.0000 C   0  0  0  0  0  0  0  0  0
    4.6984    0.1869    0.0000 C   0  0  0  0  0  0  0  0  0
    3.9840   -0.2256    0.0000 C   0  0  0  0  0  0  0  0  0
    3.9840   -1.0506    0.0000 O   0  0  0  0  0  0  0  0  0
    3.2695   -1.4631    0.0000 C   0  0  0  0  0  0  0  0  0
    3.2695   -2.2881    0.0000 C   0  0  0  0  0  0  0  0  0
    2.5550   -2.7006    0.0000 C   0  0  0  0  0  0  0  0  0
    1.8405   -2.2881    0.0000 C   0  0  0  0  0  0  0  0  0
    1.1261   -2.7006    0.0000 O   0  0  0  0  0  0  0  0  0
    1.1261   -3.5256    0.0000 C   0  0  0  0  0  0  0  0  0
    1.7935   -4.0106    0.0000 C   0  0  0  0  0  0  0  0  0
    1.5386   -4.7952    0.0000 C   0  0  0  0  0  0  0  0  0
    0.7136   -4.7952    0.0000 N   0  0  0  0  0  0  0  0  0
    0.4586   -4.0106    0.0000 C   0  0  0  0  0  0  0  0  0
    0.2287   -5.4626    0.0000 C   0  0  0  0  0  0  0  0  0
    0.5642   -6.2163    0.0000 C   0  0  0  0  0  0  0  0  0
   -0.5918   -5.3764    0.0000 C   0  0  0  0  0  0  0  0  0
    1.8405   -1.4631    0.0000 C   0  0  0  0  0  0  0  0  0
    2.5550   -1.0506    0.0000 C   0  0  0  0  0  0  0  0  0
    2.5550   -0.2256    0.0000 C   0  0  0  0  0  0  0  0  0
    1.8405    0.1869    0.0000 N   0  0  0  0  0  0  0  0  0
    1.1261   -0.2256    0.0000 C   0  0  0  0  0  0  0  0  0
    1.8405    1.0119    0.0000 C   0  0  0  0  0  0  0  0  0
  1  2  1  0  0  0  0
  2  3  4  0  0  0  0
  2  7  4  0  0  0  0
  3  4  4  0  0  0  0
  4  5  4  0  0  0  0
  5  6  4  0  0  0  0
  6  7  4  0  0  0  0
  7  8  1  0  0  0  0
  8  9  1  0  0  0  0
  9 10  1  0  0  0  0
 10 11  4  0  0  0  0
 10 24  4  0  0  0  0
 11 12  4  0  0  0  0
 12 13  4  0  0  0  0
 13 14  1  0  0  0  0
 13 23  4  0  0  0  0
 14 15  1  0  0  0  0
 15 16  1  0  0  0  0
 15 19  1  0  0  0  0
 16 17  1  0  0  0  0
 17 18  1  0  0  0  0
 18 19  1  0  0  0  0
 18 20  1  0  0  0  0
 20 21  1  0  0  0  0
 20 22  1  0  0  0  0
 23 24  4  0  0  0  0
 24 25  1  0  0  0  0
 25 26  1  0  0  0  0
 26 27  1  0  0  0  0
 26 28  1  0  0  0  0
M  END
>  <Name_Molregno>
383720

>  <HISTAMINE H3>
7.06

$$$$
383721
  Marvin  02231216192D 0   1.00000     0.00000     0

 26 27  0  0  0  0  0  0  0  0999 V2000
   -0.6394   -2.1615    0.0000 Cl  0  0  0  0  0  0  0  0  0
   -0.6394   -1.3365    0.0000 C   0  0  0  0  0  0  0  0  0
   -1.3539   -0.9240    0.0000 C   0  0  0  0  0  0  0  0  0
   -1.3539   -0.0990    0.0000 C   0  0  0  0  0  0  0  0  0
   -0.6394    0.3135    0.0000 C   0  0  0  0  0  0  0  0  0
    0.0751   -0.0990    0.0000 C   0  0  0  0  0  0  0  0  0
    0.0751   -0.9240    0.0000 C   0  0  0  0  0  0  0  0  0
    0.7895   -1.3365    0.0000 C   0  0  0  0  0  0  0  0  0
    1.5040   -0.9240    0.0000 O   0  0  0  0  0  0  0  0  0
    2.2185   -1.3365    0.0000 C   0  0  0  0  0  0  0  0  0
    2.9330   -0.9240    0.0000 C   0  0  0  0  0  0  0  0  0
    3.6474   -1.3365    0.0000 C   0  0  0  0  0  0  0  0  0
    3.6474   -2.1615    0.0000 C   0  0  0  0  0  0  0  0  0
    4.3619   -2.5740    0.0000 O   0  0  0  0  0  0  0  0  0
    5.0764   -2.1615    0.0000 C   0  0  0  0  0  0  0  0  0
    5.7908   -2.5740    0.0000 C   0  0  0  0  0  0  0  0  0
    6.5053   -2.1615    0.0000 C   0  0  0  0  0  0  0  0  0
    7.2198   -2.5740    0.0000 N   0  0  0  0  0  0  0  0  0
    7.9343   -2.1615    0.0000 C   0  0  0  0  0  0  0  0  0
    7.2198   -3.3990    0.0000 C   0  0  0  0  0  0  0  0  0
    2.9330   -2.5740    0.0000 C   0  0  0  0  0  0  0  0  0
    2.2185   -2.1615    0.0000 C   0  0  0  0  0  0  0  0  0
    1.5040   -2.5740    0.0000 C   0  0  0  0  0  0  0  0  0
    1.5040   -3.3990    0.0000 N   0  0  0  0  0  0  0  0  0
    2.2185   -3.8115    0.0000 C   0  0  0  0  0  0  0  0  0
    0.7895   -3.8115    0.0000 C   0  0  0  0  0  0  0  0  0
  1  2  1  0  0  0  0
  2  3  4  0  0  0  0
  2  7  4  0  0  0  0
  3  4  4  0  0  0  0
  4  5  4  0  0  0  0
  5  6  4  0  0  0  0
  6  7  4  0  0  0  0
  7  8  1  0  0  0  0
  8  9  1  0  0  0  0
  9 10  1  0  0  0  0
 10 11  4  0  0  0  0
 10 22  4  0  0  0  0
 11 12  4  0  0  0  0
 12 13  4  0  0  0  0
 13 14  1  0  0  0  0
 13 21  4  0  0  0  0
 14 15  1  0  0  0  0
 15 16  1  0  0  0  0
 16 17  1  0  0  0  0
 17 18  1  0  0  0  0
 18 19  1  0  0  0  0
 18 20  1  0  0  0  0
 21 22  4  0  0  0  0
 22 23  1  0  0  0  0
 23 24  1  0  0  0  0
 24 25  1  0  0  0  0
 24 26  1  0  0  0  0
M  END
>  <Name_Molregno>
383721

>  <HISTAMINE H3>
6.87

$$$$
383722
  Marvin  02231216192D 0   1.00000     0.00000     0

 29 31  0  0  0  0  0  0  0  0999 V2000
   -0.6433   -1.8640    0.0000 Cl  0  0  0  0  0  0  0  0  0
   -0.6433   -1.0390    0.0000 C   0  0  0  0  0  0  0  0  0
   -1.3578   -0.6265    0.0000 C   0  0  0  0  0  0  0  0  0
   -1.3578    0.1985    0.0000 C   0  0  0  0  0  0  0  0  0
   -0.6433    0.6110    0.0000 C   0  0  0  0  0  0  0  0  0
    0.0712    0.1985    0.0000 C   0  0  0  0  0  0  0  0  0
    0.0712   -0.6265    0.0000 C   0  0  0  0  0  0  0  0  0
    0.7856   -1.0390    0.0000 C   0  0  0  0  0  0  0  0  0
    1.5001   -0.6265    0.0000 O   0  0  0  0  0  0  0  0  0
    2.2146   -1.0390    0.0000 C   0  0  0  0  0  0  0  0  0
    2.9290   -0.6265    0.0000 C   0  0  0  0  0  0  0  0  0
    3.6435   -1.0390    0.0000 C   0  0  0  0  0  0  0  0  0
    3.6435   -1.8640    0.0000 C   0  0  0  0  0  0  0  0  0
    4.3580   -2.2765    0.0000 O   0  0  0  0  0  0  0  0  0
    5.0725   -1.8640    0.0000 C   0  0  0  0  0  0  0  0  0
    5.7869   -2.2765    0.0000 C   0  0  0  0  0  0  0  0  0
    6.5014   -1.8640    0.0000 C   0  0  0  0  0  0  0  0  0
    7.2159   -2.2765    0.0000 N   0  0  0  0  0  0  0  0  0
    7.9303   -1.8640    0.0000 C   0  0  0  0  0  0  0  0  0
    8.6448   -2.2765    0.0000 C   0  0  0  0  0  0  0  0  0
    8.6448   -3.1015    0.0000 C   0  0  0  0  0  0  0  0  0
    7.9303   -3.5140    0.0000 C   0  0  0  0  0  0  0  0  0
    7.2159   -3.1015    0.0000 C   0  0  0  0  0  0  0  0  0
    2.9290   -2.2765    0.0000 C   0  0  0  0  0  0  0  0  0
    2.2146   -1.8640    0.0000 C   0  0  0  0  0  0  0  0  0
    1.5001   -2.2765    0.0000 C   0  0  0  0  0  0  0  0  0
    1.5001   -3.1015    0.0000 N   0  0  0  0  0  0  0  0  0
    2.2146   -3.5140    0.0000 C   0  0  0  0  0  0  0  0  0
    0.7856   -3.5140    0.0000 C   0  0  0  0  0  0  0  0  0
  1  2  1  0  0  0  0
  2  3  4  0  0  0  0
  2  7  4  0  0  0  0
  3  4  4  0  0  0  0
  4  5  4  0  0  0  0
  5  6  4  0  0  0  0
  6  7  4  0  0  0  0
  7  8  1  0  0  0  0
  8  9  1  0  0  0  0
  9 10  1  0  0  0  0
 10 11  4  0  0  0  0
 10 25  4  0  0  0  0
 11 12  4  0  0  0  0
 12 13  4  0  0  0  0
 13 14  1  0  0  0  0
 13 24  4  0  0  0  0
 14 15  1  0  0  0  0
 15 16  1  0  0  0  0
 16 17  1  0  0  0  0
 17 18  1  0  0  0  0
 18 19  1  0  0  0  0
 18 23  1  0  0  0  0
 19 20  1  0  0  0  0
 20 21  1  0  0  0  0
 21 22  1  0  0  0  0
 22 23  1  0  0  0  0
 24 25  4  0  0  0  0
 25 26  1  0  0  0  0
 26 27  1  0  0  0  0
 27 28  1  0  0  0  0
 27 29  1  0  0  0  0
M  END
>  <Name_Molregno>
383722

>  <HISTAMINE H3>
8.62

$$$$
383724
  Marvin  02231216192D 0   1.00000     0.00000     0

 30 32  0  0  0  0  0  0  0  0999 V2000
   -0.6530   -1.9584    0.0000 Cl  0  0  0  0  0  0  0  0  0
   -0.6530   -1.1334    0.0000 C   0  0  0  0  0  0  0  0  0
   -1.3675   -0.7209    0.0000 C   0  0  0  0  0  0  0  0  0
   -1.3675    0.1041    0.0000 C   0  0  0  0  0  0  0  0  0
   -0.6530    0.5166    0.0000 C   0  0  0  0  0  0  0  0  0
    0.0615    0.1041    0.0000 C   0  0  0  0  0  0  0  0  0
    0.0615   -0.7209    0.0000 C   0  0  0  0  0  0  0  0  0
    0.7760   -1.1334    0.0000 C   0  0  0  0  0  0  0  0  0
    1.4904   -0.7209    0.0000 O   0  0  0  0  0  0  0  0  0
    2.2049   -1.1334    0.0000 C   0  0  0  0  0  0  0  0  0
    2.9194   -0.7209    0.0000 C   0  0  0  0  0  0  0  0  0
    3.6338   -1.1334    0.0000 C   0  0  0  0  0  0  0  0  0
    3.6338   -1.9584    0.0000 C   0  0  0  0  0  0  0  0  0
    4.3483   -2.3709    0.0000 O   0  0  0  0  0  0  0  0  0
    5.0628   -1.9584    0.0000 C   0  0  0  0  0  0  0  0  0
    5.7773   -2.3709    0.0000 C   0  0  0  0  0  0  0  0  0
    6.4917   -1.9584    0.0000 C   0  0  0  0  0  0  0  0  0
    7.2062   -2.3709    0.0000 N   0  0  0  0  0  0  0  0  0
    7.9207   -1.9584    0.0000 C   0  0  0  0  0  0  0  0  0
    8.6351   -2.3709    0.0000 C   0  0  0  0  0  0  0  0  0
    8.6351   -3.1959    0.0000 C   0  0  0  0  0  0  0  0  0
    7.9207   -3.6084    0.0000 C   0  0  0  0  0  0  0  0  0
    7.2062   -3.1959    0.0000 C   0  0  0  0  0  0  0  0  0
    2.9194   -2.3709    0.0000 C   0  0  0  0  0  0  0  0  0
    2.2049   -1.9584    0.0000 C   0  0  0  0  0  0  0  0  0
    1.4904   -2.3709    0.0000 C   0  0  0  0  0  0  0  0  0
    0.7760   -1.9584    0.0000 O   0  0  0  0  0  0  0  0  0
    1.4904   -3.1959    0.0000 N   0  0  0  0  0  0  0  0  0
    2.2049   -3.6084    0.0000 C   0  0  0  0  0  0  0  0  0
    0.7760   -3.6084    0.0000 C   0  0  0  0  0  0  0  0  0
  1  2  1  0  0  0  0
  2  3  4  0  0  0  0
  2  7  4  0  0  0  0
  3  4  4  0  0  0  0
  4  5  4  0  0  0  0
  5  6  4  0  0  0  0
  6  7  4  0  0  0  0
  7  8  1  0  0  0  0
  8  9  1  0  0  0  0
  9 10  1  0  0  0  0
 10 11  4  0  0  0  0
 10 25  4  0  0  0  0
 11 12  4  0  0  0  0
 12 13  4  0  0  0  0
 13 14  1  0  0  0  0
 13 24  4  0  0  0  0
 14 15  1  0  0  0  0
 15 16  1  0  0  0  0
 16 17  1  0  0  0  0
 17 18  1  0  0  0  0
 18 19  1  0  0  0  0
 18 23  1  0  0  0  0
 19 20  1  0  0  0  0
 20 21  1  0  0  0  0
 21 22  1  0  0  0  0
 22 23  1  0  0  0  0
 24 25  4  0  0  0  0
 25 26  1  0  0  0  0
 26 27  2  0  0  0  0
 26 28  1  0  0  0  0
 28 29  1  0  0  0  0
 28 30  1  0  0  0  0
M  END
>  <Name_Molregno>
383724

>  <HISTAMINE H3>
7.33

$$$$
383726
  Marvin  02231216192D 0   1.00000     0.00000     0

 30 32  0  0  0  0  0  0  0  0999 V2000
   -0.6530   -1.9584    0.0000 Cl  0  0  0  0  0  0  0  0  0
   -0.6530   -1.1334    0.0000 C   0  0  0  0  0  0  0  0  0
   -1.3675   -0.7209    0.0000 C   0  0  0  0  0  0  0  0  0
   -1.3675    0.1041    0.0000 C   0  0  0  0  0  0  0  0  0
   -0.6530    0.5166    0.0000 C   0  0  0  0  0  0  0  0  0
    0.0615    0.1041    0.0000 C   0  0  0  0  0  0  0  0  0
    0.0615   -0.7209    0.0000 C   0  0  0  0  0  0  0  0  0
    0.7760   -1.1334    0.0000 C   0  0  0  0  0  0  0  0  0
    1.4904   -0.7209    0.0000 O   0  0  0  0  0  0  0  0  0
    2.2049   -1.1334    0.0000 C   0  0  0  0  0  0  0  0  0
    2.9194   -0.7209    0.0000 C   0  0  0  0  0  0  0  0  0
    3.6338   -1.1334    0.0000 C   0  0  0  0  0  0  0  0  0
    3.6338   -1.9584    0.0000 C   0  0  0  0  0  0  0  0  0
    4.3483   -2.3709    0.0000 O   0  0  0  0  0  0  0  0  0
    5.0628   -1.9584    0.0000 C   0  0  0  0  0  0  0  0  0
    5.7773   -2.3709    0.0000 C   0  0  0  0  0  0  0  0  0
    6.4917   -1.9584    0.0000 C   0  0  0  0  0  0  0  0  0
    7.2062   -2.3709    0.0000 N   0  0  0  0  0  0  0  0  0
    7.9207   -1.9584    0.0000 C   0  0  0  0  0  0  0  0  0
    8.6351   -2.3709    0.0000 C   0  0  0  0  0  0  0  0  0
    8.6351   -3.1959    0.0000 O   0  0  0  0  0  0  0  0  0
    7.9207   -3.6084    0.0000 C   0  0  0  0  0  0  0  0  0
    7.2062   -3.1959    0.0000 C   0  0  0  0  0  0  0  0  0
    2.9194   -2.3709    0.0000 C   0  0  0  0  0  0  0  0  0
    2.2049   -1.9584    0.0000 C   0  0  0  0  0  0  0  0  0
    1.4904   -2.3709    0.0000 C   0  0  0  0  0  0  0  0  0
    0.7760   -1.9584    0.0000 O   0  0  0  0  0  0  0  0  0
    1.4904   -3.1959    0.0000 N   0  0  0  0  0  0  0  0  0
    2.2049   -3.6084    0.0000 C   0  0  0  0  0  0  0  0  0
    0.7760   -3.6084    0.0000 C   0  0  0  0  0  0  0  0  0
  1  2  1  0  0  0  0
  2  3  4  0  0  0  0
  2  7  4  0  0  0  0
  3  4  4  0  0  0  0
  4  5  4  0  0  0  0
  5  6  4  0  0  0  0
  6  7  4  0  0  0  0
  7  8  1  0  0  0  0
  8  9  1  0  0  0  0
  9 10  1  0  0  0  0
 10 11  4  0  0  0  0
 10 25  4  0  0  0  0
 11 12  4  0  0  0  0
 12 13  4  0  0  0  0
 13 14  1  0  0  0  0
 13 24  4  0  0  0  0
 14 15  1  0  0  0  0
 15 16  1  0  0  0  0
 16 17  1  0  0  0  0
 17 18  1  0  0  0  0
 18 19  1  0  0  0  0
 18 23  1  0  0  0  0
 19 20  1  0  0  0  0
 20 21  1  0  0  0  0
 21 22  1  0  0  0  0
 22 23  1  0  0  0  0
 24 25  4  0  0  0  0
 25 26  1  0  0  0  0
 26 27  2  0  0  0  0
 26 28  1  0  0  0  0
 28 29  1  0  0  0  0
 28 30  1  0  0  0  0
M  END
>  <Name_Molregno>
383726

>  <HISTAMINE H3>
5.96

$$$$
383727
  Marvin  02231216192D 0   1.00000     0.00000     0

 29 31  0  0  1  0  0  0  0  0999 V2000
   -0.2538   -1.3289    0.0000 Cl  0  0  0  0  0  0  0  0  0
   -0.2538   -0.5039    0.0000 C   0  0  0  0  0  0  0  0  0
   -0.9683   -0.0914    0.0000 C   0  0  0  0  0  0  0  0  0
   -0.9683    0.7336    0.0000 C   0  0  0  0  0  0  0  0  0
   -0.2538    1.1461    0.0000 C   0  0  0  0  0  0  0  0  0
    0.4606    0.7336    0.0000 C   0  0  0  0  0  0  0  0  0
    0.4606   -0.0914    0.0000 C   0  0  0  0  0  0  0  0  0
    1.1751   -0.5039    0.0000 C   0  0  0  0  0  0  0  0  0
    1.8896   -0.0914    0.0000 O   0  0  0  0  0  0  0  0  0
    2.6041   -0.5039    0.0000 C   0  0  0  0  0  0  0  0  0
    3.3185   -0.0914    0.0000 C   0  0  0  0  0  0  0  0  0
    4.0330   -0.5039    0.0000 C   0  0  0  0  0  0  0  0  0
    4.0330   -1.3289    0.0000 C   0  0  0  0  0  0  0  0  0
    4.7475   -1.7414    0.0000 O   0  0  0  0  0  0  0  0  0
    4.7475   -2.5664    0.0000 C   0  0  0  0  0  0  0  0  0
    5.4619   -2.9789    0.0000 C   0  0  0  0  0  0  0  0  0
    5.4619   -3.8039    0.0000 C   0  0  0  0  0  0  0  0  0
    6.1294   -4.2889    0.0000 N   0  0  0  0  0  0  0  0  0
    5.8744   -5.0735    0.0000 C   0  0  0  0  0  0  0  0  0
    5.0494   -5.0735    0.0000 C   0  0  0  0  0  0  0  0  0
    4.7945   -4.2889    0.0000 C   0  0  0  0  0  0  0  0  0
    6.9140   -4.0339    0.0000 C   0  0  0  0  0  0  0  0  0
    3.3185   -1.7414    0.0000 C   0  0  0  0  0  0  0  0  0
    2.6041   -1.3289    0.0000 C   0  0  0  0  0  0  0  0  0
    1.8896   -1.7414    0.0000 C   0  0  0  0  0  0  0  0  0
    1.1751   -1.3289    0.0000 O   0  0  0  0  0  0  0  0  0
    1.8896   -2.5664    0.0000 N   0  0  0  0  0  0  0  0  0
    2.6041   -2.9789    0.0000 C   0  0  0  0  0  0  0  0  0
    1.1751   -2.9789    0.0000 C   0  0  0  0  0  0  0  0  0
  1  2  1  0  0  0  0
  2  3  4  0  0  0  0
  2  7  4  0  0  0  0
  3  4  4  0  0  0  0
  4  5  4  0  0  0  0
  5  6  4  0  0  0  0
  6  7  4  0  0  0  0
  7  8  1  0  0  0  0
  8  9  1  0  0  0  0
  9 10  1  0  0  0  0
 10 11  4  0  0  0  0
 10 24  4  0  0  0  0
 11 12  4  0  0  0  0
 12 13  4  0  0  0  0
 13 14  1  0  0  0  0
 13 23  4  0  0  0  0
 14 15  1  0  0  0  0
 15 16  1  0  0  0  0
 16 17  1  0  0  0  0
 17 18  1  0  0  0  0
 17 21  1  0  0  0  0
 18 19  1  0  0  0  0
 18 22  1  0  0  0  0
 19 20  1  0  0  0  0
 20 21  1  0  0  0  0
 23 24  4  0  0  0  0
 24 25  1  0  0  0  0
 25 26  2  0  0  0  0
 25 27  1  0  0  0  0
 27 28  1  0  0  0  0
 27 29  1  0  0  0  0
M  END
>  <Name_Molregno>
383727

>  <HISTAMINE H3>
5.74

$$$$
383728
  Marvin  02231216192D 0   1.00000     0.00000     0

 31 33  0  0  0  0  0  0  0  0999 V2000
  -11.1237    0.5368    0.0000 O   0  0  0  0  0  0  0  0  0
  -10.4093    0.9493    0.0000 C   0  0  0  0  0  0  0  0  0
   -9.6948    0.5368    0.0000 C   0  0  0  0  0  0  0  0  0
   -9.6948   -0.2882    0.0000 N   0  0  0  0  0  0  0  0  0
  -10.4093   -0.7007    0.0000 C   0  0  0  0  0  0  0  0  0
  -11.1237   -0.2882    0.0000 C   0  0  0  0  0  0  0  0  0
   -8.9803   -0.7007    0.0000 C   0  0  0  0  0  0  0  0  0
   -8.2659   -0.2882    0.0000 C   0  0  0  0  0  0  0  0  0
   -7.5514   -0.7007    0.0000 C   0  0  0  0  0  0  0  0  0
   -6.8369   -0.2882    0.0000 O   0  0  0  0  0  0  0  0  0
   -6.1224   -0.7007    0.0000 C   0  0  0  0  0  0  0  0  0
   -5.4080   -0.2882    0.0000 C   0  0  0  0  0  0  0  0  0
   -4.6935   -0.7007    0.0000 C   0  0  0  0  0  0  0  0  0
   -3.9790   -0.2882    0.0000 C   0  0  0  0  0  0  0  0  0
   -3.2646   -0.7007    0.0000 O   0  0  0  0  0  0  0  0  0
   -3.9790    0.5368    0.0000 N   0  0  0  0  0  0  0  0  0
   -4.6935    0.9493    0.0000 C   0  0  0  0  0  0  0  0  0
   -3.2646    0.9493    0.0000 C   0  0  0  0  0  0  0  0  0
   -4.6935   -1.5257    0.0000 C   0  0  0  0  0  0  0  0  0
   -3.9790   -1.9382    0.0000 O   0  0  0  0  0  0  0  0  0
   -3.2646   -1.5257    0.0000 C   0  0  0  0  0  0  0  0  0
   -2.5501   -1.9382    0.0000 C   0  0  0  0  0  0  0  0  0
   -1.8356   -1.5257    0.0000 C   0  0  0  0  0  0  0  0  0
   -1.1211   -1.9382    0.0000 C   0  0  0  0  0  0  0  0  0
   -1.1211   -2.7632    0.0000 C   0  0  0  0  0  0  0  0  0
   -1.8356   -3.1757    0.0000 C   0  0  0  0  0  0  0  0  0
   -2.5501   -2.7632    0.0000 C   0  0  0  0  0  0  0  0  0
   -3.2646   -3.1757    0.0000 O   0  0  0  0  0  0  0  0  0
   -3.2646   -4.0007    0.0000 C   0  0  0  0  0  0  0  0  0
   -5.4080   -1.9382    0.0000 C   0  0  0  0  0  0  0  0  0
   -6.1224   -1.5257    0.0000 C   0  0  0  0  0  0  0  0  0
  1  2  1  0  0  0  0
  1  6  1  0  0  0  0
  2  3  1  0  0  0  0
  3  4  1  0  0  0  0
  4  5  1  0  0  0  0
  4  7  1  0  0  0  0
  5  6  1  0  0  0  0
  7  8  1  0  0  0  0
  8  9  1  0  0  0  0
  9 10  1  0  0  0  0
 10 11  1  0  0  0  0
 11 12  4  0  0  0  0
 11 31  4  0  0  0  0
 12 13  4  0  0  0  0
 13 14  1  0  0  0  0
 13 19  4  0  0  0  0
 14 15  2  0  0  0  0
 14 16  1  0  0  0  0
 16 17  1  0  0  0  0
 16 18  1  0  0  0  0
 19 20  1  0  0  0  0
 19 30  4  0  0  0  0
 20 21  1  0  0  0  0
 21 22  1  0  0  0  0
 22 23  4  0  0  0  0
 22 27  4  0  0  0  0
 23 24  4  0  0  0  0
 24 25  4  0  0  0  0
 25 26  4  0  0  0  0
 26 27  4  0  0  0  0
 27 28  1  0  0  0  0
 28 29  1  0  0  0  0
 30 31  4  0  0  0  0
M  END
>  <Name_Molregno>
383728

>  <HISTAMINE H3>
5.86

$$$$
383729
  Marvin  02231216192D 0   1.00000     0.00000     0

 31 33  0  0  0  0  0  0  0  0999 V2000
   -3.2602    1.2791    0.0000 O   0  0  0  0  0  0  0  0  0
   -3.9747    0.8666    0.0000 C   0  0  0  0  0  0  0  0  0
   -4.6892    1.2791    0.0000 C   0  0  0  0  0  0  0  0  0
   -5.4036    0.8666    0.0000 C   0  0  0  0  0  0  0  0  0
   -6.1181    1.2791    0.0000 C   0  0  0  0  0  0  0  0  0
   -6.1181    2.1041    0.0000 C   0  0  0  0  0  0  0  0  0
   -5.4036    2.5166    0.0000 C   0  0  0  0  0  0  0  0  0
   -4.6892    2.1041    0.0000 C   0  0  0  0  0  0  0  0  0
   -3.9747    2.5166    0.0000 O   0  0  0  0  0  0  0  0  0
   -3.9747    3.3416    0.0000 C   0  0  0  0  0  0  0  0  0
   -2.5457    0.8666    0.0000 C   0  0  0  0  0  0  0  0  0
   -1.8313    1.2791    0.0000 C   0  0  0  0  0  0  0  0  0
   -1.1168    0.8666    0.0000 C   0  0  0  0  0  0  0  0  0
   -1.1168    0.0416    0.0000 C   0  0  0  0  0  0  0  0  0
   -0.4023   -0.3709    0.0000 O   0  0  0  0  0  0  0  0  0
    0.3121    0.0416    0.0000 C   0  0  0  0  0  0  0  0  0
    1.0266   -0.3709    0.0000 C   0  0  0  0  0  0  0  0  0
    1.7411    0.0416    0.0000 C   0  0  0  0  0  0  0  0  0
    2.4556   -0.3709    0.0000 N   0  0  0  0  0  0  0  0  0
    3.1700    0.0416    0.0000 C   0  0  0  0  0  0  0  0  0
    3.8845   -0.3709    0.0000 C   0  0  0  0  0  0  0  0  0
    3.8845   -1.1959    0.0000 C   0  0  0  0  0  0  0  0  0
    3.1700   -1.6084    0.0000 C   0  0  0  0  0  0  0  0  0
    2.4556   -1.1959    0.0000 C   0  0  0  0  0  0  0  0  0
   -1.8313   -0.3709    0.0000 C   0  0  0  0  0  0  0  0  0
   -2.5457    0.0416    0.0000 C   0  0  0  0  0  0  0  0  0
   -3.2602   -0.3709    0.0000 C   0  0  0  0  0  0  0  0  0
   -3.9747    0.0416    0.0000 O   0  0  0  0  0  0  0  0  0
   -3.2602   -1.1959    0.0000 N   0  0  0  0  0  0  0  0  0
   -2.5457   -1.6084    0.0000 C   0  0  0  0  0  0  0  0  0
   -3.9747   -1.6084    0.0000 C   0  0  0  0  0  0  0  0  0
  1  2  1  0  0  0  0
  1 11  1  0  0  0  0
  2  3  1  0  0  0  0
  3  4  4  0  0  0  0
  3  8  4  0  0  0  0
  4  5  4  0  0  0  0
  5  6  4  0  0  0  0
  6  7  4  0  0  0  0
  7  8  4  0  0  0  0
  8  9  1  0  0  0  0
  9 10  1  0  0  0  0
 11 12  4  0  0  0  0
 11 26  4  0  0  0  0
 12 13  4  0  0  0  0
 13 14  4  0  0  0  0
 14 15  1  0  0  0  0
 14 25  4  0  0  0  0
 15 16  1  0  0  0  0
 16 17  1  0  0  0  0
 17 18  1  0  0  0  0
 18 19  1  0  0  0  0
 19 20  1  0  0  0  0
 19 24  1  0  0  0  0
 20 21  1  0  0  0  0
 21 22  1  0  0  0  0
 22 23  1  0  0  0  0
 23 24  1  0  0  0  0
 25 26  4  0  0  0  0
 26 27  1  0  0  0  0
 27 28  2  0  0  0  0
 27 29  1  0  0  0  0
 29 30  1  0  0  0  0
 29 31  1  0  0  0  0
M  END
>  <Name_Molregno>
383729

>  <HISTAMINE H3>
7.92

$$$$
390008
  Marvin  02231216192D 0   1.00000     0.00000     0

 39 44  0  0  0  0  0  0  0  0999 V2000
    0.3222    0.7886    0.0000 S   0  0  0  0  0  0  0  0  0
   -0.0134    0.0349    0.0000 C   0  0  0  0  0  0  0  0  0
    0.4715   -0.6325    0.0000 C   0  0  0  0  0  0  0  0  0
    0.1360   -1.3862    0.0000 C   0  0  0  0  0  0  0  0  0
    0.6209   -2.0537    0.0000 N   0  0  0  0  0  0  0  0  0
    1.4326   -1.9063    0.0000 C   0  0  0  0  0  0  0  0  0
    2.0539   -2.4491    0.0000 C   0  0  0  0  0  0  0  0  0
    2.0169   -3.2733    0.0000 C   0  0  0  0  0  0  0  0  0
    2.7706   -3.6089    0.0000 C   0  0  0  0  0  0  0  0  0
    2.8568   -4.4294    0.0000 C   0  0  0  0  0  0  0  0  0
    2.1894   -4.9143    0.0000 C   0  0  0  0  0  0  0  0  0
    1.4357   -4.5787    0.0000 C   0  0  0  0  0  0  0  0  0
    1.3495   -3.7582    0.0000 C   0  0  0  0  0  0  0  0  0
    0.5542   -3.5388    0.0000 C   0  0  0  0  0  0  0  0  0
    0.2299   -2.7801    0.0000 C   0  0  0  0  0  0  0  0  0
    3.6105   -4.7649    0.0000 C   0  0  0  0  0  0  0  0  0
    4.3250   -4.3524    0.0000 N   0  0  0  0  0  0  0  0  0
    4.9380   -4.9044    0.0000 N   0  0  0  0  0  0  0  0  0
    4.6025   -5.6581    0.0000 C   0  0  0  0  0  0  0  0  0
    3.7820   -5.5719    0.0000 C   0  0  0  0  0  0  0  0  0
    5.0150   -6.3726    0.0000 C   0  0  0  0  0  0  0  0  0
    4.4112   -3.5319    0.0000 C   0  0  0  0  0  0  0  0  0
   -0.1628    1.4560    0.0000 C   0  0  0  0  0  0  0  0  0
   -0.9878    1.4560    0.0000 N   0  0  0  0  0  0  0  0  0
   -1.2427    2.2406    0.0000 N   0  0  0  0  0  0  0  0  0
   -0.5753    2.7256    0.0000 C   0  0  0  0  0  0  0  0  0
    0.0922    2.2406    0.0000 N   0  0  0  0  0  0  0  0  0
    0.8768    2.4956    0.0000 C   0  0  0  0  0  0  0  0  0
   -0.5753    3.5506    0.0000 C   0  0  0  0  0  0  0  0  0
    0.1392    3.9631    0.0000 C   0  0  0  0  0  0  0  0  0
    0.1392    4.7881    0.0000 C   0  0  0  0  0  0  0  0  0
    0.8537    5.2006    0.0000 N   0  0  0  0  0  0  0  0  0
    1.5681    4.7881    0.0000 C   0  0  0  0  0  0  0  0  0
    1.5681    3.9631    0.0000 C   0  0  0  0  0  0  0  0  0
    0.8537    3.5506    0.0000 C   0  0  0  0  0  0  0  0  0
    2.2826    5.2006    0.0000 C   0  0  0  0  0  0  0  0  0
   -0.5753    5.2006    0.0000 C   0  0  0  0  0  0  0  0  0
   -1.2897    4.7881    0.0000 C   0  0  0  0  0  0  0  0  0
   -1.2897    3.9631    0.0000 C   0  0  0  0  0  0  0  0  0
  1  2  1  0  0  0  0
  1 23  1  0  0  0  0
  2  3  1  0  0  0  0
  3  4  1  0  0  0  0
  4  5  1  0  0  0  0
  5  6  1  0  0  0  0
  5 15  1  0  0  0  0
  6  7  1  0  0  0  0
  7  8  1  0  0  0  0
  8  9  4  0  0  0  0
  8 13  4  0  0  0  0
  9 10  4  0  0  0  0
 10 11  4  0  0  0  0
 10 16  1  0  0  0  0
 11 12  4  0  0  0  0
 12 13  4  0  0  0  0
 13 14  1  0  0  0  0
 14 15  1  0  0  0  0
 16 17  4  0  0  0  0
 16 20  4  0  0  0  0
 17 18  4  0  0  0  0
 17 22  1  0  0  0  0
 18 19  4  0  0  0  0
 19 20  4  0  0  0  0
 19 21  1  0  0  0  0
 23 24  4  0  0  0  0
 23 27  4  0  0  0  0
 24 25  4  0  0  0  0
 25 26  4  0  0  0  0
 26 27  4  0  0  0  0
 26 29  1  0  0  0  0
 27 28  1  0  0  0  0
 29 30  4  0  0  0  0
 29 39  4  0  0  0  0
 30 31  4  0  0  0  0
 30 35  4  0  0  0  0
 31 32  4  0  0  0  0
 31 37  4  0  0  0  0
 32 33  4  0  0  0  0
 33 34  4  0  0  0  0
 33 36  1  0  0  0  0
 34 35  4  0  0  0  0
 37 38  4  0  0  0  0
 38 39  4  0  0  0  0
M  END
>  <Name_Molregno>
390008

>  <5-HT1A>
6.2

>  <5-HT1B>
6.3

>  <5-HT1D>
6.7

>  <5-HT2A>
5.4

>  <5-HT2C>
5.4

>  <5-HT6>
5.9

>  <5-HT7>
5.7

>  <Alpha-1A>
6.2

>  <Alpha-1B>
5.7

>  <DOPAMINE D2>
6.25

>  <DOPAMINE D3>
8.7

>  <HISTAMINE H3>
6.5

$$$$
393960
  Marvin  02231216192D 0   1.00000     0.00000     0

 29 32  0  0  1  0  0  0  0  0999 V2000
   -1.8924   -2.0009    0.0000 O   0  0  0  0  0  0  0  0  0
   -2.6069   -1.5884    0.0000 C   0  0  0  0  0  0  0  0  0
   -3.3214   -2.0009    0.0000 C   0  0  0  0  0  0  0  0  0
   -4.0358   -1.5884    0.0000 C   0  0  0  0  0  0  0  0  0
   -4.7503   -2.0009    0.0000 N   0  0  0  0  0  0  0  0  0
   -4.7503   -2.8259    0.0000 C   0  0  0  0  0  0  0  0  0
   -5.4648   -3.2384    0.0000 C   0  0  0  0  0  0  0  0  0
   -6.1793   -2.8259    0.0000 C   0  0  0  0  0  0  0  0  0
   -6.1793   -2.0009    0.0000 C   0  0  0  0  0  0  0  0  0
   -5.4648   -1.5884    0.0000 C   0  0  0  0  0  0  0  0  0
   -1.1780   -1.5884    0.0000 C   0  0  0  0  0  0  0  0  0
   -0.4635   -2.0009    0.0000 C   0  0  0  0  0  0  0  0  0
    0.2510   -1.5884    0.0000 C   0  0  0  0  0  0  0  0  0
    0.2510   -0.7634    0.0000 C   0  0  0  0  0  0  0  0  0
   -0.4635   -0.3509    0.0000 C   0  0  0  0  0  0  0  0  0
   -1.1780   -0.7634    0.0000 C   0  0  0  0  0  0  0  0  0
    0.9655   -0.3509    0.0000 C   0  0  0  0  0  0  0  0  0
    1.6799   -0.7634    0.0000 C   0  0  0  0  0  0  0  0  0
    1.6799   -1.5884    0.0000 N   0  0  0  0  0  0  0  0  0
    0.9655   -2.0009    0.0000 C   0  0  0  0  0  0  0  0  0
    2.3944   -2.0009    0.0000 C   0  0  0  0  0  0  0  0  0
    0.9655    0.4741    0.0000 C   0  0  0  0  0  0  0  0  0
    0.2510    0.8866    0.0000 C   0  0  0  0  0  0  0  0  0
    0.2510    1.7116    0.0000 C   0  0  0  0  0  0  0  0  0
    0.9655    2.1241    0.0000 C   0  0  0  0  0  0  0  0  0
    0.9655    2.9491    0.0000 O   0  0  0  0  0  0  0  0  0
    1.6799    3.3616    0.0000 C   0  0  0  0  0  0  0  0  0
    1.6799    1.7116    0.0000 C   0  0  0  0  0  0  0  0  0
    1.6799    0.8866    0.0000 C   0  0  0  0  0  0  0  0  0
  1  2  1  0  0  0  0
  1 11  1  0  0  0  0
  2  3  1  0  0  0  0
  3  4  1  0  0  0  0
  4  5  1  0  0  0  0
  5  6  1  0  0  0  0
  5 10  1  0  0  0  0
  6  7  1  0  0  0  0
  7  8  1  0  0  0  0
  8  9  1  0  0  0  0
  9 10  1  0  0  0  0
 11 12  4  0  0  0  0
 11 16  4  0  0  0  0
 12 13  4  0  0  0  0
 13 14  4  0  0  0  0
 13 20  1  0  0  0  0
 14 15  4  0  0  0  0
 14 17  1  0  0  0  0
 15 16  4  0  0  0  0
 17 18  1  0  0  0  0
 17 22  1  0  0  0  0
 18 19  1  0  0  0  0
 19 20  1  0  0  0  0
 19 21  1  0  0  0  0
 22 23  4  0  0  0  0
 22 29  4  0  0  0  0
 23 24  4  0  0  0  0
 24 25  4  0  0  0  0
 25 26  1  0  0  0  0
 25 28  4  0  0  0  0
 26 27  1  0  0  0  0
 28 29  4  0  0  0  0
M  END
>  <Name_Molregno>
393960

>  <HISTAMINE H3>
8.7

>  <Serotonin transporter>
8.36

$$$$
393961
  Marvin  02231216192D 0   1.00000     0.00000     0

 29 32  0  0  1  0  0  0  0  0999 V2000
  -10.4209   -3.3835    0.0000 O   0  0  0  0  0  0  0  0  0
  -10.4209   -2.5585    0.0000 C   0  0  0  0  0  0  0  0  0
   -9.7064   -2.1460    0.0000 C   0  0  0  0  0  0  0  0  0
   -8.9919   -2.5585    0.0000 N   0  0  0  0  0  0  0  0  0
   -8.9919   -3.3835    0.0000 C   0  0  0  0  0  0  0  0  0
   -9.7064   -3.7960    0.0000 C   0  0  0  0  0  0  0  0  0
   -8.2774   -2.1460    0.0000 C   0  0  0  0  0  0  0  0  0
   -7.5630   -2.5585    0.0000 C   0  0  0  0  0  0  0  0  0
   -6.8485   -2.1460    0.0000 C   0  0  0  0  0  0  0  0  0
   -6.1340   -2.5585    0.0000 O   0  0  0  0  0  0  0  0  0
   -5.4196   -2.1460    0.0000 C   0  0  0  0  0  0  0  0  0
   -4.7051   -2.5585    0.0000 C   0  0  0  0  0  0  0  0  0
   -3.9906   -2.1460    0.0000 C   0  0  0  0  0  0  0  0  0
   -3.9906   -1.3210    0.0000 C   0  0  0  0  0  0  0  0  0
   -4.7051   -0.9085    0.0000 C   0  0  0  0  0  0  0  0  0
   -5.4196   -1.3210    0.0000 C   0  0  0  0  0  0  0  0  0
   -3.2761   -0.9085    0.0000 C   0  0  0  0  0  0  0  0  0
   -2.5617   -1.3210    0.0000 C   0  0  0  0  0  0  0  0  0
   -2.5617   -2.1460    0.0000 N   0  0  0  0  0  0  0  0  0
   -3.2761   -2.5585    0.0000 C   0  0  0  0  0  0  0  0  0
   -1.8472   -2.5585    0.0000 C   0  0  0  0  0  0  0  0  0
   -3.2761   -0.0835    0.0000 C   0  0  0  0  0  0  0  0  0
   -3.9906    0.3290    0.0000 C   0  0  0  0  0  0  0  0  0
   -3.9906    1.1540    0.0000 C   0  0  0  0  0  0  0  0  0
   -3.2761    1.5665    0.0000 C   0  0  0  0  0  0  0  0  0
   -3.2761    2.3915    0.0000 O   0  0  0  0  0  0  0  0  0
   -2.5617    2.8040    0.0000 C   0  0  0  0  0  0  0  0  0
   -2.5617    1.1540    0.0000 C   0  0  0  0  0  0  0  0  0
   -2.5617    0.3290    0.0000 C   0  0  0  0  0  0  0  0  0
  1  2  1  0  0  0  0
  1  6  1  0  0  0  0
  2  3  1  0  0  0  0
  3  4  1  0  0  0  0
  4  5  1  0  0  0  0
  4  7  1  0  0  0  0
  5  6  1  0  0  0  0
  7  8  1  0  0  0  0
  8  9  1  0  0  0  0
  9 10  1  0  0  0  0
 10 11  1  0  0  0  0
 11 12  4  0  0  0  0
 11 16  4  0  0  0  0
 12 13  4  0  0  0  0
 13 14  4  0  0  0  0
 13 20  1  0  0  0  0
 14 15  4  0  0  0  0
 14 17  1  0  0  0  0
 15 16  4  0  0  0  0
 17 18  1  0  0  0  0
 17 22  1  0  0  0  0
 18 19  1  0  0  0  0
 19 20  1  0  0  0  0
 19 21  1  0  0  0  0
 22 23  4  0  0  0  0
 22 29  4  0  0  0  0
 23 24  4  0  0  0  0
 24 25  4  0  0  0  0
 25 26  1  0  0  0  0
 25 28  4  0  0  0  0
 26 27  1  0  0  0  0
 28 29  4  0  0  0  0
M  END
>  <Name_Molregno>
393961

>  <HISTAMINE H3>
8.42

>  <Serotonin transporter>
8.19

$$$$
393962
  Marvin  02231216192D 0   1.00000     0.00000     0

 30 33  0  0  1  0  0  0  0  0999 V2000
    0.2982   -3.6769    0.0000 F   0  0  0  0  0  0  0  0  0
    1.0126   -3.2644    0.0000 C   0  0  0  0  0  0  0  0  0
    1.0126   -2.4394    0.0000 C   0  0  0  0  0  0  0  0  0
    1.7271   -2.0269    0.0000 C   0  0  0  0  0  0  0  0  0
    2.4416   -2.4394    0.0000 N   0  0  0  0  0  0  0  0  0
    2.4416   -3.2644    0.0000 C   0  0  0  0  0  0  0  0  0
    1.7271   -3.6769    0.0000 C   0  0  0  0  0  0  0  0  0
    3.1561   -2.0269    0.0000 C   0  0  0  0  0  0  0  0  0
    3.8705   -2.4394    0.0000 C   0  0  0  0  0  0  0  0  0
    4.5850   -2.0269    0.0000 C   0  0  0  0  0  0  0  0  0
    5.2995   -2.4394    0.0000 O   0  0  0  0  0  0  0  0  0
    6.0139   -2.0269    0.0000 C   0  0  0  0  0  0  0  0  0
    6.7284   -2.4394    0.0000 C   0  0  0  0  0  0  0  0  0
    7.4429   -2.0269    0.0000 C   0  0  0  0  0  0  0  0  0
    7.4429   -1.2019    0.0000 C   0  0  0  0  0  0  0  0  0
    6.7284   -0.7894    0.0000 C   0  0  0  0  0  0  0  0  0
    6.0139   -1.2019    0.0000 C   0  0  0  0  0  0  0  0  0
    8.1574   -0.7894    0.0000 C   0  0  0  0  0  0  0  0  0
    8.8718   -1.2019    0.0000 C   0  0  0  0  0  0  0  0  0
    8.8718   -2.0269    0.0000 N   0  0  0  0  0  0  0  0  0
    8.1574   -2.4394    0.0000 C   0  0  0  0  0  0  0  0  0
    9.5863   -2.4394    0.0000 C   0  0  0  0  0  0  0  0  0
    8.1574    0.0356    0.0000 C   0  0  0  0  0  0  0  0  0
    7.4429    0.4481    0.0000 C   0  0  0  0  0  0  0  0  0
    7.4429    1.2731    0.0000 C   0  0  0  0  0  0  0  0  0
    8.1574    1.6856    0.0000 C   0  0  0  0  0  0  0  0  0
    8.1574    2.5106    0.0000 O   0  0  0  0  0  0  0  0  0
    8.8718    2.9231    0.0000 C   0  0  0  0  0  0  0  0  0
    8.8718    1.2731    0.0000 C   0  0  0  0  0  0  0  0  0
    8.8718    0.4481    0.0000 C   0  0  0  0  0  0  0  0  0
  1  2  1  0  0  0  0
  2  3  1  0  0  0  0
  2  7  1  0  0  0  0
  3  4  1  0  0  0  0
  4  5  1  0  0  0  0
  5  6  1  0  0  0  0
  5  8  1  0  0  0  0
  6  7  1  0  0  0  0
  8  9  1  0  0  0  0
  9 10  1  0  0  0  0
 10 11  1  0  0  0  0
 11 12  1  0  0  0  0
 12 13  4  0  0  0  0
 12 17  4  0  0  0  0
 13 14  4  0  0  0  0
 14 15  4  0  0  0  0
 14 21  1  0  0  0  0
 15 16  4  0  0  0  0
 15 18  1  0  0  0  0
 16 17  4  0  0  0  0
 18 19  1  0  0  0  0
 18 23  1  0  0  0  0
 19 20  1  0  0  0  0
 20 21  1  0  0  0  0
 20 22  1  0  0  0  0
 23 24  4  0  0  0  0
 23 30  4  0  0  0  0
 24 25  4  0  0  0  0
 25 26  4  0  0  0  0
 26 27  1  0  0  0  0
 26 29  4  0  0  0  0
 27 28  1  0  0  0  0
 29 30  4  0  0  0  0
M  END
>  <Name_Molregno>
393962

>  <HISTAMINE H3>
8.52

>  <Serotonin transporter>
8.45

$$$$
393963
  Marvin  02231216192D 0   1.00000     0.00000     0

 31 34  0  0  1  0  0  0  0  0999 V2000
   -0.2796   -3.9312    0.0000 F   0  0  0  0  0  0  0  0  0
    0.5329   -4.0745    0.0000 C   0  0  0  0  0  0  0  0  0
    0.2507   -4.8497    0.0000 F   0  0  0  0  0  0  0  0  0
    0.5329   -3.2495    0.0000 C   0  0  0  0  0  0  0  0  0
    1.2474   -2.8370    0.0000 C   0  0  0  0  0  0  0  0  0
    1.9618   -3.2495    0.0000 N   0  0  0  0  0  0  0  0  0
    1.9618   -4.0745    0.0000 C   0  0  0  0  0  0  0  0  0
    1.2474   -4.4870    0.0000 C   0  0  0  0  0  0  0  0  0
    2.6763   -2.8370    0.0000 C   0  0  0  0  0  0  0  0  0
    3.3908   -3.2495    0.0000 C   0  0  0  0  0  0  0  0  0
    4.1052   -2.8370    0.0000 C   0  0  0  0  0  0  0  0  0
    4.8197   -3.2495    0.0000 O   0  0  0  0  0  0  0  0  0
    5.5342   -2.8370    0.0000 C   0  0  0  0  0  0  0  0  0
    6.2487   -3.2495    0.0000 C   0  0  0  0  0  0  0  0  0
    6.9631   -2.8370    0.0000 C   0  0  0  0  0  0  0  0  0
    6.9631   -2.0120    0.0000 C   0  0  0  0  0  0  0  0  0
    6.2487   -1.5995    0.0000 C   0  0  0  0  0  0  0  0  0
    5.5342   -2.0120    0.0000 C   0  0  0  0  0  0  0  0  0
    7.6776   -1.5995    0.0000 C   0  0  0  0  0  0  0  0  0
    8.3921   -2.0120    0.0000 C   0  0  0  0  0  0  0  0  0
    8.3921   -2.8370    0.0000 N   0  0  0  0  0  0  0  0  0
    7.6776   -3.2495    0.0000 C   0  0  0  0  0  0  0  0  0
    9.1065   -3.2495    0.0000 C   0  0  0  0  0  0  0  0  0
    7.6776   -0.7745    0.0000 C   0  0  0  0  0  0  0  0  0
    6.9631   -0.3620    0.0000 C   0  0  0  0  0  0  0  0  0
    6.9631    0.4630    0.0000 C   0  0  0  0  0  0  0  0  0
    7.6776    0.8755    0.0000 C   0  0  0  0  0  0  0  0  0
    7.6776    1.7005    0.0000 O   0  0  0  0  0  0  0  0  0
    8.3921    2.1130    0.0000 C   0  0  0  0  0  0  0  0  0
    8.3921    0.4630    0.0000 C   0  0  0  0  0  0  0  0  0
    8.3921   -0.3620    0.0000 C   0  0  0  0  0  0  0  0  0
  1  2  1  0  0  0  0
  2  3  1  0  0  0  0
  2  4  1  0  0  0  0
  2  8  1  0  0  0  0
  4  5  1  0  0  0  0
  5  6  1  0  0  0  0
  6  7  1  0  0  0  0
  6  9  1  0  0  0  0
  7  8  1  0  0  0  0
  9 10  1  0  0  0  0
 10 11  1  0  0  0  0
 11 12  1  0  0  0  0
 12 13  1  0  0  0  0
 13 14  4  0  0  0  0
 13 18  4  0  0  0  0
 14 15  4  0  0  0  0
 15 16  4  0  0  0  0
 15 22  1  0  0  0  0
 16 17  4  0  0  0  0
 16 19  1  0  0  0  0
 17 18  4  0  0  0  0
 19 20  1  0  0  0  0
 19 24  1  0  0  0  0
 20 21  1  0  0  0  0
 21 22  1  0  0  0  0
 21 23  1  0  0  0  0
 24 25  4  0  0  0  0
 24 31  4  0  0  0  0
 25 26  4  0  0  0  0
 26 27  4  0  0  0  0
 27 28  1  0  0  0  0
 27 30  4  0  0  0  0
 28 29  1  0  0  0  0
 30 31  4  0  0  0  0
M  END
>  <Name_Molregno>
393963

>  <HISTAMINE H3>
8.06

>  <Serotonin transporter>
8.19

$$$$
393964
  Marvin  02231216192D 0   1.00000     0.00000     0

 31 34  0  0  1  0  0  0  0  0999 V2000
   -9.9118   -2.8924    0.0000 F   0  0  0  0  0  0  0  0  0
   -9.3815   -2.2604    0.0000 C   0  0  0  0  0  0  0  0  0
   -8.8512   -2.8924    0.0000 F   0  0  0  0  0  0  0  0  0
  -10.0959   -1.8479    0.0000 C   0  0  0  0  0  0  0  0  0
  -10.0959   -1.0229    0.0000 C   0  0  0  0  0  0  0  0  0
   -9.3815   -0.6104    0.0000 C   0  0  0  0  0  0  0  0  0
   -8.6670   -1.0229    0.0000 N   0  0  0  0  0  0  0  0  0
   -8.6670   -1.8479    0.0000 C   0  0  0  0  0  0  0  0  0
   -7.9525   -0.6104    0.0000 C   0  0  0  0  0  0  0  0  0
   -7.2381   -1.0229    0.0000 C   0  0  0  0  0  0  0  0  0
   -6.5236   -0.6104    0.0000 C   0  0  0  0  0  0  0  0  0
   -5.8091   -1.0229    0.0000 O   0  0  0  0  0  0  0  0  0
   -5.0947   -0.6104    0.0000 C   0  0  0  0  0  0  0  0  0
   -4.3802   -1.0229    0.0000 C   0  0  0  0  0  0  0  0  0
   -3.6657   -0.6104    0.0000 C   0  0  0  0  0  0  0  0  0
   -3.6657    0.2146    0.0000 C   0  0  0  0  0  0  0  0  0
   -4.3802    0.6271    0.0000 C   0  0  0  0  0  0  0  0  0
   -5.0947    0.2146    0.0000 C   0  0  0  0  0  0  0  0  0
   -2.9512    0.6271    0.0000 C   0  0  0  0  0  0  0  0  0
   -2.2368    0.2146    0.0000 C   0  0  0  0  0  0  0  0  0
   -2.2368   -0.6104    0.0000 N   0  0  0  0  0  0  0  0  0
   -2.9512   -1.0229    0.0000 C   0  0  0  0  0  0  0  0  0
   -1.5223   -1.0229    0.0000 C   0  0  0  0  0  0  0  0  0
   -2.9512    1.4521    0.0000 C   0  0  0  0  0  0  0  0  0
   -3.6657    1.8646    0.0000 C   0  0  0  0  0  0  0  0  0
   -3.6657    2.6896    0.0000 C   0  0  0  0  0  0  0  0  0
   -2.9512    3.1021    0.0000 C   0  0  0  0  0  0  0  0  0
   -2.9512    3.9271    0.0000 O   0  0  0  0  0  0  0  0  0
   -2.2368    4.3396    0.0000 C   0  0  0  0  0  0  0  0  0
   -2.2368    2.6896    0.0000 C   0  0  0  0  0  0  0  0  0
   -2.2368    1.8646    0.0000 C   0  0  0  0  0  0  0  0  0
  1  2  1  0  0  0  0
  2  3  1  0  0  0  0
  2  4  1  0  0  0  0
  2  8  1  0  0  0  0
  4  5  1  0  0  0  0
  5  6  1  0  0  0  0
  6  7  1  0  0  0  0
  7  8  1  0  0  0  0
  7  9  1  0  0  0  0
  9 10  1  0  0  0  0
 10 11  1  0  0  0  0
 11 12  1  0  0  0  0
 12 13  1  0  0  0  0
 13 14  4  0  0  0  0
 13 18  4  0  0  0  0
 14 15  4  0  0  0  0
 15 16  4  0  0  0  0
 15 22  1  0  0  0  0
 16 17  4  0  0  0  0
 16 19  1  0  0  0  0
 17 18  4  0  0  0  0
 19 20  1  0  0  0  0
 19 24  1  0  0  0  0
 20 21  1  0  0  0  0
 21 22  1  0  0  0  0
 21 23  1  0  0  0  0
 24 25  4  0  0  0  0
 24 31  4  0  0  0  0
 25 26  4  0  0  0  0
 26 27  4  0  0  0  0
 27 28  1  0  0  0  0
 27 30  4  0  0  0  0
 28 29  1  0  0  0  0
 30 31  4  0  0  0  0
M  END
>  <Name_Molregno>
393964

>  <HISTAMINE H3>
7.85

>  <Serotonin transporter>
8.09

$$$$
393965
  Marvin  02231216192D 0   1.00000     0.00000     0

 30 33  0  0  1  0  0  0  0  0999 V2000
   -1.5012   -1.8515    0.0000 O   0  0  0  0  0  0  0  0  0
   -2.2157   -1.4390    0.0000 C   0  0  0  0  0  0  0  0  0
   -2.9301   -1.8515    0.0000 C   0  0  0  0  0  0  0  0  0
   -3.6446   -1.4390    0.0000 C   0  0  0  0  0  0  0  0  0
   -4.3591   -1.8515    0.0000 N   0  0  0  0  0  0  0  0  0
   -4.3591   -2.6765    0.0000 C   0  0  0  0  0  0  0  0  0
   -5.0735   -3.0890    0.0000 C   0  0  0  0  0  0  0  0  0
   -5.7880   -2.6765    0.0000 C   0  0  0  0  0  0  0  0  0
   -6.5025   -3.0890    0.0000 O   0  0  0  0  0  0  0  0  0
   -5.7880   -1.8515    0.0000 C   0  0  0  0  0  0  0  0  0
   -5.0735   -1.4390    0.0000 C   0  0  0  0  0  0  0  0  0
   -0.7867   -1.4390    0.0000 C   0  0  0  0  0  0  0  0  0
   -0.0722   -1.8515    0.0000 C   0  0  0  0  0  0  0  0  0
    0.6422   -1.4390    0.0000 C   0  0  0  0  0  0  0  0  0
    0.6422   -0.6140    0.0000 C   0  0  0  0  0  0  0  0  0
   -0.0722   -0.2015    0.0000 C   0  0  0  0  0  0  0  0  0
   -0.7867   -0.6140    0.0000 C   0  0  0  0  0  0  0  0  0
    1.3567   -0.2015    0.0000 C   0  0  0  0  0  0  0  0  0
    2.0712   -0.6140    0.0000 C   0  0  0  0  0  0  0  0  0
    2.0712   -1.4390    0.0000 N   0  0  0  0  0  0  0  0  0
    1.3567   -1.8515    0.0000 C   0  0  0  0  0  0  0  0  0
    2.7856   -1.8515    0.0000 C   0  0  0  0  0  0  0  0  0
    1.3567    0.6235    0.0000 C   0  0  0  0  0  0  0  0  0
    0.6422    1.0360    0.0000 C   0  0  0  0  0  0  0  0  0
    0.6422    1.8610    0.0000 C   0  0  0  0  0  0  0  0  0
    1.3567    2.2735    0.0000 C   0  0  0  0  0  0  0  0  0
    1.3567    3.0985    0.0000 O   0  0  0  0  0  0  0  0  0
    2.0712    3.5110    0.0000 C   0  0  0  0  0  0  0  0  0
    2.0712    1.8610    0.0000 C   0  0  0  0  0  0  0  0  0
    2.0712    1.0360    0.0000 C   0  0  0  0  0  0  0  0  0
  1  2  1  0  0  0  0
  1 12  1  0  0  0  0
  2  3  1  0  0  0  0
  3  4  1  0  0  0  0
  4  5  1  0  0  0  0
  5  6  1  0  0  0  0
  5 11  1  0  0  0  0
  6  7  1  0  0  0  0
  7  8  1  0  0  0  0
  8  9  1  0  0  0  0
  8 10  1  0  0  0  0
 10 11  1  0  0  0  0
 12 13  4  0  0  0  0
 12 17  4  0  0  0  0
 13 14  4  0  0  0  0
 14 15  4  0  0  0  0
 14 21  1  0  0  0  0
 15 16  4  0  0  0  0
 15 18  1  0  0  0  0
 16 17  4  0  0  0  0
 18 19  1  0  0  0  0
 18 23  1  0  0  0  0
 19 20  1  0  0  0  0
 20 21  1  0  0  0  0
 20 22  1  0  0  0  0
 23 24  4  0  0  0  0
 23 30  4  0  0  0  0
 24 25  4  0  0  0  0
 25 26  4  0  0  0  0
 26 27  1  0  0  0  0
 26 29  4  0  0  0  0
 27 28  1  0  0  0  0
 29 30  4  0  0  0  0
M  END
>  <Name_Molregno>
393965

>  <HISTAMINE H3>
7.96

>  <Serotonin transporter>
8.42

$$$$
393966
  Marvin  02231216192D 0   1.00000     0.00000     0

 31 34  0  0  1  0  0  0  0  0999 V2000
   -1.0914   -1.7365    0.0000 O   0  0  0  0  0  0  0  0  0
   -1.8059   -1.3240    0.0000 C   0  0  0  0  0  0  0  0  0
   -2.5204   -1.7365    0.0000 C   0  0  0  0  0  0  0  0  0
   -3.2348   -1.3240    0.0000 C   0  0  0  0  0  0  0  0  0
   -3.9493   -1.7365    0.0000 N   0  0  0  0  0  0  0  0  0
   -3.9493   -2.5615    0.0000 C   0  0  0  0  0  0  0  0  0
   -4.6638   -2.9740    0.0000 C   0  0  0  0  0  0  0  0  0
   -5.3782   -2.5615    0.0000 C   0  0  0  0  0  0  0  0  0
   -5.3782   -1.7365    0.0000 C   0  0  0  0  0  0  0  0  0
   -4.6638   -1.3240    0.0000 C   0  0  0  0  0  0  0  0  0
   -6.0927   -2.9740    0.0000 C   0  0  0  0  0  0  0  0  0
   -6.8072   -2.5615    0.0000 O   0  0  0  0  0  0  0  0  0
   -0.3769   -1.3240    0.0000 C   0  0  0  0  0  0  0  0  0
    0.3375   -1.7365    0.0000 C   0  0  0  0  0  0  0  0  0
    1.0520   -1.3240    0.0000 C   0  0  0  0  0  0  0  0  0
    1.0520   -0.4990    0.0000 C   0  0  0  0  0  0  0  0  0
    0.3375   -0.0865    0.0000 C   0  0  0  0  0  0  0  0  0
   -0.3769   -0.4990    0.0000 C   0  0  0  0  0  0  0  0  0
    1.7665   -0.0865    0.0000 C   0  0  0  0  0  0  0  0  0
    2.4809   -0.4990    0.0000 C   0  0  0  0  0  0  0  0  0
    2.4809   -1.3240    0.0000 N   0  0  0  0  0  0  0  0  0
    1.7665   -1.7365    0.0000 C   0  0  0  0  0  0  0  0  0
    3.1954   -1.7365    0.0000 C   0  0  0  0  0  0  0  0  0
    1.7665    0.7385    0.0000 C   0  0  0  0  0  0  0  0  0
    1.0520    1.1510    0.0000 C   0  0  0  0  0  0  0  0  0
    1.0520    1.9760    0.0000 C   0  0  0  0  0  0  0  0  0
    1.7665    2.3885    0.0000 C   0  0  0  0  0  0  0  0  0
    1.7665    3.2135    0.0000 O   0  0  0  0  0  0  0  0  0
    2.4809    3.6260    0.0000 C   0  0  0  0  0  0  0  0  0
    2.4809    1.9760    0.0000 C   0  0  0  0  0  0  0  0  0
    2.4809    1.1510    0.0000 C   0  0  0  0  0  0  0  0  0
  1  2  1  0  0  0  0
  1 13  1  0  0  0  0
  2  3  1  0  0  0  0
  3  4  1  0  0  0  0
  4  5  1  0  0  0  0
  5  6  1  0  0  0  0
  5 10  1  0  0  0  0
  6  7  1  0  0  0  0
  7  8  1  0  0  0  0
  8  9  1  0  0  0  0
  8 11  1  0  0  0  0
  9 10  1  0  0  0  0
 11 12  1  0  0  0  0
 13 14  4  0  0  0  0
 13 18  4  0  0  0  0
 14 15  4  0  0  0  0
 15 16  4  0  0  0  0
 15 22  1  0  0  0  0
 16 17  4  0  0  0  0
 16 19  1  0  0  0  0
 17 18  4  0  0  0  0
 19 20  1  0  0  0  0
 19 24  1  0  0  0  0
 20 21  1  0  0  0  0
 21 22  1  0  0  0  0
 21 23  1  0  0  0  0
 24 25  4  0  0  0  0
 24 31  4  0  0  0  0
 25 26  4  0  0  0  0
 26 27  4  0  0  0  0
 27 28  1  0  0  0  0
 27 30  4  0  0  0  0
 28 29  1  0  0  0  0
 30 31  4  0  0  0  0
M  END
>  <Name_Molregno>
393966

>  <HISTAMINE H3>
8.02

>  <Serotonin transporter>
8.49

$$$$
393967
  Marvin  02231216192D 0   1.00000     0.00000     0

 31 34  0  0  1  0  0  0  0  0999 V2000
   -1.0904   -1.6850    0.0000 O   0  0  0  0  0  0  0  0  0
   -1.8049   -1.2725    0.0000 C   0  0  0  0  0  0  0  0  0
   -2.5193   -1.6850    0.0000 C   0  0  0  0  0  0  0  0  0
   -3.2338   -1.2725    0.0000 C   0  0  0  0  0  0  0  0  0
   -3.9483   -1.6850    0.0000 N   0  0  0  0  0  0  0  0  0
   -3.9483   -2.5100    0.0000 C   0  0  0  0  0  0  0  0  0
   -4.6628   -2.9225    0.0000 C   0  0  0  0  0  0  0  0  0
   -5.3772   -2.5100    0.0000 C   0  0  0  0  0  0  0  0  0
   -5.3772   -1.6850    0.0000 C   0  0  0  0  0  0  0  0  0
   -4.6628   -1.2725    0.0000 C   0  0  0  0  0  0  0  0  0
   -6.0917   -2.9225    0.0000 C   0  0  0  0  0  0  0  0  0
   -6.8062   -3.3350    0.0000 N   0  0  0  0  0  0  0  0  0
   -0.3759   -1.2725    0.0000 C   0  0  0  0  0  0  0  0  0
    0.3385   -1.6850    0.0000 C   0  0  0  0  0  0  0  0  0
    1.0530   -1.2725    0.0000 C   0  0  0  0  0  0  0  0  0
    1.0530   -0.4475    0.0000 C   0  0  0  0  0  0  0  0  0
    0.3385   -0.0350    0.0000 C   0  0  0  0  0  0  0  0  0
   -0.3759   -0.4475    0.0000 C   0  0  0  0  0  0  0  0  0
    1.7675   -0.0350    0.0000 C   0  0  0  0  0  0  0  0  0
    2.4819   -0.4475    0.0000 C   0  0  0  0  0  0  0  0  0
    2.4819   -1.2725    0.0000 N   0  0  0  0  0  0  0  0  0
    1.7675   -1.6850    0.0000 C   0  0  0  0  0  0  0  0  0
    3.1964   -1.6850    0.0000 C   0  0  0  0  0  0  0  0  0
    1.7675    0.7900    0.0000 C   0  0  0  0  0  0  0  0  0
    1.0530    1.2025    0.0000 C   0  0  0  0  0  0  0  0  0
    1.0530    2.0275    0.0000 C   0  0  0  0  0  0  0  0  0
    1.7675    2.4400    0.0000 C   0  0  0  0  0  0  0  0  0
    1.7675    3.2650    0.0000 O   0  0  0  0  0  0  0  0  0
    2.4819    3.6775    0.0000 C   0  0  0  0  0  0  0  0  0
    2.4819    2.0275    0.0000 C   0  0  0  0  0  0  0  0  0
    2.4819    1.2025    0.0000 C   0  0  0  0  0  0  0  0  0
  1  2  1  0  0  0  0
  1 13  1  0  0  0  0
  2  3  1  0  0  0  0
  3  4  1  0  0  0  0
  4  5  1  0  0  0  0
  5  6  1  0  0  0  0
  5 10  1  0  0  0  0
  6  7  1  0  0  0  0
  7  8  1  0  0  0  0
  8  9  1  0  0  0  0
  8 11  1  0  0  0  0
  9 10  1  0  0  0  0
 11 12  3  0  0  0  0
 13 14  4  0  0  0  0
 13 18  4  0  0  0  0
 14 15  4  0  0  0  0
 15 16  4  0  0  0  0
 15 22  1  0  0  0  0
 16 17  4  0  0  0  0
 16 19  1  0  0  0  0
 17 18  4  0  0  0  0
 19 20  1  0  0  0  0
 19 24  1  0  0  0  0
 20 21  1  0  0  0  0
 21 22  1  0  0  0  0
 21 23  1  0  0  0  0
 24 25  4  0  0  0  0
 24 31  4  0  0  0  0
 25 26  4  0  0  0  0
 26 27  4  0  0  0  0
 27 28  1  0  0  0  0
 27 30  4  0  0  0  0
 28 29  1  0  0  0  0
 30 31  4  0  0  0  0
M  END
>  <Name_Molregno>
393967

>  <HISTAMINE H3>
8.13

>  <Serotonin transporter>
8.28

$$$$
393968
  Marvin  02231216192D 0   1.00000     0.00000     0

 33 36  0  0  1  0  0  0  0  0999 V2000
   -0.1120   -2.9007    0.0000 F   0  0  0  0  0  0  0  0  0
    0.6025   -2.4882    0.0000 C   0  0  0  0  0  0  0  0  0
    1.0150   -3.2027    0.0000 F   0  0  0  0  0  0  0  0  0
    0.1900   -1.7738    0.0000 F   0  0  0  0  0  0  0  0  0
    1.3170   -2.0757    0.0000 C   0  0  0  0  0  0  0  0  0
    1.3170   -1.2507    0.0000 C   0  0  0  0  0  0  0  0  0
    2.0314   -0.8382    0.0000 C   0  0  0  0  0  0  0  0  0
    2.7459   -1.2507    0.0000 N   0  0  0  0  0  0  0  0  0
    2.7459   -2.0757    0.0000 C   0  0  0  0  0  0  0  0  0
    2.0314   -2.4882    0.0000 C   0  0  0  0  0  0  0  0  0
    3.4604   -0.8382    0.0000 C   0  0  0  0  0  0  0  0  0
    4.1749   -1.2507    0.0000 C   0  0  0  0  0  0  0  0  0
    4.8893   -0.8382    0.0000 C   0  0  0  0  0  0  0  0  0
    5.6038   -1.2507    0.0000 O   0  0  0  0  0  0  0  0  0
    6.3183   -0.8382    0.0000 C   0  0  0  0  0  0  0  0  0
    7.0327   -1.2507    0.0000 C   0  0  0  0  0  0  0  0  0
    7.7472   -0.8382    0.0000 C   0  0  0  0  0  0  0  0  0
    7.7472   -0.0132    0.0000 C   0  0  0  0  0  0  0  0  0
    7.0327    0.3993    0.0000 C   0  0  0  0  0  0  0  0  0
    6.3183   -0.0132    0.0000 C   0  0  0  0  0  0  0  0  0
    8.4617    0.3993    0.0000 C   0  0  0  0  0  0  0  0  0
    9.1762   -0.0132    0.0000 C   0  0  0  0  0  0  0  0  0
    9.1762   -0.8382    0.0000 N   0  0  0  0  0  0  0  0  0
    8.4617   -1.2507    0.0000 C   0  0  0  0  0  0  0  0  0
    9.8906   -1.2507    0.0000 C   0  0  0  0  0  0  0  0  0
    8.4617    1.2243    0.0000 C   0  0  0  0  0  0  0  0  0
    7.7472    1.6368    0.0000 C   0  0  0  0  0  0  0  0  0
    7.7472    2.4618    0.0000 C   0  0  0  0  0  0  0  0  0
    8.4617    2.8743    0.0000 C   0  0  0  0  0  0  0  0  0
    8.4617    3.6993    0.0000 O   0  0  0  0  0  0  0  0  0
    9.1762    4.1118    0.0000 C   0  0  0  0  0  0  0  0  0
    9.1762    2.4618    0.0000 C   0  0  0  0  0  0  0  0  0
    9.1762    1.6368    0.0000 C   0  0  0  0  0  0  0  0  0
  1  2  1  0  0  0  0
  2  3  1  0  0  0  0
  2  4  1  0  0  0  0
  2  5  1  0  0  0  0
  5  6  1  0  0  0  0
  5 10  1  0  0  0  0
  6  7  1  0  0  0  0
  7  8  1  0  0  0  0
  8  9  1  0  0  0  0
  8 11  1  0  0  0  0
  9 10  1  0  0  0  0
 11 12  1  0  0  0  0
 12 13  1  0  0  0  0
 13 14  1  0  0  0  0
 14 15  1  0  0  0  0
 15 16  4  0  0  0  0
 15 20  4  0  0  0  0
 16 17  4  0  0  0  0
 17 18  4  0  0  0  0
 17 24  1  0  0  0  0
 18 19  4  0  0  0  0
 18 21  1  0  0  0  0
 19 20  4  0  0  0  0
 21 22  1  0  0  0  0
 21 26  1  0  0  0  0
 22 23  1  0  0  0  0
 23 24  1  0  0  0  0
 23 25  1  0  0  0  0
 26 27  4  0  0  0  0
 26 33  4  0  0  0  0
 27 28  4  0  0  0  0
 28 29  4  0  0  0  0
 29 30  1  0  0  0  0
 29 32  4  0  0  0  0
 30 31  1  0  0  0  0
 32 33  4  0  0  0  0
M  END
>  <Name_Molregno>
393968

>  <HISTAMINE H3>
7.4

>  <Serotonin transporter>
7.85

$$$$
393971
  Marvin  02231216192D 0   1.00000     0.00000     0

 31 34  0  0  1  0  0  0  0  0999 V2000
   -9.6737   -3.1229    0.0000 S   0  0  0  0  0  0  0  0  0
  -10.4861   -2.9797    0.0000 O   0  0  0  0  0  0  0  0  0
   -9.9558   -3.8982    0.0000 O   0  0  0  0  0  0  0  0  0
   -9.6737   -2.2979    0.0000 C   0  0  0  0  0  0  0  0  0
   -8.9592   -1.8854    0.0000 C   0  0  0  0  0  0  0  0  0
   -8.2447   -2.2979    0.0000 N   0  0  0  0  0  0  0  0  0
   -8.2447   -3.1229    0.0000 C   0  0  0  0  0  0  0  0  0
   -8.9592   -3.5354    0.0000 C   0  0  0  0  0  0  0  0  0
   -7.5302   -1.8854    0.0000 C   0  0  0  0  0  0  0  0  0
   -6.8158   -2.2979    0.0000 C   0  0  0  0  0  0  0  0  0
   -6.1013   -1.8854    0.0000 C   0  0  0  0  0  0  0  0  0
   -5.3868   -2.2979    0.0000 O   0  0  0  0  0  0  0  0  0
   -4.6724   -1.8854    0.0000 C   0  0  0  0  0  0  0  0  0
   -3.9579   -2.2979    0.0000 C   0  0  0  0  0  0  0  0  0
   -3.2434   -1.8854    0.0000 C   0  0  0  0  0  0  0  0  0
   -3.2434   -1.0604    0.0000 C   0  0  0  0  0  0  0  0  0
   -3.9579   -0.6479    0.0000 C   0  0  0  0  0  0  0  0  0
   -4.6724   -1.0604    0.0000 C   0  0  0  0  0  0  0  0  0
   -2.5289   -0.6479    0.0000 C   0  0  0  0  0  0  0  0  0
   -1.8145   -1.0604    0.0000 C   0  0  0  0  0  0  0  0  0
   -1.8145   -1.8854    0.0000 N   0  0  0  0  0  0  0  0  0
   -2.5289   -2.2979    0.0000 C   0  0  0  0  0  0  0  0  0
   -1.1000   -2.2979    0.0000 C   0  0  0  0  0  0  0  0  0
   -2.5289    0.1771    0.0000 C   0  0  0  0  0  0  0  0  0
   -3.2434    0.5896    0.0000 C   0  0  0  0  0  0  0  0  0
   -3.2434    1.4146    0.0000 C   0  0  0  0  0  0  0  0  0
   -2.5289    1.8271    0.0000 C   0  0  0  0  0  0  0  0  0
   -2.5289    2.6521    0.0000 O   0  0  0  0  0  0  0  0  0
   -1.8145    3.0646    0.0000 C   0  0  0  0  0  0  0  0  0
   -1.8145    1.4146    0.0000 C   0  0  0  0  0  0  0  0  0
   -1.8145    0.5896    0.0000 C   0  0  0  0  0  0  0  0  0
  1  2  2  0  0  0  0
  1  3  2  0  0  0  0
  1  4  1  0  0  0  0
  1  8  1  0  0  0  0
  4  5  1  0  0  0  0
  5  6  1  0  0  0  0
  6  7  1  0  0  0  0
  6  9  1  0  0  0  0
  7  8  1  0  0  0  0
  9 10  1  0  0  0  0
 10 11  1  0  0  0  0
 11 12  1  0  0  0  0
 12 13  1  0  0  0  0
 13 14  4  0  0  0  0
 13 18  4  0  0  0  0
 14 15  4  0  0  0  0
 15 16  4  0  0  0  0
 15 22  1  0  0  0  0
 16 17  4  0  0  0  0
 16 19  1  0  0  0  0
 17 18  4  0  0  0  0
 19 20  1  0  0  0  0
 19 24  1  0  0  0  0
 20 21  1  0  0  0  0
 21 22  1  0  0  0  0
 21 23  1  0  0  0  0
 24 25  4  0  0  0  0
 24 31  4  0  0  0  0
 25 26  4  0  0  0  0
 26 27  4  0  0  0  0
 27 28  1  0  0  0  0
 27 30  4  0  0  0  0
 28 29  1  0  0  0  0
 30 31  4  0  0  0  0
M  END
>  <Name_Molregno>
393971

>  <HISTAMINE H3>
6.97

>  <Serotonin transporter>
7.92

$$$$
393973
  Marvin  02231216192D 0   1.00000     0.00000     0

 27 30  0  0  1  0  0  0  0  0999 V2000
   -2.6222   -2.2343    0.0000 O   0  0  0  0  0  0  0  0  0
   -3.3367   -1.8218    0.0000 C   0  0  0  0  0  0  0  0  0
   -4.0511   -2.2343    0.0000 C   0  0  0  0  0  0  0  0  0
   -4.7656   -1.8218    0.0000 C   0  0  0  0  0  0  0  0  0
   -5.4801   -2.2343    0.0000 N   0  0  0  0  0  0  0  0  0
   -5.6936   -3.0312    0.0000 C   0  0  0  0  0  0  0  0  0
   -6.4905   -2.8177    0.0000 C   0  0  0  0  0  0  0  0  0
   -6.2770   -2.0208    0.0000 C   0  0  0  0  0  0  0  0  0
   -1.9077   -1.8218    0.0000 C   0  0  0  0  0  0  0  0  0
   -1.1933   -2.2343    0.0000 C   0  0  0  0  0  0  0  0  0
   -0.4788   -1.8218    0.0000 C   0  0  0  0  0  0  0  0  0
   -0.4788   -0.9968    0.0000 C   0  0  0  0  0  0  0  0  0
   -1.1933   -0.5843    0.0000 C   0  0  0  0  0  0  0  0  0
   -1.9077   -0.9968    0.0000 C   0  0  0  0  0  0  0  0  0
    0.2357   -0.5843    0.0000 C   0  0  0  0  0  0  0  0  0
    0.9502   -0.9968    0.0000 C   0  0  0  0  0  0  0  0  0
    0.9502   -1.8218    0.0000 N   0  0  0  0  0  0  0  0  0
    0.2357   -2.2343    0.0000 C   0  0  0  0  0  0  0  0  0
    1.6646   -2.2343    0.0000 C   0  0  0  0  0  0  0  0  0
    0.2357    0.2407    0.0000 C   0  0  0  0  0  0  0  0  0
   -0.4788    0.6532    0.0000 C   0  0  0  0  0  0  0  0  0
   -0.4788    1.4782    0.0000 C   0  0  0  0  0  0  0  0  0
    0.2357    1.8907    0.0000 C   0  0  0  0  0  0  0  0  0
    0.2357    2.7157    0.0000 O   0  0  0  0  0  0  0  0  0
    0.9502    3.1282    0.0000 C   0  0  0  0  0  0  0  0  0
    0.9502    1.4782    0.0000 C   0  0  0  0  0  0  0  0  0
    0.9502    0.6532    0.0000 C   0  0  0  0  0  0  0  0  0
  1  2  1  0  0  0  0
  1  9  1  0  0  0  0
  2  3  1  0  0  0  0
  3  4  1  0  0  0  0
  4  5  1  0  0  0  0
  5  6  1  0  0  0  0
  5  8  1  0  0  0  0
  6  7  1  0  0  0  0
  7  8  1  0  0  0  0
  9 10  4  0  0  0  0
  9 14  4  0  0  0  0
 10 11  4  0  0  0  0
 11 12  4  0  0  0  0
 11 18  1  0  0  0  0
 12 13  4  0  0  0  0
 12 15  1  0  0  0  0
 13 14  4  0  0  0  0
 15 16  1  0  0  0  0
 15 20  1  0  0  0  0
 16 17  1  0  0  0  0
 17 18  1  0  0  0  0
 17 19  1  0  0  0  0
 20 21  4  0  0  0  0
 20 27  4  0  0  0  0
 21 22  4  0  0  0  0
 22 23  4  0  0  0  0
 23 24  1  0  0  0  0
 23 26  4  0  0  0  0
 24 25  1  0  0  0  0
 26 27  4  0  0  0  0
M  END
>  <Name_Molregno>
393973

>  <HISTAMINE H3>
8.4

>  <Serotonin transporter>
8.32

$$$$
393974
  Marvin  02231216192D 0   1.00000     0.00000     0

 29 32  0  0  1  0  0  0  0  0999 V2000
    0.2966   -1.4384    0.0000 F   0  0  0  0  0  0  0  0  0
    1.0935   -1.6519    0.0000 C   0  0  0  0  0  0  0  0  0
    0.8800   -2.4488    0.0000 F   0  0  0  0  0  0  0  0  0
    1.3070   -0.8550    0.0000 C   0  0  0  0  0  0  0  0  0
    2.1039   -1.0686    0.0000 N   0  0  0  0  0  0  0  0  0
    1.8904   -1.8654    0.0000 C   0  0  0  0  0  0  0  0  0
    2.8184   -0.6561    0.0000 C   0  0  0  0  0  0  0  0  0
    3.5328   -1.0686    0.0000 C   0  0  0  0  0  0  0  0  0
    4.2473   -0.6561    0.0000 C   0  0  0  0  0  0  0  0  0
    4.9618   -1.0686    0.0000 O   0  0  0  0  0  0  0  0  0
    5.6763   -0.6561    0.0000 C   0  0  0  0  0  0  0  0  0
    6.3907   -1.0686    0.0000 C   0  0  0  0  0  0  0  0  0
    7.1052   -0.6561    0.0000 C   0  0  0  0  0  0  0  0  0
    7.1052    0.1689    0.0000 C   0  0  0  0  0  0  0  0  0
    6.3907    0.5814    0.0000 C   0  0  0  0  0  0  0  0  0
    5.6763    0.1689    0.0000 C   0  0  0  0  0  0  0  0  0
    7.8197    0.5814    0.0000 C   0  0  0  0  0  0  0  0  0
    8.5341    0.1689    0.0000 C   0  0  0  0  0  0  0  0  0
    8.5341   -0.6561    0.0000 N   0  0  0  0  0  0  0  0  0
    7.8197   -1.0686    0.0000 C   0  0  0  0  0  0  0  0  0
    9.2486   -1.0686    0.0000 C   0  0  0  0  0  0  0  0  0
    7.8197    1.4064    0.0000 C   0  0  0  0  0  0  0  0  0
    7.1052    1.8189    0.0000 C   0  0  0  0  0  0  0  0  0
    7.1052    2.6439    0.0000 C   0  0  0  0  0  0  0  0  0
    7.8197    3.0564    0.0000 C   0  0  0  0  0  0  0  0  0
    7.8197    3.8814    0.0000 O   0  0  0  0  0  0  0  0  0
    8.5341    4.2939    0.0000 C   0  0  0  0  0  0  0  0  0
    8.5341    2.6439    0.0000 C   0  0  0  0  0  0  0  0  0
    8.5341    1.8189    0.0000 C   0  0  0  0  0  0  0  0  0
  1  2  1  0  0  0  0
  2  3  1  0  0  0  0
  2  4  1  0  0  0  0
  2  6  1  0  0  0  0
  4  5  1  0  0  0  0
  5  6  1  0  0  0  0
  5  7  1  0  0  0  0
  7  8  1  0  0  0  0
  8  9  1  0  0  0  0
  9 10  1  0  0  0  0
 10 11  1  0  0  0  0
 11 12  4  0  0  0  0
 11 16  4  0  0  0  0
 12 13  4  0  0  0  0
 13 14  4  0  0  0  0
 13 20  1  0  0  0  0
 14 15  4  0  0  0  0
 14 17  1  0  0  0  0
 15 16  4  0  0  0  0
 17 18  1  0  0  0  0
 17 22  1  0  0  0  0
 18 19  1  0  0  0  0
 19 20  1  0  0  0  0
 19 21  1  0  0  0  0
 22 23  4  0  0  0  0
 22 29  4  0  0  0  0
 23 24  4  0  0  0  0
 24 25  4  0  0  0  0
 25 26  1  0  0  0  0
 25 28  4  0  0  0  0
 26 27  1  0  0  0  0
 28 29  4  0  0  0  0
M  END
>  <Name_Molregno>
393974

>  <HISTAMINE H3>
7.16

>  <Serotonin transporter>
8.54

$$$$
393976
  Marvin  02231216192D 0   1.00000     0.00000     0

 30 33  0  0  1  0  0  0  0  0999 V2000
  -10.7112   -2.1033    0.0000 F   0  0  0  0  0  0  0  0  0
   -9.9576   -1.7677    0.0000 C   0  0  0  0  0  0  0  0  0
   -9.7026   -2.5523    0.0000 F   0  0  0  0  0  0  0  0  0
  -10.3701   -1.0532    0.0000 C   0  0  0  0  0  0  0  0  0
   -9.8180   -0.4401    0.0000 C   0  0  0  0  0  0  0  0  0
   -9.0644   -0.7757    0.0000 N   0  0  0  0  0  0  0  0  0
   -9.1506   -1.5962    0.0000 C   0  0  0  0  0  0  0  0  0
   -8.3499   -0.3632    0.0000 C   0  0  0  0  0  0  0  0  0
   -7.6354   -0.7757    0.0000 C   0  0  0  0  0  0  0  0  0
   -6.9209   -0.3632    0.0000 C   0  0  0  0  0  0  0  0  0
   -6.2065   -0.7757    0.0000 O   0  0  0  0  0  0  0  0  0
   -5.4920   -0.3632    0.0000 C   0  0  0  0  0  0  0  0  0
   -4.7775   -0.7757    0.0000 C   0  0  0  0  0  0  0  0  0
   -4.0631   -0.3632    0.0000 C   0  0  0  0  0  0  0  0  0
   -4.0631    0.4618    0.0000 C   0  0  0  0  0  0  0  0  0
   -4.7775    0.8743    0.0000 C   0  0  0  0  0  0  0  0  0
   -5.4920    0.4618    0.0000 C   0  0  0  0  0  0  0  0  0
   -3.3486    0.8743    0.0000 C   0  0  0  0  0  0  0  0  0
   -2.6341    0.4618    0.0000 C   0  0  0  0  0  0  0  0  0
   -2.6341   -0.3632    0.0000 N   0  0  0  0  0  0  0  0  0
   -3.3486   -0.7757    0.0000 C   0  0  0  0  0  0  0  0  0
   -1.9197   -0.7757    0.0000 C   0  0  0  0  0  0  0  0  0
   -3.3486    1.6993    0.0000 C   0  0  0  0  0  0  0  0  0
   -4.0631    2.1118    0.0000 C   0  0  0  0  0  0  0  0  0
   -4.0631    2.9368    0.0000 C   0  0  0  0  0  0  0  0  0
   -3.3486    3.3493    0.0000 C   0  0  0  0  0  0  0  0  0
   -3.3486    4.1743    0.0000 O   0  0  0  0  0  0  0  0  0
   -2.6341    4.5868    0.0000 C   0  0  0  0  0  0  0  0  0
   -2.6341    2.9368    0.0000 C   0  0  0  0  0  0  0  0  0
   -2.6341    2.1118    0.0000 C   0  0  0  0  0  0  0  0  0
  1  2  1  0  0  0  0
  2  3  1  0  0  0  0
  2  4  1  0  0  0  0
  2  7  1  0  0  0  0
  4  5  1  0  0  0  0
  5  6  1  0  0  0  0
  6  7  1  0  0  0  0
  6  8  1  0  0  0  0
  8  9  1  0  0  0  0
  9 10  1  0  0  0  0
 10 11  1  0  0  0  0
 11 12  1  0  0  0  0
 12 13  4  0  0  0  0
 12 17  4  0  0  0  0
 13 14  4  0  0  0  0
 14 15  4  0  0  0  0
 14 21  1  0  0  0  0
 15 16  4  0  0  0  0
 15 18  1  0  0  0  0
 16 17  4  0  0  0  0
 18 19  1  0  0  0  0
 18 23  1  0  0  0  0
 19 20  1  0  0  0  0
 20 21  1  0  0  0  0
 20 22  1  0  0  0  0
 23 24  4  0  0  0  0
 23 30  4  0  0  0  0
 24 25  4  0  0  0  0
 25 26  4  0  0  0  0
 26 27  1  0  0  0  0
 26 29  4  0  0  0  0
 27 28  1  0  0  0  0
 29 30  4  0  0  0  0
M  END
>  <Name_Molregno>
393976

>  <HISTAMINE H3>
8.02

>  <Serotonin transporter>
8.14

$$$$
393977
  Marvin  02231216192D 0   1.00000     0.00000     0

 26 28  0  0  1  0  0  0  0  0999 V2000
   -0.2934    0.6074    0.0000 O   0  0  0  0  0  0  0  0  0
    0.4211    0.1949    0.0000 C   0  0  0  0  0  0  0  0  0
    1.1355    0.6074    0.0000 C   0  0  0  0  0  0  0  0  0
    1.8500    0.1949    0.0000 C   0  0  0  0  0  0  0  0  0
    2.5645    0.6074    0.0000 N   0  0  0  0  0  0  0  0  0
    3.2790    0.1949    0.0000 C   0  0  0  0  0  0  0  0  0
    3.9934    0.6074    0.0000 C   0  0  0  0  0  0  0  0  0
   -1.0079    0.1949    0.0000 C   0  0  0  0  0  0  0  0  0
   -1.7223    0.6074    0.0000 C   0  0  0  0  0  0  0  0  0
   -2.4368    0.1949    0.0000 C   0  0  0  0  0  0  0  0  0
   -2.4368   -0.6301    0.0000 C   0  0  0  0  0  0  0  0  0
   -1.7223   -1.0426    0.0000 C   0  0  0  0  0  0  0  0  0
   -1.0079   -0.6301    0.0000 C   0  0  0  0  0  0  0  0  0
   -3.1513   -1.0426    0.0000 C   0  0  0  0  0  0  0  0  0
   -3.8657   -0.6301    0.0000 C   0  0  0  0  0  0  0  0  0
   -3.8657    0.1949    0.0000 N   0  0  0  0  0  0  0  0  0
   -3.1513    0.6074    0.0000 C   0  0  0  0  0  0  0  0  0
   -4.5802    0.6074    0.0000 C   0  0  0  0  0  0  0  0  0
   -3.1513   -1.8676    0.0000 C   0  0  0  0  0  0  0  0  0
   -2.4368   -2.2801    0.0000 C   0  0  0  0  0  0  0  0  0
   -2.4368   -3.1051    0.0000 C   0  0  0  0  0  0  0  0  0
   -3.1513   -3.5176    0.0000 C   0  0  0  0  0  0  0  0  0
   -3.1513   -4.3426    0.0000 O   0  0  0  0  0  0  0  0  0
   -3.8657   -4.7551    0.0000 C   0  0  0  0  0  0  0  0  0
   -3.8657   -3.1051    0.0000 C   0  0  0  0  0  0  0  0  0
   -3.8657   -2.2801    0.0000 C   0  0  0  0  0  0  0  0  0
  1  2  1  0  0  0  0
  1  8  1  0  0  0  0
  2  3  1  0  0  0  0
  3  4  1  0  0  0  0
  4  5  1  0  0  0  0
  5  6  1  0  0  0  0
  6  7  1  0  0  0  0
  8  9  4  0  0  0  0
  8 13  4  0  0  0  0
  9 10  4  0  0  0  0
 10 11  4  0  0  0  0
 10 17  1  0  0  0  0
 11 12  4  0  0  0  0
 11 14  1  0  0  0  0
 12 13  4  0  0  0  0
 14 15  1  0  0  0  0
 14 19  1  0  0  0  0
 15 16  1  0  0  0  0
 16 17  1  0  0  0  0
 16 18  1  0  0  0  0
 19 20  4  0  0  0  0
 19 26  4  0  0  0  0
 20 21  4  0  0  0  0
 21 22  4  0  0  0  0
 22 23  1  0  0  0  0
 22 25  4  0  0  0  0
 23 24  1  0  0  0  0
 25 26  4  0  0  0  0
M  END
>  <Name_Molregno>
393977

>  <HISTAMINE H3>
7.33

>  <Serotonin transporter>
8.47

$$$$
393979
  Marvin  02231216192D 0   1.00000     0.00000     0

 28 30  0  0  1  0  0  0  0  0999 V2000
    0.2448   -0.1766    0.0000 O   0  0  0  0  0  0  0  0  0
    0.6573   -0.8911    0.0000 C   0  0  0  0  0  0  0  0  0
    1.4823   -0.8911    0.0000 C   0  0  0  0  0  0  0  0  0
    1.8948   -1.6056    0.0000 C   0  0  0  0  0  0  0  0  0
    2.7198   -1.6056    0.0000 N   0  0  0  0  0  0  0  0  0
    3.1323   -2.3200    0.0000 C   0  0  0  0  0  0  0  0  0
    3.9573   -2.3200    0.0000 C   0  0  0  0  0  0  0  0  0
    3.1323   -0.8911    0.0000 C   0  0  0  0  0  0  0  0  0
    3.9573   -0.8911    0.0000 C   0  0  0  0  0  0  0  0  0
   -0.5802   -0.1766    0.0000 C   0  0  0  0  0  0  0  0  0
   -0.9927    0.5379    0.0000 C   0  0  0  0  0  0  0  0  0
   -1.8177    0.5379    0.0000 C   0  0  0  0  0  0  0  0  0
   -2.2302   -0.1766    0.0000 C   0  0  0  0  0  0  0  0  0
   -1.8177   -0.8911    0.0000 C   0  0  0  0  0  0  0  0  0
   -0.9927   -0.8911    0.0000 C   0  0  0  0  0  0  0  0  0
   -3.0552   -0.1766    0.0000 C   0  0  0  0  0  0  0  0  0
   -3.4677    0.5379    0.0000 C   0  0  0  0  0  0  0  0  0
   -3.0552    1.2523    0.0000 N   0  0  0  0  0  0  0  0  0
   -2.2302    1.2523    0.0000 C   0  0  0  0  0  0  0  0  0
   -3.4677    1.9668    0.0000 C   0  0  0  0  0  0  0  0  0
   -3.4677   -0.8911    0.0000 C   0  0  0  0  0  0  0  0  0
   -3.0552   -1.6056    0.0000 C   0  0  0  0  0  0  0  0  0
   -3.4677   -2.3200    0.0000 C   0  0  0  0  0  0  0  0  0
   -4.2927   -2.3200    0.0000 C   0  0  0  0  0  0  0  0  0
   -4.7052   -3.0345    0.0000 O   0  0  0  0  0  0  0  0  0
   -5.5302   -3.0345    0.0000 C   0  0  0  0  0  0  0  0  0
   -4.7052   -1.6056    0.0000 C   0  0  0  0  0  0  0  0  0
   -4.2927   -0.8911    0.0000 C   0  0  0  0  0  0  0  0  0
  1  2  1  0  0  0  0
  1 10  1  0  0  0  0
  2  3  1  0  0  0  0
  3  4  1  0  0  0  0
  4  5  1  0  0  0  0
  5  6  1  0  0  0  0
  5  8  1  0  0  0  0
  6  7  1  0  0  0  0
  8  9  1  0  0  0  0
 10 11  4  0  0  0  0
 10 15  4  0  0  0  0
 11 12  4  0  0  0  0
 12 13  4  0  0  0  0
 12 19  1  0  0  0  0
 13 14  4  0  0  0  0
 13 16  1  0  0  0  0
 14 15  4  0  0  0  0
 16 17  1  0  0  0  0
 16 21  1  0  0  0  0
 17 18  1  0  0  0  0
 18 19  1  0  0  0  0
 18 20  1  0  0  0  0
 21 22  4  0  0  0  0
 21 28  4  0  0  0  0
 22 23  4  0  0  0  0
 23 24  4  0  0  0  0
 24 25  1  0  0  0  0
 24 27  4  0  0  0  0
 25 26  1  0  0  0  0
 27 28  4  0  0  0  0
M  END
>  <Name_Molregno>
393979

>  <HISTAMINE H3>
8.77

>  <Serotonin transporter>
8.4

$$$$
393982
  Marvin  02231216192D 0   1.00000     0.00000     0

 27 30  0  0  1  0  0  0  0  0999 V2000
   -0.2755    0.5685    0.0000 O   0  0  0  0  0  0  0  0  0
    0.4390    0.1560    0.0000 C   0  0  0  0  0  0  0  0  0
    1.1534    0.5685    0.0000 C   0  0  0  0  0  0  0  0  0
    1.8679    0.1560    0.0000 C   0  0  0  0  0  0  0  0  0
    2.5824    0.5685    0.0000 N   0  0  0  0  0  0  0  0  0
    3.2969    0.1560    0.0000 C   0  0  0  0  0  0  0  0  0
    4.1219    0.1560    0.0000 C   0  0  0  0  0  0  0  0  0
    3.7094   -0.5585    0.0000 C   0  0  0  0  0  0  0  0  0
   -0.9900    0.1560    0.0000 C   0  0  0  0  0  0  0  0  0
   -1.7044    0.5685    0.0000 C   0  0  0  0  0  0  0  0  0
   -2.4189    0.1560    0.0000 C   0  0  0  0  0  0  0  0  0
   -2.4189   -0.6690    0.0000 C   0  0  0  0  0  0  0  0  0
   -1.7044   -1.0815    0.0000 C   0  0  0  0  0  0  0  0  0
   -0.9900   -0.6690    0.0000 C   0  0  0  0  0  0  0  0  0
   -3.1334   -1.0815    0.0000 C   0  0  0  0  0  0  0  0  0
   -3.8479   -0.6690    0.0000 C   0  0  0  0  0  0  0  0  0
   -3.8479    0.1560    0.0000 N   0  0  0  0  0  0  0  0  0
   -3.1334    0.5685    0.0000 C   0  0  0  0  0  0  0  0  0
   -4.5623    0.5685    0.0000 C   0  0  0  0  0  0  0  0  0
   -3.1334   -1.9065    0.0000 C   0  0  0  0  0  0  0  0  0
   -2.4189   -2.3190    0.0000 C   0  0  0  0  0  0  0  0  0
   -2.4189   -3.1440    0.0000 C   0  0  0  0  0  0  0  0  0
   -3.1334   -3.5565    0.0000 C   0  0  0  0  0  0  0  0  0
   -3.1334   -4.3815    0.0000 O   0  0  0  0  0  0  0  0  0
   -3.8479   -4.7940    0.0000 C   0  0  0  0  0  0  0  0  0
   -3.8479   -3.1440    0.0000 C   0  0  0  0  0  0  0  0  0
   -3.8479   -2.3190    0.0000 C   0  0  0  0  0  0  0  0  0
  1  2  1  0  0  0  0
  1  9  1  0  0  0  0
  2  3  1  0  0  0  0
  3  4  1  0  0  0  0
  4  5  1  0  0  0  0
  5  6  1  0  0  0  0
  6  7  1  0  0  0  0
  6  8  1  0  0  0  0
  7  8  1  0  0  0  0
  9 10  4  0  0  0  0
  9 14  4  0  0  0  0
 10 11  4  0  0  0  0
 11 12  4  0  0  0  0
 11 18  1  0  0  0  0
 12 13  4  0  0  0  0
 12 15  1  0  0  0  0
 13 14  4  0  0  0  0
 15 16  1  0  0  0  0
 15 20  1  0  0  0  0
 16 17  1  0  0  0  0
 17 18  1  0  0  0  0
 17 19  1  0  0  0  0
 20 21  4  0  0  0  0
 20 27  4  0  0  0  0
 21 22  4  0  0  0  0
 22 23  4  0  0  0  0
 23 24  1  0  0  0  0
 23 26  4  0  0  0  0
 24 25  1  0  0  0  0
 26 27  4  0  0  0  0
M  END
>  <Name_Molregno>
393982

>  <HISTAMINE H3>
7.42

>  <Serotonin transporter>
7.71

$$$$
393984
  Marvin  02231216192D 0   1.00000     0.00000     0

 30 34  0  0  1  0  0  0  0  0999 V2000
   -1.7018   -1.9674    0.0000 O   0  0  0  0  0  0  0  0  0
   -2.4162   -1.5549    0.0000 C   0  0  0  0  0  0  0  0  0
   -3.1307   -1.9674    0.0000 C   0  0  0  0  0  0  0  0  0
   -3.8452   -1.5549    0.0000 C   0  0  0  0  0  0  0  0  0
   -4.5596   -1.9674    0.0000 N   0  0  0  0  0  0  0  0  0
   -5.2741   -1.5549    0.0000 C   0  0  0  0  0  0  0  0  0
   -6.0991   -1.5549    0.0000 C   0  0  0  0  0  0  0  0  0
   -5.6866   -0.8404    0.0000 C   0  0  0  0  0  0  0  0  0
   -4.5596   -2.7924    0.0000 C   0  0  0  0  0  0  0  0  0
   -4.1471   -3.5069    0.0000 C   0  0  0  0  0  0  0  0  0
   -4.9721   -3.5069    0.0000 C   0  0  0  0  0  0  0  0  0
   -0.9873   -1.5549    0.0000 C   0  0  0  0  0  0  0  0  0
   -0.2728   -1.9674    0.0000 C   0  0  0  0  0  0  0  0  0
    0.4416   -1.5549    0.0000 C   0  0  0  0  0  0  0  0  0
    0.4416   -0.7299    0.0000 C   0  0  0  0  0  0  0  0  0
   -0.2728   -0.3174    0.0000 C   0  0  0  0  0  0  0  0  0
   -0.9873   -0.7299    0.0000 C   0  0  0  0  0  0  0  0  0
    1.1561   -0.3174    0.0000 C   0  0  0  0  0  0  0  0  0
    1.8706   -0.7299    0.0000 C   0  0  0  0  0  0  0  0  0
    1.8706   -1.5549    0.0000 N   0  0  0  0  0  0  0  0  0
    1.1561   -1.9674    0.0000 C   0  0  0  0  0  0  0  0  0
    2.5851   -1.9674    0.0000 C   0  0  0  0  0  0  0  0  0
    1.1561    0.5076    0.0000 C   0  0  0  0  0  0  0  0  0
    0.4416    0.9201    0.0000 C   0  0  0  0  0  0  0  0  0
    0.4416    1.7451    0.0000 C   0  0  0  0  0  0  0  0  0
    1.1561    2.1576    0.0000 C   0  0  0  0  0  0  0  0  0
    1.1561    2.9826    0.0000 O   0  0  0  0  0  0  0  0  0
    1.8706    3.3951    0.0000 C   0  0  0  0  0  0  0  0  0
    1.8706    1.7451    0.0000 C   0  0  0  0  0  0  0  0  0
    1.8706    0.9201    0.0000 C   0  0  0  0  0  0  0  0  0
  1  2  1  0  0  0  0
  1 12  1  0  0  0  0
  2  3  1  0  0  0  0
  3  4  1  0  0  0  0
  4  5  1  0  0  0  0
  5  6  1  0  0  0  0
  5  9  1  0  0  0  0
  6  7  1  0  0  0  0
  6  8  1  0  0  0  0
  7  8  1  0  0  0  0
  9 10  1  0  0  0  0
  9 11  1  0  0  0  0
 10 11  1  0  0  0  0
 12 13  4  0  0  0  0
 12 17  4  0  0  0  0
 13 14  4  0  0  0  0
 14 15  4  0  0  0  0
 14 21  1  0  0  0  0
 15 16  4  0  0  0  0
 15 18  1  0  0  0  0
 16 17  4  0  0  0  0
 18 19  1  0  0  0  0
 18 23  1  0  0  0  0
 19 20  1  0  0  0  0
 20 21  1  0  0  0  0
 20 22  1  0  0  0  0
 23 24  4  0  0  0  0
 23 30  4  0  0  0  0
 24 25  4  0  0  0  0
 25 26  4  0  0  0  0
 26 27  1  0  0  0  0
 26 29  4  0  0  0  0
 27 28  1  0  0  0  0
 29 30  4  0  0  0  0
M  END
>  <Name_Molregno>
393984

>  <HISTAMINE H3>
8.13

>  <Serotonin transporter>
8.01

$$$$
393986
  Marvin  02231216192D 0   1.00000     0.00000     0

 31 34  0  0  1  0  0  0  0  0999 V2000
   -1.0914   -1.7365    0.0000 O   0  0  0  0  0  0  0  0  0
   -1.8059   -1.3240    0.0000 C   0  0  0  0  0  0  0  0  0
   -2.5204   -1.7365    0.0000 C   0  0  0  0  0  0  0  0  0
   -3.2348   -1.3240    0.0000 C   0  0  0  0  0  0  0  0  0
   -3.9493   -1.7365    0.0000 N   0  0  0  0  0  0  0  0  0
   -3.9493   -2.5615    0.0000 C   0  0  0  0  0  0  0  0  0
   -4.6638   -2.9740    0.0000 C   0  0  0  0  0  0  0  0  0
   -5.3782   -2.5615    0.0000 N   0  0  0  0  0  0  0  0  0
   -5.3782   -1.7365    0.0000 C   0  0  0  0  0  0  0  0  0
   -4.6638   -1.3240    0.0000 C   0  0  0  0  0  0  0  0  0
   -6.0927   -2.9740    0.0000 C   0  0  0  0  0  0  0  0  0
   -6.8072   -2.5615    0.0000 C   0  0  0  0  0  0  0  0  0
   -0.3769   -1.3240    0.0000 C   0  0  0  0  0  0  0  0  0
    0.3375   -1.7365    0.0000 C   0  0  0  0  0  0  0  0  0
    1.0520   -1.3240    0.0000 C   0  0  0  0  0  0  0  0  0
    1.0520   -0.4990    0.0000 C   0  0  0  0  0  0  0  0  0
    0.3375   -0.0865    0.0000 C   0  0  0  0  0  0  0  0  0
   -0.3769   -0.4990    0.0000 C   0  0  0  0  0  0  0  0  0
    1.7665   -0.0865    0.0000 C   0  0  0  0  0  0  0  0  0
    2.4809   -0.4990    0.0000 C   0  0  0  0  0  0  0  0  0
    2.4809   -1.3240    0.0000 N   0  0  0  0  0  0  0  0  0
    1.7665   -1.7365    0.0000 C   0  0  0  0  0  0  0  0  0
    3.1954   -1.7365    0.0000 C   0  0  0  0  0  0  0  0  0
    1.7665    0.7385    0.0000 C   0  0  0  0  0  0  0  0  0
    1.0520    1.1510    0.0000 C   0  0  0  0  0  0  0  0  0
    1.0520    1.9760    0.0000 C   0  0  0  0  0  0  0  0  0
    1.7665    2.3885    0.0000 C   0  0  0  0  0  0  0  0  0
    1.7665    3.2135    0.0000 O   0  0  0  0  0  0  0  0  0
    2.4809    3.6260    0.0000 C   0  0  0  0  0  0  0  0  0
    2.4809    1.9760    0.0000 C   0  0  0  0  0  0  0  0  0
    2.4809    1.1510    0.0000 C   0  0  0  0  0  0  0  0  0
  1  2  1  0  0  0  0
  1 13  1  0  0  0  0
  2  3  1  0  0  0  0
  3  4  1  0  0  0  0
  4  5  1  0  0  0  0
  5  6  1  0  0  0  0
  5 10  1  0  0  0  0
  6  7  1  0  0  0  0
  7  8  1  0  0  0  0
  8  9  1  0  0  0  0
  8 11  1  0  0  0  0
  9 10  1  0  0  0  0
 11 12  1  0  0  0  0
 13 14  4  0  0  0  0
 13 18  4  0  0  0  0
 14 15  4  0  0  0  0
 15 16  4  0  0  0  0
 15 22  1  0  0  0  0
 16 17  4  0  0  0  0
 16 19  1  0  0  0  0
 17 18  4  0  0  0  0
 19 20  1  0  0  0  0
 19 24  1  0  0  0  0
 20 21  1  0  0  0  0
 21 22  1  0  0  0  0
 21 23  1  0  0  0  0
 24 25  4  0  0  0  0
 24 31  4  0  0  0  0
 25 26  4  0  0  0  0
 26 27  4  0  0  0  0
 27 28  1  0  0  0  0
 27 30  4  0  0  0  0
 28 29  1  0  0  0  0
 30 31  4  0  0  0  0
M  END
>  <Name_Molregno>
393986

>  <HISTAMINE H3>
7.92

>  <Serotonin transporter>
8.7

$$$$
393987
  Marvin  02231216192D 0   1.00000     0.00000     0

 32 35  0  0  1  0  0  0  0  0999 V2000
   -0.7427   -1.5611    0.0000 O   0  0  0  0  0  0  0  0  0
   -1.4572   -1.1486    0.0000 C   0  0  0  0  0  0  0  0  0
   -2.1717   -1.5611    0.0000 C   0  0  0  0  0  0  0  0  0
   -2.8861   -1.1486    0.0000 C   0  0  0  0  0  0  0  0  0
   -3.6006   -1.5611    0.0000 N   0  0  0  0  0  0  0  0  0
   -3.6006   -2.3861    0.0000 C   0  0  0  0  0  0  0  0  0
   -4.3151   -2.7986    0.0000 C   0  0  0  0  0  0  0  0  0
   -5.0295   -2.3861    0.0000 N   0  0  0  0  0  0  0  0  0
   -5.0295   -1.5611    0.0000 C   0  0  0  0  0  0  0  0  0
   -4.3151   -1.1486    0.0000 C   0  0  0  0  0  0  0  0  0
   -5.7440   -2.7986    0.0000 C   0  0  0  0  0  0  0  0  0
   -6.4585   -2.3861    0.0000 C   0  0  0  0  0  0  0  0  0
   -5.7440   -3.6236    0.0000 C   0  0  0  0  0  0  0  0  0
   -0.0282   -1.1486    0.0000 C   0  0  0  0  0  0  0  0  0
    0.6862   -1.5611    0.0000 C   0  0  0  0  0  0  0  0  0
    1.4007   -1.1486    0.0000 C   0  0  0  0  0  0  0  0  0
    1.4007   -0.3236    0.0000 C   0  0  0  0  0  0  0  0  0
    0.6862    0.0889    0.0000 C   0  0  0  0  0  0  0  0  0
   -0.0282   -0.3236    0.0000 C   0  0  0  0  0  0  0  0  0
    2.1152    0.0889    0.0000 C   0  0  0  0  0  0  0  0  0
    2.8296   -0.3236    0.0000 C   0  0  0  0  0  0  0  0  0
    2.8296   -1.1486    0.0000 N   0  0  0  0  0  0  0  0  0
    2.1152   -1.5611    0.0000 C   0  0  0  0  0  0  0  0  0
    3.5441   -1.5611    0.0000 C   0  0  0  0  0  0  0  0  0
    2.1152    0.9139    0.0000 C   0  0  0  0  0  0  0  0  0
    1.4007    1.3264    0.0000 C   0  0  0  0  0  0  0  0  0
    1.4007    2.1514    0.0000 C   0  0  0  0  0  0  0  0  0
    2.1152    2.5639    0.0000 C   0  0  0  0  0  0  0  0  0
    2.1152    3.3889    0.0000 O   0  0  0  0  0  0  0  0  0
    2.8296    3.8014    0.0000 C   0  0  0  0  0  0  0  0  0
    2.8296    2.1514    0.0000 C   0  0  0  0  0  0  0  0  0
    2.8296    1.3264    0.0000 C   0  0  0  0  0  0  0  0  0
  1  2  1  0  0  0  0
  1 14  1  0  0  0  0
  2  3  1  0  0  0  0
  3  4  1  0  0  0  0
  4  5  1  0  0  0  0
  5  6  1  0  0  0  0
  5 10  1  0  0  0  0
  6  7  1  0  0  0  0
  7  8  1  0  0  0  0
  8  9  1  0  0  0  0
  8 11  1  0  0  0  0
  9 10  1  0  0  0  0
 11 12  1  0  0  0  0
 11 13  1  0  0  0  0
 14 15  4  0  0  0  0
 14 19  4  0  0  0  0
 15 16  4  0  0  0  0
 16 17  4  0  0  0  0
 16 23  1  0  0  0  0
 17 18  4  0  0  0  0
 17 20  1  0  0  0  0
 18 19  4  0  0  0  0
 20 21  1  0  0  0  0
 20 25  1  0  0  0  0
 21 22  1  0  0  0  0
 22 23  1  0  0  0  0
 22 24  1  0  0  0  0
 25 26  4  0  0  0  0
 25 32  4  0  0  0  0
 26 27  4  0  0  0  0
 27 28  4  0  0  0  0
 28 29  1  0  0  0  0
 28 31  4  0  0  0  0
 29 30  1  0  0  0  0
 31 32  4  0  0  0  0
M  END
>  <Name_Molregno>
393987

>  <HISTAMINE H3>
8.01

>  <Serotonin transporter>
8.74

$$$$
393990
  Marvin  02231216192D 0   1.00000     0.00000     0

 32 36  0  0  1  0  0  0  0  0999 V2000
   -0.7129   -1.5402    0.0000 O   0  0  0  0  0  0  0  0  0
   -1.4273   -1.1277    0.0000 C   0  0  0  0  0  0  0  0  0
   -2.1418   -1.5402    0.0000 C   0  0  0  0  0  0  0  0  0
   -2.8563   -1.1277    0.0000 C   0  0  0  0  0  0  0  0  0
   -3.5708   -1.5402    0.0000 N   0  0  0  0  0  0  0  0  0
   -3.5708   -2.3652    0.0000 C   0  0  0  0  0  0  0  0  0
   -4.2852   -2.7777    0.0000 C   0  0  0  0  0  0  0  0  0
   -4.9997   -2.3652    0.0000 N   0  0  0  0  0  0  0  0  0
   -4.9997   -1.5402    0.0000 C   0  0  0  0  0  0  0  0  0
   -4.2852   -1.1277    0.0000 C   0  0  0  0  0  0  0  0  0
   -5.7142   -2.7777    0.0000 C   0  0  0  0  0  0  0  0  0
   -6.1267   -3.4922    0.0000 C   0  0  0  0  0  0  0  0  0
   -6.5392   -2.7777    0.0000 C   0  0  0  0  0  0  0  0  0
    0.0016   -1.1277    0.0000 C   0  0  0  0  0  0  0  0  0
    0.7161   -1.5402    0.0000 C   0  0  0  0  0  0  0  0  0
    1.4305   -1.1277    0.0000 C   0  0  0  0  0  0  0  0  0
    1.4305   -0.3027    0.0000 C   0  0  0  0  0  0  0  0  0
    0.7161    0.1098    0.0000 C   0  0  0  0  0  0  0  0  0
    0.0016   -0.3027    0.0000 C   0  0  0  0  0  0  0  0  0
    2.1450    0.1098    0.0000 C   0  0  0  0  0  0  0  0  0
    2.8595   -0.3027    0.0000 C   0  0  0  0  0  0  0  0  0
    2.8595   -1.1277    0.0000 N   0  0  0  0  0  0  0  0  0
    2.1450   -1.5402    0.0000 C   0  0  0  0  0  0  0  0  0
    3.5740   -1.5402    0.0000 C   0  0  0  0  0  0  0  0  0
    2.1450    0.9348    0.0000 C   0  0  0  0  0  0  0  0  0
    1.4305    1.3473    0.0000 C   0  0  0  0  0  0  0  0  0
    1.4305    2.1723    0.0000 C   0  0  0  0  0  0  0  0  0
    2.1450    2.5848    0.0000 C   0  0  0  0  0  0  0  0  0
    2.1450    3.4098    0.0000 O   0  0  0  0  0  0  0  0  0
    2.8595    3.8223    0.0000 C   0  0  0  0  0  0  0  0  0
    2.8595    2.1723    0.0000 C   0  0  0  0  0  0  0  0  0
    2.8595    1.3473    0.0000 C   0  0  0  0  0  0  0  0  0
  1  2  1  0  0  0  0
  1 14  1  0  0  0  0
  2  3  1  0  0  0  0
  3  4  1  0  0  0  0
  4  5  1  0  0  0  0
  5  6  1  0  0  0  0
  5 10  1  0  0  0  0
  6  7  1  0  0  0  0
  7  8  1  0  0  0  0
  8  9  1  0  0  0  0
  8 11  1  0  0  0  0
  9 10  1  0  0  0  0
 11 12  1  0  0  0  0
 11 13  1  0  0  0  0
 12 13  1  0  0  0  0
 14 15  4  0  0  0  0
 14 19  4  0  0  0  0
 15 16  4  0  0  0  0
 16 17  4  0  0  0  0
 16 23  1  0  0  0  0
 17 18  4  0  0  0  0
 17 20  1  0  0  0  0
 18 19  4  0  0  0  0
 20 21  1  0  0  0  0
 20 25  1  0  0  0  0
 21 22  1  0  0  0  0
 22 23  1  0  0  0  0
 22 24  1  0  0  0  0
 25 26  4  0  0  0  0
 25 32  4  0  0  0  0
 26 27  4  0  0  0  0
 27 28  4  0  0  0  0
 28 29  1  0  0  0  0
 28 31  4  0  0  0  0
 29 30  1  0  0  0  0
 31 32  4  0  0  0  0
M  END
>  <Name_Molregno>
393990

>  <HISTAMINE H3>
7.52

>  <Serotonin transporter>
7.74

$$$$
393992
  Marvin  02231216192D 0   1.00000     0.00000     0

 36 40  0  0  1  0  0  0  0  0999 V2000
    0.6687   -1.0687    0.0000 O   0  0  0  0  0  0  0  0  0
   -0.0458   -0.6562    0.0000 C   0  0  0  0  0  0  0  0  0
   -0.7603   -1.0687    0.0000 C   0  0  0  0  0  0  0  0  0
   -1.4747   -0.6562    0.0000 C   0  0  0  0  0  0  0  0  0
   -2.1892   -1.0687    0.0000 N   0  0  0  0  0  0  0  0  0
   -2.1892   -1.8937    0.0000 C   0  0  0  0  0  0  0  0  0
   -2.9037   -2.3062    0.0000 C   0  0  0  0  0  0  0  0  0
   -3.6182   -1.8937    0.0000 N   0  0  0  0  0  0  0  0  0
   -3.6182   -1.0687    0.0000 C   0  0  0  0  0  0  0  0  0
   -2.9037   -0.6562    0.0000 C   0  0  0  0  0  0  0  0  0
   -4.3326   -2.3062    0.0000 C   0  0  0  0  0  0  0  0  0
   -4.3326   -3.1312    0.0000 C   0  0  0  0  0  0  0  0  0
   -5.0471   -3.5437    0.0000 C   0  0  0  0  0  0  0  0  0
   -5.7616   -3.1312    0.0000 C   0  0  0  0  0  0  0  0  0
   -5.7616   -2.3062    0.0000 C   0  0  0  0  0  0  0  0  0
   -5.0471   -1.8937    0.0000 C   0  0  0  0  0  0  0  0  0
   -5.0471   -1.0687    0.0000 O   0  0  0  0  0  0  0  0  0
    1.3831   -0.6562    0.0000 C   0  0  0  0  0  0  0  0  0
    2.0976   -1.0687    0.0000 C   0  0  0  0  0  0  0  0  0
    2.8121   -0.6562    0.0000 C   0  0  0  0  0  0  0  0  0
    2.8121    0.1688    0.0000 C   0  0  0  0  0  0  0  0  0
    2.0976    0.5813    0.0000 C   0  0  0  0  0  0  0  0  0
    1.3831    0.1688    0.0000 C   0  0  0  0  0  0  0  0  0
    3.5266    0.5813    0.0000 C   0  0  0  0  0  0  0  0  0
    4.2410    0.1688    0.0000 C   0  0  0  0  0  0  0  0  0
    4.2410   -0.6562    0.0000 N   0  0  0  0  0  0  0  0  0
    3.5266   -1.0687    0.0000 C   0  0  0  0  0  0  0  0  0
    4.9555   -1.0687    0.0000 C   0  0  0  0  0  0  0  0  0
    3.5266    1.4063    0.0000 C   0  0  0  0  0  0  0  0  0
    2.8121    1.8188    0.0000 C   0  0  0  0  0  0  0  0  0
    2.8121    2.6438    0.0000 C   0  0  0  0  0  0  0  0  0
    3.5266    3.0563    0.0000 C   0  0  0  0  0  0  0  0  0
    3.5266    3.8813    0.0000 O   0  0  0  0  0  0  0  0  0
    4.2410    4.2938    0.0000 C   0  0  0  0  0  0  0  0  0
    4.2410    2.6438    0.0000 C   0  0  0  0  0  0  0  0  0
    4.2410    1.8188    0.0000 C   0  0  0  0  0  0  0  0  0
  1  2  1  0  0  0  0
  1 18  1  0  0  0  0
  2  3  1  0  0  0  0
  3  4  1  0  0  0  0
  4  5  1  0  0  0  0
  5  6  1  0  0  0  0
  5 10  1  0  0  0  0
  6  7  1  0  0  0  0
  7  8  1  0  0  0  0
  8  9  1  0  0  0  0
  8 11  1  0  0  0  0
  9 10  1  0  0  0  0
 11 12  4  0  0  0  0
 11 16  4  0  0  0  0
 12 13  4  0  0  0  0
 13 14  4  0  0  0  0
 14 15  4  0  0  0  0
 15 16  4  0  0  0  0
 16 17  1  0  0  0  0
 18 19  4  0  0  0  0
 18 23  4  0  0  0  0
 19 20  4  0  0  0  0
 20 21  4  0  0  0  0
 20 27  1  0  0  0  0
 21 22  4  0  0  0  0
 21 24  1  0  0  0  0
 22 23  4  0  0  0  0
 24 25  1  0  0  0  0
 24 29  1  0  0  0  0
 25 26  1  0  0  0  0
 26 27  1  0  0  0  0
 26 28  1  0  0  0  0
 29 30  4  0  0  0  0
 29 36  4  0  0  0  0
 30 31  4  0  0  0  0
 31 32  4  0  0  0  0
 32 33  1  0  0  0  0
 32 35  4  0  0  0  0
 33 34  1  0  0  0  0
 35 36  4  0  0  0  0
M  END
>  <Name_Molregno>
393992

>  <HISTAMINE H3>
5.96

>  <Serotonin transporter>
8.14

$$$$
393994
  Marvin  02231216192D 0   1.00000     0.00000     0

 37 41  0  0  1  0  0  0  0  0999 V2000
    0.2442   -0.7546    0.0000 O   0  0  0  0  0  0  0  0  0
   -0.4703   -0.3421    0.0000 C   0  0  0  0  0  0  0  0  0
   -1.1848   -0.7546    0.0000 C   0  0  0  0  0  0  0  0  0
   -1.8992   -0.3421    0.0000 C   0  0  0  0  0  0  0  0  0
   -2.6137   -0.7546    0.0000 N   0  0  0  0  0  0  0  0  0
   -2.6137   -1.5796    0.0000 C   0  0  0  0  0  0  0  0  0
   -3.3282   -1.9921    0.0000 C   0  0  0  0  0  0  0  0  0
   -4.0426   -1.5796    0.0000 N   0  0  0  0  0  0  0  0  0
   -4.0426   -0.7546    0.0000 C   0  0  0  0  0  0  0  0  0
   -3.3282   -0.3421    0.0000 C   0  0  0  0  0  0  0  0  0
   -4.7571   -1.9921    0.0000 C   0  0  0  0  0  0  0  0  0
   -4.7571   -2.8171    0.0000 C   0  0  0  0  0  0  0  0  0
   -5.4716   -3.2296    0.0000 C   0  0  0  0  0  0  0  0  0
   -6.1861   -2.8171    0.0000 C   0  0  0  0  0  0  0  0  0
   -6.1861   -1.9921    0.0000 C   0  0  0  0  0  0  0  0  0
   -5.4716   -1.5796    0.0000 C   0  0  0  0  0  0  0  0  0
   -6.9005   -3.2296    0.0000 C   0  0  0  0  0  0  0  0  0
   -7.6150   -3.6421    0.0000 N   0  0  0  0  0  0  0  0  0
    0.9586   -0.3421    0.0000 C   0  0  0  0  0  0  0  0  0
    1.6731   -0.7546    0.0000 C   0  0  0  0  0  0  0  0  0
    2.3876   -0.3421    0.0000 C   0  0  0  0  0  0  0  0  0
    2.3876    0.4829    0.0000 C   0  0  0  0  0  0  0  0  0
    1.6731    0.8954    0.0000 C   0  0  0  0  0  0  0  0  0
    0.9586    0.4829    0.0000 C   0  0  0  0  0  0  0  0  0
    3.1021    0.8954    0.0000 C   0  0  0  0  0  0  0  0  0
    3.8165    0.4829    0.0000 C   0  0  0  0  0  0  0  0  0
    3.8165   -0.3421    0.0000 N   0  0  0  0  0  0  0  0  0
    3.1021   -0.7546    0.0000 C   0  0  0  0  0  0  0  0  0
    4.5310   -0.7546    0.0000 C   0  0  0  0  0  0  0  0  0
    3.1021    1.7204    0.0000 C   0  0  0  0  0  0  0  0  0
    2.3876    2.1329    0.0000 C   0  0  0  0  0  0  0  0  0
    2.3876    2.9579    0.0000 C   0  0  0  0  0  0  0  0  0
    3.1021    3.3704    0.0000 C   0  0  0  0  0  0  0  0  0
    3.1021    4.1954    0.0000 O   0  0  0  0  0  0  0  0  0
    3.8165    4.6079    0.0000 C   0  0  0  0  0  0  0  0  0
    3.8165    2.9579    0.0000 C   0  0  0  0  0  0  0  0  0
    3.8165    2.1329    0.0000 C   0  0  0  0  0  0  0  0  0
  1  2  1  0  0  0  0
  1 19  1  0  0  0  0
  2  3  1  0  0  0  0
  3  4  1  0  0  0  0
  4  5  1  0  0  0  0
  5  6  1  0  0  0  0
  5 10  1  0  0  0  0
  6  7  1  0  0  0  0
  7  8  1  0  0  0  0
  8  9  1  0  0  0  0
  8 11  1  0  0  0  0
  9 10  1  0  0  0  0
 11 12  4  0  0  0  0
 11 16  4  0  0  0  0
 12 13  4  0  0  0  0
 13 14  4  0  0  0  0
 14 15  4  0  0  0  0
 14 17  1  0  0  0  0
 15 16  4  0  0  0  0
 17 18  3  0  0  0  0
 19 20  4  0  0  0  0
 19 24  4  0  0  0  0
 20 21  4  0  0  0  0
 21 22  4  0  0  0  0
 21 28  1  0  0  0  0
 22 23  4  0  0  0  0
 22 25  1  0  0  0  0
 23 24  4  0  0  0  0
 25 26  1  0  0  0  0
 25 30  1  0  0  0  0
 26 27  1  0  0  0  0
 27 28  1  0  0  0  0
 27 29  1  0  0  0  0
 30 31  4  0  0  0  0
 30 37  4  0  0  0  0
 31 32  4  0  0  0  0
 32 33  4  0  0  0  0
 33 34  1  0  0  0  0
 33 36  4  0  0  0  0
 34 35  1  0  0  0  0
 36 37  4  0  0  0  0
M  END
>  <Name_Molregno>
393994

>  <HISTAMINE H3>
6.84

>  <Serotonin transporter>
8.1

$$$$
393998
  Marvin  02231216192D 0   1.00000     0.00000     0

 34 38  0  0  1  0  0  0  0  0999 V2000
    0.9055   -3.0682    0.0000 S   0  0  0  0  0  0  0  0  0
    0.0985   -3.2397    0.0000 C   0  0  0  0  0  0  0  0  0
   -0.3140   -2.5253    0.0000 C   0  0  0  0  0  0  0  0  0
    0.2381   -1.9122    0.0000 N   0  0  0  0  0  0  0  0  0
    0.9917   -2.2477    0.0000 C   0  0  0  0  0  0  0  0  0
    1.7062   -1.8352    0.0000 N   0  0  0  0  0  0  0  0  0
    1.7062   -1.0102    0.0000 C   0  0  0  0  0  0  0  0  0
    2.4207   -0.5977    0.0000 C   0  0  0  0  0  0  0  0  0
    3.1351   -1.0102    0.0000 N   0  0  0  0  0  0  0  0  0
    3.1351   -1.8352    0.0000 C   0  0  0  0  0  0  0  0  0
    2.4207   -2.2477    0.0000 C   0  0  0  0  0  0  0  0  0
    3.8496   -0.5977    0.0000 C   0  0  0  0  0  0  0  0  0
    4.5641   -1.0102    0.0000 C   0  0  0  0  0  0  0  0  0
    5.2786   -0.5977    0.0000 C   0  0  0  0  0  0  0  0  0
    5.9930   -1.0102    0.0000 O   0  0  0  0  0  0  0  0  0
    6.7075   -0.5977    0.0000 C   0  0  0  0  0  0  0  0  0
    7.4220   -1.0102    0.0000 C   0  0  0  0  0  0  0  0  0
    8.1364   -0.5977    0.0000 C   0  0  0  0  0  0  0  0  0
    8.1364    0.2273    0.0000 C   0  0  0  0  0  0  0  0  0
    7.4220    0.6398    0.0000 C   0  0  0  0  0  0  0  0  0
    6.7075    0.2273    0.0000 C   0  0  0  0  0  0  0  0  0
    8.8509    0.6398    0.0000 C   0  0  0  0  0  0  0  0  0
    9.5654    0.2273    0.0000 C   0  0  0  0  0  0  0  0  0
    9.5654   -0.5977    0.0000 N   0  0  0  0  0  0  0  0  0
    8.8509   -1.0102    0.0000 C   0  0  0  0  0  0  0  0  0
   10.2799   -1.0102    0.0000 C   0  0  0  0  0  0  0  0  0
    8.8509    1.4648    0.0000 C   0  0  0  0  0  0  0  0  0
    8.1364    1.8773    0.0000 C   0  0  0  0  0  0  0  0  0
    8.1364    2.7023    0.0000 C   0  0  0  0  0  0  0  0  0
    8.8509    3.1148    0.0000 C   0  0  0  0  0  0  0  0  0
    8.8509    3.9398    0.0000 O   0  0  0  0  0  0  0  0  0
    9.5654    4.3523    0.0000 C   0  0  0  0  0  0  0  0  0
    9.5654    2.7023    0.0000 C   0  0  0  0  0  0  0  0  0
    9.5654    1.8773    0.0000 C   0  0  0  0  0  0  0  0  0
  1  2  4  0  0  0  0
  1  5  4  0  0  0  0
  2  3  4  0  0  0  0
  3  4  4  0  0  0  0
  4  5  4  0  0  0  0
  5  6  1  0  0  0  0
  6  7  1  0  0  0  0
  6 11  1  0  0  0  0
  7  8  1  0  0  0  0
  8  9  1  0  0  0  0
  9 10  1  0  0  0  0
  9 12  1  0  0  0  0
 10 11  1  0  0  0  0
 12 13  1  0  0  0  0
 13 14  1  0  0  0  0
 14 15  1  0  0  0  0
 15 16  1  0  0  0  0
 16 17  4  0  0  0  0
 16 21  4  0  0  0  0
 17 18  4  0  0  0  0
 18 19  4  0  0  0  0
 18 25  1  0  0  0  0
 19 20  4  0  0  0  0
 19 22  1  0  0  0  0
 20 21  4  0  0  0  0
 22 23  1  0  0  0  0
 22 27  1  0  0  0  0
 23 24  1  0  0  0  0
 24 25  1  0  0  0  0
 24 26  1  0  0  0  0
 27 28  4  0  0  0  0
 27 34  4  0  0  0  0
 28 29  4  0  0  0  0
 29 30  4  0  0  0  0
 30 31  1  0  0  0  0
 30 33  4  0  0  0  0
 31 32  1  0  0  0  0
 33 34  4  0  0  0  0
M  END
>  <Name_Molregno>
393998

>  <HISTAMINE H3>
6.57

>  <Serotonin transporter>
8.28

$$$$
394000
  Marvin  02231216192D 0   1.00000     0.00000     0

 35 39  0  0  1  0  0  0  0  0999 V2000
    0.3676   -1.0987    0.0000 O   0  0  0  0  0  0  0  0  0
   -0.3469   -0.6862    0.0000 C   0  0  0  0  0  0  0  0  0
   -1.0614   -1.0987    0.0000 C   0  0  0  0  0  0  0  0  0
   -1.7758   -0.6862    0.0000 C   0  0  0  0  0  0  0  0  0
   -2.4903   -1.0987    0.0000 N   0  0  0  0  0  0  0  0  0
   -2.4903   -1.9237    0.0000 C   0  0  0  0  0  0  0  0  0
   -3.2048   -2.3362    0.0000 C   0  0  0  0  0  0  0  0  0
   -3.9192   -1.9237    0.0000 N   0  0  0  0  0  0  0  0  0
   -3.9192   -1.0987    0.0000 C   0  0  0  0  0  0  0  0  0
   -3.2048   -0.6862    0.0000 C   0  0  0  0  0  0  0  0  0
   -4.6337   -2.3362    0.0000 C   0  0  0  0  0  0  0  0  0
   -4.6337   -3.1612    0.0000 C   0  0  0  0  0  0  0  0  0
   -5.3482   -3.5737    0.0000 C   0  0  0  0  0  0  0  0  0
   -6.0627   -3.1612    0.0000 N   0  0  0  0  0  0  0  0  0
   -6.0627   -2.3362    0.0000 C   0  0  0  0  0  0  0  0  0
   -5.3482   -1.9237    0.0000 C   0  0  0  0  0  0  0  0  0
    1.0821   -0.6862    0.0000 C   0  0  0  0  0  0  0  0  0
    1.7965   -1.0987    0.0000 C   0  0  0  0  0  0  0  0  0
    2.5110   -0.6862    0.0000 C   0  0  0  0  0  0  0  0  0
    2.5110    0.1388    0.0000 C   0  0  0  0  0  0  0  0  0
    1.7965    0.5513    0.0000 C   0  0  0  0  0  0  0  0  0
    1.0821    0.1388    0.0000 C   0  0  0  0  0  0  0  0  0
    3.2255    0.5513    0.0000 C   0  0  0  0  0  0  0  0  0
    3.9399    0.1388    0.0000 C   0  0  0  0  0  0  0  0  0
    3.9399   -0.6862    0.0000 N   0  0  0  0  0  0  0  0  0
    3.2255   -1.0987    0.0000 C   0  0  0  0  0  0  0  0  0
    4.6544   -1.0987    0.0000 C   0  0  0  0  0  0  0  0  0
    3.2255    1.3763    0.0000 C   0  0  0  0  0  0  0  0  0
    2.5110    1.7888    0.0000 C   0  0  0  0  0  0  0  0  0
    2.5110    2.6138    0.0000 C   0  0  0  0  0  0  0  0  0
    3.2255    3.0263    0.0000 C   0  0  0  0  0  0  0  0  0
    3.2255    3.8513    0.0000 O   0  0  0  0  0  0  0  0  0
    3.9399    4.2638    0.0000 C   0  0  0  0  0  0  0  0  0
    3.9399    2.6138    0.0000 C   0  0  0  0  0  0  0  0  0
    3.9399    1.7888    0.0000 C   0  0  0  0  0  0  0  0  0
  1  2  1  0  0  0  0
  1 17  1  0  0  0  0
  2  3  1  0  0  0  0
  3  4  1  0  0  0  0
  4  5  1  0  0  0  0
  5  6  1  0  0  0  0
  5 10  1  0  0  0  0
  6  7  1  0  0  0  0
  7  8  1  0  0  0  0
  8  9  1  0  0  0  0
  8 11  1  0  0  0  0
  9 10  1  0  0  0  0
 11 12  4  0  0  0  0
 11 16  4  0  0  0  0
 12 13  4  0  0  0  0
 13 14  4  0  0  0  0
 14 15  4  0  0  0  0
 15 16  4  0  0  0  0
 17 18  4  0  0  0  0
 17 22  4  0  0  0  0
 18 19  4  0  0  0  0
 19 20  4  0  0  0  0
 19 26  1  0  0  0  0
 20 21  4  0  0  0  0
 20 23  1  0  0  0  0
 21 22  4  0  0  0  0
 23 24  1  0  0  0  0
 23 28  1  0  0  0  0
 24 25  1  0  0  0  0
 25 26  1  0  0  0  0
 25 27  1  0  0  0  0
 28 29  4  0  0  0  0
 28 35  4  0  0  0  0
 29 30  4  0  0  0  0
 30 31  4  0  0  0  0
 31 32  1  0  0  0  0
 31 34  4  0  0  0  0
 32 33  1  0  0  0  0
 34 35  4  0  0  0  0
M  STY  1   1 DAT
M  SAL   1  1  14
M  SDT   1 MRV_IMPLICIT_H                                        
M  SDD   1     0.0000    0.0000    DR    ALL  0       0  
M  SED   1 IMPL_H1
M  END
>  <Name_Molregno>
394000

>  <HISTAMINE H3>
8.48

>  <Serotonin transporter>
8.4

$$$$
394002
  Marvin  02231216192D 0   1.00000     0.00000     0

 39 43  0  0  1  0  0  0  0  0999 V2000
    0.5455   -4.2556    0.0000 F   0  0  0  0  0  0  0  0  0
    1.2600   -3.8431    0.0000 C   0  0  0  0  0  0  0  0  0
    1.6725   -4.5576    0.0000 F   0  0  0  0  0  0  0  0  0
    0.8475   -3.1286    0.0000 F   0  0  0  0  0  0  0  0  0
    1.9744   -3.4306    0.0000 C   0  0  0  0  0  0  0  0  0
    1.9744   -2.6056    0.0000 C   0  0  0  0  0  0  0  0  0
    2.6889   -2.1931    0.0000 C   0  0  0  0  0  0  0  0  0
    3.4034   -2.6056    0.0000 C   0  0  0  0  0  0  0  0  0
    4.1178   -2.1931    0.0000 N   0  0  0  0  0  0  0  0  0
    4.1178   -1.3681    0.0000 C   0  0  0  0  0  0  0  0  0
    4.8323   -0.9556    0.0000 C   0  0  0  0  0  0  0  0  0
    5.5468   -1.3681    0.0000 N   0  0  0  0  0  0  0  0  0
    5.5468   -2.1931    0.0000 C   0  0  0  0  0  0  0  0  0
    4.8323   -2.6056    0.0000 C   0  0  0  0  0  0  0  0  0
    6.2613   -0.9556    0.0000 C   0  0  0  0  0  0  0  0  0
    6.9757   -1.3681    0.0000 C   0  0  0  0  0  0  0  0  0
    7.6902   -0.9556    0.0000 C   0  0  0  0  0  0  0  0  0
    8.4047   -1.3681    0.0000 O   0  0  0  0  0  0  0  0  0
    9.1191   -0.9556    0.0000 C   0  0  0  0  0  0  0  0  0
    9.8336   -1.3681    0.0000 C   0  0  0  0  0  0  0  0  0
   10.5481   -0.9556    0.0000 C   0  0  0  0  0  0  0  0  0
   10.5481   -0.1306    0.0000 C   0  0  0  0  0  0  0  0  0
    9.8336    0.2819    0.0000 C   0  0  0  0  0  0  0  0  0
    9.1191   -0.1306    0.0000 C   0  0  0  0  0  0  0  0  0
   11.2626    0.2819    0.0000 C   0  0  0  0  0  0  0  0  0
   11.9770   -0.1306    0.0000 C   0  0  0  0  0  0  0  0  0
   11.9770   -0.9556    0.0000 N   0  0  0  0  0  0  0  0  0
   11.2626   -1.3681    0.0000 C   0  0  0  0  0  0  0  0  0
   12.6915   -1.3681    0.0000 C   0  0  0  0  0  0  0  0  0
   11.2626    1.1069    0.0000 C   0  0  0  0  0  0  0  0  0
   10.5481    1.5194    0.0000 C   0  0  0  0  0  0  0  0  0
   10.5481    2.3444    0.0000 C   0  0  0  0  0  0  0  0  0
   11.2626    2.7569    0.0000 C   0  0  0  0  0  0  0  0  0
   11.2626    3.5819    0.0000 O   0  0  0  0  0  0  0  0  0
   11.9770    3.9944    0.0000 C   0  0  0  0  0  0  0  0  0
   11.9770    2.3444    0.0000 C   0  0  0  0  0  0  0  0  0
   11.9770    1.5194    0.0000 C   0  0  0  0  0  0  0  0  0
    3.4034   -3.4306    0.0000 C   0  0  0  0  0  0  0  0  0
    2.6889   -3.8431    0.0000 C   0  0  0  0  0  0  0  0  0
  1  2  1  0  0  0  0
  2  3  1  0  0  0  0
  2  4  1  0  0  0  0
  2  5  1  0  0  0  0
  5  6  4  0  0  0  0
  5 39  4  0  0  0  0
  6  7  4  0  0  0  0
  7  8  4  0  0  0  0
  8  9  1  0  0  0  0
  8 38  4  0  0  0  0
  9 10  1  0  0  0  0
  9 14  1  0  0  0  0
 10 11  1  0  0  0  0
 11 12  1  0  0  0  0
 12 13  1  0  0  0  0
 12 15  1  0  0  0  0
 13 14  1  0  0  0  0
 15 16  1  0  0  0  0
 16 17  1  0  0  0  0
 17 18  1  0  0  0  0
 18 19  1  0  0  0  0
 19 20  4  0  0  0  0
 19 24  4  0  0  0  0
 20 21  4  0  0  0  0
 21 22  4  0  0  0  0
 21 28  1  0  0  0  0
 22 23  4  0  0  0  0
 22 25  1  0  0  0  0
 23 24  4  0  0  0  0
 25 26  1  0  0  0  0
 25 30  1  0  0  0  0
 26 27  1  0  0  0  0
 27 28  1  0  0  0  0
 27 29  1  0  0  0  0
 30 31  4  0  0  0  0
 30 37  4  0  0  0  0
 31 32  4  0  0  0  0
 32 33  4  0  0  0  0
 33 34  1  0  0  0  0
 33 36  4  0  0  0  0
 34 35  1  0  0  0  0
 36 37  4  0  0  0  0
 38 39  4  0  0  0  0
M  END
>  <Name_Molregno>
394002

>  <HISTAMINE H3>
5.84

>  <Serotonin transporter>
7.48

$$$$
394004
  Marvin  02231216192D 0   1.00000     0.00000     0

 32 35  0  0  1  0  0  0  0  0999 V2000
   -0.7427   -1.5611    0.0000 O   0  0  0  0  0  0  0  0  0
   -1.4572   -1.1486    0.0000 C   0  0  0  0  0  0  0  0  0
   -2.1717   -1.5611    0.0000 C   0  0  0  0  0  0  0  0  0
   -2.8861   -1.1486    0.0000 C   0  0  0  0  0  0  0  0  0
   -3.6006   -1.5611    0.0000 N   0  0  0  0  0  0  0  0  0
   -3.6006   -2.3861    0.0000 C   0  0  0  0  0  0  0  0  0
   -4.3151   -2.7986    0.0000 C   0  0  0  0  0  0  0  0  0
   -5.0295   -2.3861    0.0000 N   0  0  0  0  0  0  0  0  0
   -5.0295   -1.5611    0.0000 C   0  0  0  0  0  0  0  0  0
   -4.3151   -1.1486    0.0000 C   0  0  0  0  0  0  0  0  0
   -5.7440   -2.7986    0.0000 C   0  0  0  0  0  0  0  0  0
   -6.4585   -2.3861    0.0000 O   0  0  0  0  0  0  0  0  0
   -5.7440   -3.6236    0.0000 C   0  0  0  0  0  0  0  0  0
   -0.0282   -1.1486    0.0000 C   0  0  0  0  0  0  0  0  0
    0.6862   -1.5611    0.0000 C   0  0  0  0  0  0  0  0  0
    1.4007   -1.1486    0.0000 C   0  0  0  0  0  0  0  0  0
    1.4007   -0.3236    0.0000 C   0  0  0  0  0  0  0  0  0
    0.6862    0.0889    0.0000 C   0  0  0  0  0  0  0  0  0
   -0.0282   -0.3236    0.0000 C   0  0  0  0  0  0  0  0  0
    2.1152    0.0889    0.0000 C   0  0  0  0  0  0  0  0  0
    2.8296   -0.3236    0.0000 C   0  0  0  0  0  0  0  0  0
    2.8296   -1.1486    0.0000 N   0  0  0  0  0  0  0  0  0
    2.1152   -1.5611    0.0000 C   0  0  0  0  0  0  0  0  0
    3.5441   -1.5611    0.0000 C   0  0  0  0  0  0  0  0  0
    2.1152    0.9139    0.0000 C   0  0  0  0  0  0  0  0  0
    1.4007    1.3264    0.0000 C   0  0  0  0  0  0  0  0  0
    1.4007    2.1514    0.0000 C   0  0  0  0  0  0  0  0  0
    2.1152    2.5639    0.0000 C   0  0  0  0  0  0  0  0  0
    2.1152    3.3889    0.0000 O   0  0  0  0  0  0  0  0  0
    2.8296    3.8014    0.0000 C   0  0  0  0  0  0  0  0  0
    2.8296    2.1514    0.0000 C   0  0  0  0  0  0  0  0  0
    2.8296    1.3264    0.0000 C   0  0  0  0  0  0  0  0  0
  1  2  1  0  0  0  0
  1 14  1  0  0  0  0
  2  3  1  0  0  0  0
  3  4  1  0  0  0  0
  4  5  1  0  0  0  0
  5  6  1  0  0  0  0
  5 10  1  0  0  0  0
  6  7  1  0  0  0  0
  7  8  1  0  0  0  0
  8  9  1  0  0  0  0
  8 11  1  0  0  0  0
  9 10  1  0  0  0  0
 11 12  2  0  0  0  0
 11 13  1  0  0  0  0
 14 15  4  0  0  0  0
 14 19  4  0  0  0  0
 15 16  4  0  0  0  0
 16 17  4  0  0  0  0
 16 23  1  0  0  0  0
 17 18  4  0  0  0  0
 17 20  1  0  0  0  0
 18 19  4  0  0  0  0
 20 21  1  0  0  0  0
 20 25  1  0  0  0  0
 21 22  1  0  0  0  0
 22 23  1  0  0  0  0
 22 24  1  0  0  0  0
 25 26  4  0  0  0  0
 25 32  4  0  0  0  0
 26 27  4  0  0  0  0
 27 28  4  0  0  0  0
 28 29  1  0  0  0  0
 28 31  4  0  0  0  0
 29 30  1  0  0  0  0
 31 32  4  0  0  0  0
M  END
>  <Name_Molregno>
394004

>  <HISTAMINE H3>
6.57

>  <Serotonin transporter>
7.38

$$$$
394006
  Marvin  02231216192D 0   1.00000     0.00000     0

 34 37  0  0  1  0  0  0  0  0999 V2000
    0.0011   -1.3942    0.0000 O   0  0  0  0  0  0  0  0  0
   -0.7134   -0.9817    0.0000 C   0  0  0  0  0  0  0  0  0
   -1.4278   -1.3942    0.0000 C   0  0  0  0  0  0  0  0  0
   -2.1423   -0.9817    0.0000 C   0  0  0  0  0  0  0  0  0
   -2.8568   -1.3942    0.0000 N   0  0  0  0  0  0  0  0  0
   -2.8568   -2.2192    0.0000 C   0  0  0  0  0  0  0  0  0
   -3.5713   -2.6317    0.0000 C   0  0  0  0  0  0  0  0  0
   -4.2857   -2.2192    0.0000 N   0  0  0  0  0  0  0  0  0
   -4.2857   -1.3942    0.0000 C   0  0  0  0  0  0  0  0  0
   -3.5713   -0.9817    0.0000 C   0  0  0  0  0  0  0  0  0
   -5.0002   -2.6317    0.0000 C   0  0  0  0  0  0  0  0  0
   -5.0002   -3.4567    0.0000 O   0  0  0  0  0  0  0  0  0
   -5.7147   -2.2192    0.0000 C   0  0  0  0  0  0  0  0  0
   -6.4291   -2.6317    0.0000 C   0  0  0  0  0  0  0  0  0
   -5.7147   -1.3942    0.0000 C   0  0  0  0  0  0  0  0  0
    0.7156   -0.9817    0.0000 C   0  0  0  0  0  0  0  0  0
    1.4300   -1.3942    0.0000 C   0  0  0  0  0  0  0  0  0
    2.1445   -0.9817    0.0000 C   0  0  0  0  0  0  0  0  0
    2.1445   -0.1567    0.0000 C   0  0  0  0  0  0  0  0  0
    1.4300    0.2558    0.0000 C   0  0  0  0  0  0  0  0  0
    0.7156   -0.1567    0.0000 C   0  0  0  0  0  0  0  0  0
    2.8590    0.2558    0.0000 C   0  0  0  0  0  0  0  0  0
    3.5735   -0.1567    0.0000 C   0  0  0  0  0  0  0  0  0
    3.5735   -0.9817    0.0000 N   0  0  0  0  0  0  0  0  0
    2.8590   -1.3942    0.0000 C   0  0  0  0  0  0  0  0  0
    4.2879   -1.3942    0.0000 C   0  0  0  0  0  0  0  0  0
    2.8590    1.0808    0.0000 C   0  0  0  0  0  0  0  0  0
    2.1445    1.4933    0.0000 C   0  0  0  0  0  0  0  0  0
    2.1445    2.3183    0.0000 C   0  0  0  0  0  0  0  0  0
    2.8590    2.7308    0.0000 C   0  0  0  0  0  0  0  0  0
    2.8590    3.5558    0.0000 O   0  0  0  0  0  0  0  0  0
    3.5735    3.9683    0.0000 C   0  0  0  0  0  0  0  0  0
    3.5735    2.3183    0.0000 C   0  0  0  0  0  0  0  0  0
    3.5735    1.4933    0.0000 C   0  0  0  0  0  0  0  0  0
  1  2  1  0  0  0  0
  1 16  1  0  0  0  0
  2  3  1  0  0  0  0
  3  4  1  0  0  0  0
  4  5  1  0  0  0  0
  5  6  1  0  0  0  0
  5 10  1  0  0  0  0
  6  7  1  0  0  0  0
  7  8  1  0  0  0  0
  8  9  1  0  0  0  0
  8 11  1  0  0  0  0
  9 10  1  0  0  0  0
 11 12  2  0  0  0  0
 11 13  1  0  0  0  0
 13 14  1  0  0  0  0
 13 15  1  0  0  0  0
 16 17  4  0  0  0  0
 16 21  4  0  0  0  0
 17 18  4  0  0  0  0
 18 19  4  0  0  0  0
 18 25  1  0  0  0  0
 19 20  4  0  0  0  0
 19 22  1  0  0  0  0
 20 21  4  0  0  0  0
 22 23  1  0  0  0  0
 22 27  1  0  0  0  0
 23 24  1  0  0  0  0
 24 25  1  0  0  0  0
 24 26  1  0  0  0  0
 27 28  4  0  0  0  0
 27 34  4  0  0  0  0
 28 29  4  0  0  0  0
 29 30  4  0  0  0  0
 30 31  1  0  0  0  0
 30 33  4  0  0  0  0
 31 32  1  0  0  0  0
 33 34  4  0  0  0  0
M  END
>  <Name_Molregno>
394006

>  <HISTAMINE H3>
6.29

>  <Serotonin transporter>
7.82

$$$$
394008
  Marvin  02231216192D 0   1.00000     0.00000     0

 37 41  0  0  1  0  0  0  0  0999 V2000
    1.0924   -1.1590    0.0000 O   0  0  0  0  0  0  0  0  0
    0.3779   -0.7465    0.0000 C   0  0  0  0  0  0  0  0  0
   -0.3366   -1.1590    0.0000 C   0  0  0  0  0  0  0  0  0
   -1.0510   -0.7465    0.0000 C   0  0  0  0  0  0  0  0  0
   -1.7655   -1.1590    0.0000 N   0  0  0  0  0  0  0  0  0
   -1.7655   -1.9840    0.0000 C   0  0  0  0  0  0  0  0  0
   -2.4800   -2.3965    0.0000 C   0  0  0  0  0  0  0  0  0
   -3.1945   -1.9840    0.0000 N   0  0  0  0  0  0  0  0  0
   -3.1945   -1.1590    0.0000 C   0  0  0  0  0  0  0  0  0
   -2.4800   -0.7465    0.0000 C   0  0  0  0  0  0  0  0  0
   -3.9089   -2.3965    0.0000 C   0  0  0  0  0  0  0  0  0
   -3.9089   -3.2215    0.0000 O   0  0  0  0  0  0  0  0  0
   -4.6234   -1.9840    0.0000 C   0  0  0  0  0  0  0  0  0
   -5.3771   -2.3195    0.0000 N   0  0  0  0  0  0  0  0  0
   -5.9291   -1.7064    0.0000 C   0  0  0  0  0  0  0  0  0
   -5.5166   -0.9919    0.0000 C   0  0  0  0  0  0  0  0  0
   -4.7096   -1.1635    0.0000 C   0  0  0  0  0  0  0  0  0
   -5.5486   -3.1265    0.0000 C   0  0  0  0  0  0  0  0  0
    1.8068   -0.7465    0.0000 C   0  0  0  0  0  0  0  0  0
    2.5213   -1.1590    0.0000 C   0  0  0  0  0  0  0  0  0
    3.2358   -0.7465    0.0000 C   0  0  0  0  0  0  0  0  0
    3.2358    0.0785    0.0000 C   0  0  0  0  0  0  0  0  0
    2.5213    0.4910    0.0000 C   0  0  0  0  0  0  0  0  0
    1.8068    0.0785    0.0000 C   0  0  0  0  0  0  0  0  0
    3.9503    0.4910    0.0000 C   0  0  0  0  0  0  0  0  0
    4.6647    0.0785    0.0000 C   0  0  0  0  0  0  0  0  0
    4.6647   -0.7465    0.0000 N   0  0  0  0  0  0  0  0  0
    3.9503   -1.1590    0.0000 C   0  0  0  0  0  0  0  0  0
    5.3792   -1.1590    0.0000 C   0  0  0  0  0  0  0  0  0
    3.9503    1.3160    0.0000 C   0  0  0  0  0  0  0  0  0
    3.2358    1.7285    0.0000 C   0  0  0  0  0  0  0  0  0
    3.2358    2.5535    0.0000 C   0  0  0  0  0  0  0  0  0
    3.9503    2.9660    0.0000 C   0  0  0  0  0  0  0  0  0
    3.9503    3.7910    0.0000 O   0  0  0  0  0  0  0  0  0
    4.6647    4.2035    0.0000 C   0  0  0  0  0  0  0  0  0
    4.6647    2.5535    0.0000 C   0  0  0  0  0  0  0  0  0
    4.6647    1.7285    0.0000 C   0  0  0  0  0  0  0  0  0
  1  2  1  0  0  0  0
  1 19  1  0  0  0  0
  2  3  1  0  0  0  0
  3  4  1  0  0  0  0
  4  5  1  0  0  0  0
  5  6  1  0  0  0  0
  5 10  1  0  0  0  0
  6  7  1  0  0  0  0
  7  8  1  0  0  0  0
  8  9  1  0  0  0  0
  8 11  1  0  0  0  0
  9 10  1  0  0  0  0
 11 12  2  0  0  0  0
 11 13  1  0  0  0  0
 13 14  4  0  0  0  0
 13 17  4  0  0  0  0
 14 15  4  0  0  0  0
 14 18  1  0  0  0  0
 15 16  4  0  0  0  0
 16 17  4  0  0  0  0
 19 20  4  0  0  0  0
 19 24  4  0  0  0  0
 20 21  4  0  0  0  0
 21 22  4  0  0  0  0
 21 28  1  0  0  0  0
 22 23  4  0  0  0  0
 22 25  1  0  0  0  0
 23 24  4  0  0  0  0
 25 26  1  0  0  0  0
 25 30  1  0  0  0  0
 26 27  1  0  0  0  0
 27 28  1  0  0  0  0
 27 29  1  0  0  0  0
 30 31  4  0  0  0  0
 30 37  4  0  0  0  0
 31 32  4  0  0  0  0
 32 33  4  0  0  0  0
 33 34  1  0  0  0  0
 33 36  4  0  0  0  0
 34 35  1  0  0  0  0
 36 37  4  0  0  0  0
M  END
>  <Name_Molregno>
394008

>  <HISTAMINE H3>
5.58

>  <Serotonin transporter>
8.06

$$$$
394010
  Marvin  02231216192D 0   1.00000     0.00000     0

 37 41  0  0  1  0  0  0  0  0999 V2000
    1.1110   -1.2570    0.0000 O   0  0  0  0  0  0  0  0  0
    0.3965   -0.8445    0.0000 C   0  0  0  0  0  0  0  0  0
   -0.3179   -1.2570    0.0000 C   0  0  0  0  0  0  0  0  0
   -1.0324   -0.8445    0.0000 C   0  0  0  0  0  0  0  0  0
   -1.7469   -1.2570    0.0000 N   0  0  0  0  0  0  0  0  0
   -1.7469   -2.0820    0.0000 C   0  0  0  0  0  0  0  0  0
   -2.4613   -2.4945    0.0000 C   0  0  0  0  0  0  0  0  0
   -3.1758   -2.0820    0.0000 N   0  0  0  0  0  0  0  0  0
   -3.1758   -1.2570    0.0000 C   0  0  0  0  0  0  0  0  0
   -2.4613   -0.8445    0.0000 C   0  0  0  0  0  0  0  0  0
   -3.8903   -2.4945    0.0000 C   0  0  0  0  0  0  0  0  0
   -3.8903   -3.3195    0.0000 O   0  0  0  0  0  0  0  0  0
   -4.6048   -2.0820    0.0000 C   0  0  0  0  0  0  0  0  0
   -5.3192   -2.4945    0.0000 C   0  0  0  0  0  0  0  0  0
   -6.0337   -2.0820    0.0000 C   0  0  0  0  0  0  0  0  0
   -6.0337   -1.2570    0.0000 N   0  0  0  0  0  0  0  0  0
   -5.3192   -0.8445    0.0000 C   0  0  0  0  0  0  0  0  0
   -4.6048   -1.2570    0.0000 C   0  0  0  0  0  0  0  0  0
    1.8255   -0.8445    0.0000 C   0  0  0  0  0  0  0  0  0
    2.5400   -1.2570    0.0000 C   0  0  0  0  0  0  0  0  0
    3.2544   -0.8445    0.0000 C   0  0  0  0  0  0  0  0  0
    3.2544   -0.0195    0.0000 C   0  0  0  0  0  0  0  0  0
    2.5400    0.3930    0.0000 C   0  0  0  0  0  0  0  0  0
    1.8255   -0.0195    0.0000 C   0  0  0  0  0  0  0  0  0
    3.9689    0.3930    0.0000 C   0  0  0  0  0  0  0  0  0
    4.6834   -0.0195    0.0000 C   0  0  0  0  0  0  0  0  0
    4.6834   -0.8445    0.0000 N   0  0  0  0  0  0  0  0  0
    3.9689   -1.2570    0.0000 C   0  0  0  0  0  0  0  0  0
    5.3978   -1.2570    0.0000 C   0  0  0  0  0  0  0  0  0
    3.9689    1.2180    0.0000 C   0  0  0  0  0  0  0  0  0
    3.2544    1.6305    0.0000 C   0  0  0  0  0  0  0  0  0
    3.2544    2.4555    0.0000 C   0  0  0  0  0  0  0  0  0
    3.9689    2.8680    0.0000 C   0  0  0  0  0  0  0  0  0
    3.9689    3.6930    0.0000 O   0  0  0  0  0  0  0  0  0
    4.6834    4.1055    0.0000 C   0  0  0  0  0  0  0  0  0
    4.6834    2.4555    0.0000 C   0  0  0  0  0  0  0  0  0
    4.6834    1.6305    0.0000 C   0  0  0  0  0  0  0  0  0
  1  2  1  0  0  0  0
  1 19  1  0  0  0  0
  2  3  1  0  0  0  0
  3  4  1  0  0  0  0
  4  5  1  0  0  0  0
  5  6  1  0  0  0  0
  5 10  1  0  0  0  0
  6  7  1  0  0  0  0
  7  8  1  0  0  0  0
  8  9  1  0  0  0  0
  8 11  1  0  0  0  0
  9 10  1  0  0  0  0
 11 12  2  0  0  0  0
 11 13  1  0  0  0  0
 13 14  4  0  0  0  0
 13 18  4  0  0  0  0
 14 15  4  0  0  0  0
 15 16  4  0  0  0  0
 16 17  4  0  0  0  0
 17 18  4  0  0  0  0
 19 20  4  0  0  0  0
 19 24  4  0  0  0  0
 20 21  4  0  0  0  0
 21 22  4  0  0  0  0
 21 28  1  0  0  0  0
 22 23  4  0  0  0  0
 22 25  1  0  0  0  0
 23 24  4  0  0  0  0
 25 26  1  0  0  0  0
 25 30  1  0  0  0  0
 26 27  1  0  0  0  0
 27 28  1  0  0  0  0
 27 29  1  0  0  0  0
 30 31  4  0  0  0  0
 30 37  4  0  0  0  0
 31 32  4  0  0  0  0
 32 33  4  0  0  0  0
 33 34  1  0  0  0  0
 33 36  4  0  0  0  0
 34 35  1  0  0  0  0
 36 37  4  0  0  0  0
M  END
>  <Name_Molregno>
394010

>  <HISTAMINE H3>
5.55

>  <Serotonin transporter>
7.72

$$$$
399911
  Marvin  02231216192D 0   1.00000     0.00000     0

 28 30  0  0  0  0  0  0  0  0999 V2000
   -1.5271    6.2736    0.0000 S   0  0  0  0  0  0  0  0  0
   -2.2416    6.6861    0.0000 C   0  0  0  0  0  0  0  0  0
   -1.5271    5.4486    0.0000 C   0  0  0  0  0  0  0  0  0
   -0.8127    5.0361    0.0000 C   0  0  0  0  0  0  0  0  0
   -0.8127    4.2111    0.0000 C   0  0  0  0  0  0  0  0  0
   -1.5271    3.7986    0.0000 C   0  0  0  0  0  0  0  0  0
   -1.5271    2.9736    0.0000 O   0  0  0  0  0  0  0  0  0
   -2.2416    2.5611    0.0000 C   0  0  0  0  0  0  0  0  0
   -2.2416    1.7361    0.0000 C   0  0  0  0  0  0  0  0  0
   -2.9561    1.3236    0.0000 C   0  0  0  0  0  0  0  0  0
   -3.6705    1.7361    0.0000 C   0  0  0  0  0  0  0  0  0
   -3.6705    2.5611    0.0000 C   0  0  0  0  0  0  0  0  0
   -2.9561    2.9736    0.0000 C   0  0  0  0  0  0  0  0  0
   -2.9561    3.7986    0.0000 C   0  0  0  0  0  0  0  0  0
   -3.6705    4.2111    0.0000 N   0  0  0  0  0  0  0  0  0
   -3.6705    5.0361    0.0000 C   0  0  0  0  0  0  0  0  0
   -4.3850    1.3236    0.0000 C   0  0  0  0  0  0  0  0  0
   -5.0995    0.9111    0.0000 C   0  0  0  0  0  0  0  0  0
   -5.8140    0.4986    0.0000 C   0  0  0  0  0  0  0  0  0
   -5.8140   -0.3264    0.0000 C   0  0  0  0  0  0  0  0  0
   -6.5284   -0.7389    0.0000 N   0  0  0  0  0  0  0  0  0
   -6.5284   -1.5639    0.0000 C   0  0  0  0  0  0  0  0  0
   -7.2429   -1.9764    0.0000 C   0  0  0  0  0  0  0  0  0
   -7.9574   -1.5639    0.0000 C   0  0  0  0  0  0  0  0  0
   -7.9574   -0.7389    0.0000 C   0  0  0  0  0  0  0  0  0
   -7.2429   -0.3264    0.0000 C   0  0  0  0  0  0  0  0  0
   -2.2416    4.2111    0.0000 C   0  0  0  0  0  0  0  0  0
   -2.2416    5.0361    0.0000 C   0  0  0  0  0  0  0  0  0
  1  2  1  0  0  0  0
  1  3  1  0  0  0  0
  3  4  4  0  0  0  0
  3 28  4  0  0  0  0
  4  5  4  0  0  0  0
  5  6  4  0  0  0  0
  6  7  1  0  0  0  0
  6 27  4  0  0  0  0
  7  8  1  0  0  0  0
  8  9  4  0  0  0  0
  8 13  4  0  0  0  0
  9 10  4  0  0  0  0
 10 11  4  0  0  0  0
 11 12  4  0  0  0  0
 11 17  1  0  0  0  0
 12 13  4  0  0  0  0
 13 14  1  0  0  0  0
 14 15  1  0  0  0  0
 15 16  1  0  0  0  0
 17 18  3  0  0  0  0
 18 19  1  0  0  0  0
 19 20  1  0  0  0  0
 20 21  1  0  0  0  0
 21 22  1  0  0  0  0
 21 26  1  0  0  0  0
 22 23  1  0  0  0  0
 23 24  1  0  0  0  0
 24 25  1  0  0  0  0
 25 26  1  0  0  0  0
 27 28  4  0  0  0  0
M  END
>  <Name_Molregno>
399911

>  <HISTAMINE H3>
8.77

>  <Serotonin transporter>
9.15

$$$$
399913
  Marvin  02231216192D 0   1.00000     0.00000     0

 28 30  0  0  0  0  0  0  0  0999 V2000
   -1.5271    6.2736    0.0000 S   0  0  0  0  0  0  0  0  0
   -2.2416    6.6861    0.0000 C   0  0  0  0  0  0  0  0  0
   -1.5271    5.4486    0.0000 C   0  0  0  0  0  0  0  0  0
   -0.8127    5.0361    0.0000 C   0  0  0  0  0  0  0  0  0
   -0.8127    4.2111    0.0000 C   0  0  0  0  0  0  0  0  0
   -1.5271    3.7986    0.0000 C   0  0  0  0  0  0  0  0  0
   -1.5271    2.9736    0.0000 O   0  0  0  0  0  0  0  0  0
   -2.2416    2.5611    0.0000 C   0  0  0  0  0  0  0  0  0
   -2.2416    1.7361    0.0000 C   0  0  0  0  0  0  0  0  0
   -2.9561    1.3236    0.0000 C   0  0  0  0  0  0  0  0  0
   -3.6705    1.7361    0.0000 C   0  0  0  0  0  0  0  0  0
   -3.6705    2.5611    0.0000 C   0  0  0  0  0  0  0  0  0
   -2.9561    2.9736    0.0000 C   0  0  0  0  0  0  0  0  0
   -2.9561    3.7986    0.0000 C   0  0  0  0  0  0  0  0  0
   -3.6705    4.2111    0.0000 N   0  0  0  0  0  0  0  0  0
   -3.6705    5.0361    0.0000 C   0  0  0  0  0  0  0  0  0
   -4.3850    1.3236    0.0000 C   0  0  0  0  0  0  0  0  0
   -5.0995    0.9111    0.0000 C   0  0  0  0  0  0  0  0  0
   -5.8140    0.4986    0.0000 C   0  0  0  0  0  0  0  0  0
   -5.8140   -0.3264    0.0000 C   0  0  0  0  0  0  0  0  0
   -6.5284   -0.7389    0.0000 N   0  0  0  0  0  0  0  0  0
   -6.5284   -1.5639    0.0000 C   0  0  0  0  0  0  0  0  0
   -7.2429   -1.9764    0.0000 C   0  0  0  0  0  0  0  0  0
   -7.9574   -1.5639    0.0000 O   0  0  0  0  0  0  0  0  0
   -7.9574   -0.7389    0.0000 C   0  0  0  0  0  0  0  0  0
   -7.2429   -0.3264    0.0000 C   0  0  0  0  0  0  0  0  0
   -2.2416    4.2111    0.0000 C   0  0  0  0  0  0  0  0  0
   -2.2416    5.0361    0.0000 C   0  0  0  0  0  0  0  0  0
  1  2  1  0  0  0  0
  1  3  1  0  0  0  0
  3  4  4  0  0  0  0
  3 28  4  0  0  0  0
  4  5  4  0  0  0  0
  5  6  4  0  0  0  0
  6  7  1  0  0  0  0
  6 27  4  0  0  0  0
  7  8  1  0  0  0  0
  8  9  4  0  0  0  0
  8 13  4  0  0  0  0
  9 10  4  0  0  0  0
 10 11  4  0  0  0  0
 11 12  4  0  0  0  0
 11 17  1  0  0  0  0
 12 13  4  0  0  0  0
 13 14  1  0  0  0  0
 14 15  1  0  0  0  0
 15 16  1  0  0  0  0
 17 18  3  0  0  0  0
 18 19  1  0  0  0  0
 19 20  1  0  0  0  0
 20 21  1  0  0  0  0
 21 22  1  0  0  0  0
 21 26  1  0  0  0  0
 22 23  1  0  0  0  0
 23 24  1  0  0  0  0
 24 25  1  0  0  0  0
 25 26  1  0  0  0  0
 27 28  4  0  0  0  0
M  END
>  <Name_Molregno>
399913

>  <Dopamine transporter>
6.15

>  <HISTAMINE H3>
7.96

>  <Norepinephrine transporter>
6.54

>  <Serotonin transporter>
9.1

$$$$
399916
  Marvin  02231216192D 0   1.00000     0.00000     0

 28 30  0  0  0  0  0  0  0  0999 V2000
    4.0658    3.7810    0.0000 Cl  0  0  0  0  0  0  0  0  0
    4.0658    2.9560    0.0000 C   0  0  0  0  0  0  0  0  0
    4.7803    2.5435    0.0000 C   0  0  0  0  0  0  0  0  0
    4.7803    1.7185    0.0000 C   0  0  0  0  0  0  0  0  0
    5.4947    1.3060    0.0000 O   0  0  0  0  0  0  0  0  0
    5.4947    0.4810    0.0000 C   0  0  0  0  0  0  0  0  0
    6.2092    0.0685    0.0000 C   0  0  0  0  0  0  0  0  0
    6.2092   -0.7565    0.0000 C   0  0  0  0  0  0  0  0  0
    5.4947   -1.1690    0.0000 C   0  0  0  0  0  0  0  0  0
    4.7803   -0.7565    0.0000 C   0  0  0  0  0  0  0  0  0
    4.7803    0.0685    0.0000 C   0  0  0  0  0  0  0  0  0
    4.0658    0.4810    0.0000 C   0  0  0  0  0  0  0  0  0
    3.3513    0.0685    0.0000 N   0  0  0  0  0  0  0  0  0
    2.6369    0.4810    0.0000 C   0  0  0  0  0  0  0  0  0
    5.4947   -1.9940    0.0000 C   0  0  0  0  0  0  0  0  0
    5.4947   -2.8190    0.0000 C   0  0  0  0  0  0  0  0  0
    5.4947   -3.6440    0.0000 C   0  0  0  0  0  0  0  0  0
    4.7803   -4.0565    0.0000 C   0  0  0  0  0  0  0  0  0
    4.7803   -4.8815    0.0000 N   0  0  0  0  0  0  0  0  0
    5.4947   -5.2940    0.0000 C   0  0  0  0  0  0  0  0  0
    5.4947   -6.1190    0.0000 C   0  0  0  0  0  0  0  0  0
    4.7803   -6.5315    0.0000 O   0  0  0  0  0  0  0  0  0
    4.0658   -6.1190    0.0000 C   0  0  0  0  0  0  0  0  0
    4.0658   -5.2940    0.0000 C   0  0  0  0  0  0  0  0  0
    4.0658    1.3060    0.0000 C   0  0  0  0  0  0  0  0  0
    3.3513    1.7185    0.0000 C   0  0  0  0  0  0  0  0  0
    3.3513    2.5435    0.0000 C   0  0  0  0  0  0  0  0  0
    2.6369    2.9560    0.0000 Cl  0  0  0  0  0  0  0  0  0
  1  2  1  0  0  0  0
  2  3  4  0  0  0  0
  2 27  4  0  0  0  0
  3  4  4  0  0  0  0
  4  5  1  0  0  0  0
  4 25  4  0  0  0  0
  5  6  1  0  0  0  0
  6  7  4  0  0  0  0
  6 11  4  0  0  0  0
  7  8  4  0  0  0  0
  8  9  4  0  0  0  0
  9 10  4  0  0  0  0
  9 15  1  0  0  0  0
 10 11  4  0  0  0  0
 11 12  1  0  0  0  0
 12 13  1  0  0  0  0
 13 14  1  0  0  0  0
 15 16  3  0  0  0  0
 16 17  1  0  0  0  0
 17 18  1  0  0  0  0
 18 19  1  0  0  0  0
 19 20  1  0  0  0  0
 19 24  1  0  0  0  0
 20 21  1  0  0  0  0
 21 22  1  0  0  0  0
 22 23  1  0  0  0  0
 23 24  1  0  0  0  0
 25 26  4  0  0  0  0
 26 27  4  0  0  0  0
 27 28  1  0  0  0  0
M  END
>  <Name_Molregno>
399916

>  <HISTAMINE H3>
7.96

>  <Serotonin transporter>
8.74

$$$$
399923
  Marvin  02231216192D 0   1.00000     0.00000     0

 29 31  0  0  0  0  0  0  0  0999 V2000
   -1.4308    6.1234    0.0000 S   0  0  0  0  0  0  0  0  0
   -2.1452    6.5359    0.0000 C   0  0  0  0  0  0  0  0  0
   -1.4308    5.2984    0.0000 C   0  0  0  0  0  0  0  0  0
   -0.7163    4.8859    0.0000 C   0  0  0  0  0  0  0  0  0
   -0.7163    4.0609    0.0000 C   0  0  0  0  0  0  0  0  0
   -1.4308    3.6484    0.0000 C   0  0  0  0  0  0  0  0  0
   -1.4308    2.8234    0.0000 O   0  0  0  0  0  0  0  0  0
   -2.1452    2.4109    0.0000 C   0  0  0  0  0  0  0  0  0
   -2.1452    1.5859    0.0000 C   0  0  0  0  0  0  0  0  0
   -2.8597    1.1734    0.0000 C   0  0  0  0  0  0  0  0  0
   -3.5742    1.5859    0.0000 C   0  0  0  0  0  0  0  0  0
   -3.5742    2.4109    0.0000 C   0  0  0  0  0  0  0  0  0
   -2.8597    2.8234    0.0000 C   0  0  0  0  0  0  0  0  0
   -2.8597    3.6484    0.0000 C   0  0  0  0  0  0  0  0  0
   -3.5742    4.0609    0.0000 N   0  0  0  0  0  0  0  0  0
   -3.5742    4.8859    0.0000 C   0  0  0  0  0  0  0  0  0
   -4.2886    1.1734    0.0000 C   0  0  0  0  0  0  0  0  0
   -5.0031    0.7609    0.0000 C   0  0  0  0  0  0  0  0  0
   -5.7176    0.3484    0.0000 C   0  0  0  0  0  0  0  0  0
   -5.7176   -0.4766    0.0000 C   0  0  0  0  0  0  0  0  0
   -6.4321   -0.8891    0.0000 N   0  0  0  0  0  0  0  0  0
   -6.4321   -1.7141    0.0000 C   0  0  0  0  0  0  0  0  0
   -7.1465   -2.1266    0.0000 C   0  0  0  0  0  0  0  0  0
   -7.8610   -1.7141    0.0000 O   0  0  0  0  0  0  0  0  0
   -7.8610   -0.8891    0.0000 C   0  0  0  0  0  0  0  0  0
   -7.1465   -0.4766    0.0000 C   0  0  0  0  0  0  0  0  0
   -2.1452    4.0609    0.0000 C   0  0  0  0  0  0  0  0  0
   -2.1452    4.8859    0.0000 C   0  0  0  0  0  0  0  0  0
   -2.8597    5.2984    0.0000 C   0  0  0  0  0  0  0  0  0
  1  2  1  0  0  0  0
  1  3  1  0  0  0  0
  3  4  4  0  0  0  0
  3 28  4  0  0  0  0
  4  5  4  0  0  0  0
  5  6  4  0  0  0  0
  6  7  1  0  0  0  0
  6 27  4  0  0  0  0
  7  8  1  0  0  0  0
  8  9  4  0  0  0  0
  8 13  4  0  0  0  0
  9 10  4  0  0  0  0
 10 11  4  0  0  0  0
 11 12  4  0  0  0  0
 11 17  1  0  0  0  0
 12 13  4  0  0  0  0
 13 14  1  0  0  0  0
 14 15  1  0  0  0  0
 15 16  1  0  0  0  0
 17 18  3  0  0  0  0
 18 19  1  0  0  0  0
 19 20  1  0  0  0  0
 20 21  1  0  0  0  0
 21 22  1  0  0  0  0
 21 26  1  0  0  0  0
 22 23  1  0  0  0  0
 23 24  1  0  0  0  0
 24 25  1  0  0  0  0
 25 26  1  0  0  0  0
 27 28  4  0  0  0  0
 28 29  1  0  0  0  0
M  END
>  <Name_Molregno>
399923

>  <Dopamine transporter>
6

>  <HISTAMINE H3>
7.96

>  <Norepinephrine transporter>
6.62

>  <Serotonin transporter>
8.72

$$$$
399924
  Marvin  02231216192D 0   1.00000     0.00000     0

 27 29  0  0  0  0  0  0  0  0999 V2000
   -1.6485    1.7128    0.0000 Cl  0  0  0  0  0  0  0  0  0
   -1.6485    0.8878    0.0000 C   0  0  0  0  0  0  0  0  0
   -0.9341    0.4753    0.0000 C   0  0  0  0  0  0  0  0  0
   -0.9341   -0.3497    0.0000 C   0  0  0  0  0  0  0  0  0
   -1.6485   -0.7622    0.0000 C   0  0  0  0  0  0  0  0  0
   -1.6485   -1.5872    0.0000 O   0  0  0  0  0  0  0  0  0
   -2.3630   -1.9997    0.0000 C   0  0  0  0  0  0  0  0  0
   -2.3630   -2.8247    0.0000 C   0  0  0  0  0  0  0  0  0
   -3.0775   -3.2372    0.0000 C   0  0  0  0  0  0  0  0  0
   -3.7919   -2.8247    0.0000 C   0  0  0  0  0  0  0  0  0
   -3.7919   -1.9997    0.0000 C   0  0  0  0  0  0  0  0  0
   -3.0775   -1.5872    0.0000 C   0  0  0  0  0  0  0  0  0
   -3.0775   -0.7622    0.0000 C   0  0  0  0  0  0  0  0  0
   -3.7919   -0.3497    0.0000 N   0  0  0  0  0  0  0  0  0
   -3.7919    0.4753    0.0000 C   0  0  0  0  0  0  0  0  0
   -4.5064   -3.2372    0.0000 C   0  0  0  0  0  0  0  0  0
   -5.2209   -3.6497    0.0000 C   0  0  0  0  0  0  0  0  0
   -5.9353   -4.0622    0.0000 C   0  0  0  0  0  0  0  0  0
   -5.9353   -4.8872    0.0000 C   0  0  0  0  0  0  0  0  0
   -6.6498   -5.2997    0.0000 N   0  0  0  0  0  0  0  0  0
   -6.6498   -6.1247    0.0000 C   0  0  0  0  0  0  0  0  0
   -7.3643   -6.5372    0.0000 C   0  0  0  0  0  0  0  0  0
   -8.0788   -6.1247    0.0000 O   0  0  0  0  0  0  0  0  0
   -8.0788   -5.2997    0.0000 C   0  0  0  0  0  0  0  0  0
   -7.3643   -4.8872    0.0000 C   0  0  0  0  0  0  0  0  0
   -2.3630   -0.3497    0.0000 C   0  0  0  0  0  0  0  0  0
   -2.3630    0.4753    0.0000 C   0  0  0  0  0  0  0  0  0
  1  2  1  0  0  0  0
  2  3  4  0  0  0  0
  2 27  4  0  0  0  0
  3  4  4  0  0  0  0
  4  5  4  0  0  0  0
  5  6  1  0  0  0  0
  5 26  4  0  0  0  0
  6  7  1  0  0  0  0
  7  8  4  0  0  0  0
  7 12  4  0  0  0  0
  8  9  4  0  0  0  0
  9 10  4  0  0  0  0
 10 11  4  0  0  0  0
 10 16  1  0  0  0  0
 11 12  4  0  0  0  0
 12 13  1  0  0  0  0
 13 14  1  0  0  0  0
 14 15  1  0  0  0  0
 16 17  3  0  0  0  0
 17 18  1  0  0  0  0
 18 19  1  0  0  0  0
 19 20  1  0  0  0  0
 20 21  1  0  0  0  0
 20 25  1  0  0  0  0
 21 22  1  0  0  0  0
 22 23  1  0  0  0  0
 23 24  1  0  0  0  0
 24 25  1  0  0  0  0
 26 27  4  0  0  0  0
M  END
>  <Name_Molregno>
399924

>  <HISTAMINE H3>
8.15

>  <Serotonin transporter>
8.92

$$$$
399925
  Marvin  02231216192D 0   1.00000     0.00000     0

 26 28  0  0  0  0  0  0  0  0999 V2000
    5.5362   -4.7717    0.0000 O   0  0  0  0  0  0  0  0  0
    4.8218   -4.3592    0.0000 C   0  0  0  0  0  0  0  0  0
    4.8218   -3.5342    0.0000 C   0  0  0  0  0  0  0  0  0
    5.5362   -3.1217    0.0000 N   0  0  0  0  0  0  0  0  0
    6.2507   -3.5342    0.0000 C   0  0  0  0  0  0  0  0  0
    6.2507   -4.3592    0.0000 C   0  0  0  0  0  0  0  0  0
    5.5362   -2.2967    0.0000 C   0  0  0  0  0  0  0  0  0
    4.8218   -1.8842    0.0000 C   0  0  0  0  0  0  0  0  0
    4.8218   -1.0592    0.0000 C   0  0  0  0  0  0  0  0  0
    4.8218   -0.2342    0.0000 C   0  0  0  0  0  0  0  0  0
    4.8218    0.5908    0.0000 C   0  0  0  0  0  0  0  0  0
    4.1073    1.0033    0.0000 C   0  0  0  0  0  0  0  0  0
    4.1073    1.8283    0.0000 C   0  0  0  0  0  0  0  0  0
    3.3928    2.2408    0.0000 C   0  0  0  0  0  0  0  0  0
    2.6783    1.8283    0.0000 N   0  0  0  0  0  0  0  0  0
    1.9639    2.2408    0.0000 C   0  0  0  0  0  0  0  0  0
    4.8218    2.2408    0.0000 C   0  0  0  0  0  0  0  0  0
    4.8218    3.0658    0.0000 O   0  0  0  0  0  0  0  0  0
    5.5362    3.4783    0.0000 C   0  0  0  0  0  0  0  0  0
    5.5362    4.3033    0.0000 C   0  0  0  0  0  0  0  0  0
    6.2507    4.7158    0.0000 C   0  0  0  0  0  0  0  0  0
    6.9652    4.3033    0.0000 C   0  0  0  0  0  0  0  0  0
    6.9652    3.4783    0.0000 C   0  0  0  0  0  0  0  0  0
    6.2507    3.0658    0.0000 C   0  0  0  0  0  0  0  0  0
    5.5362    1.8283    0.0000 C   0  0  0  0  0  0  0  0  0
    5.5362    1.0033    0.0000 C   0  0  0  0  0  0  0  0  0
  1  2  1  0  0  0  0
  1  6  1  0  0  0  0
  2  3  1  0  0  0  0
  3  4  1  0  0  0  0
  4  5  1  0  0  0  0
  4  7  1  0  0  0  0
  5  6  1  0  0  0  0
  7  8  1  0  0  0  0
  8  9  1  0  0  0  0
  9 10  3  0  0  0  0
 10 11  1  0  0  0  0
 11 12  4  0  0  0  0
 11 26  4  0  0  0  0
 12 13  4  0  0  0  0
 13 14  1  0  0  0  0
 13 17  4  0  0  0  0
 14 15  1  0  0  0  0
 15 16  1  0  0  0  0
 17 18  1  0  0  0  0
 17 25  4  0  0  0  0
 18 19  1  0  0  0  0
 19 20  4  0  0  0  0
 19 24  4  0  0  0  0
 20 21  4  0  0  0  0
 21 22  4  0  0  0  0
 22 23  4  0  0  0  0
 23 24  4  0  0  0  0
 25 26  4  0  0  0  0
M  END
>  <Name_Molregno>
399925

>  <HISTAMINE H3>
8.24

>  <Serotonin transporter>
7.52

$$$$
399926
  Marvin  02231216192D 0   1.00000     0.00000     0

 30 32  0  0  0  0  0  0  0  0999 V2000
    6.1101    1.6611    0.0000 F   0  0  0  0  0  0  0  0  0
    6.1101    0.8361    0.0000 C   0  0  0  0  0  0  0  0  0
    5.2851    0.8361    0.0000 F   0  0  0  0  0  0  0  0  0
    6.9351    0.8361    0.0000 F   0  0  0  0  0  0  0  0  0
    6.1101    0.0111    0.0000 C   0  0  0  0  0  0  0  0  0
    6.8245   -0.4014    0.0000 C   0  0  0  0  0  0  0  0  0
    6.8245   -1.2264    0.0000 C   0  0  0  0  0  0  0  0  0
    6.1101   -1.6389    0.0000 C   0  0  0  0  0  0  0  0  0
    6.1101   -2.4639    0.0000 O   0  0  0  0  0  0  0  0  0
    5.3956   -2.8764    0.0000 C   0  0  0  0  0  0  0  0  0
    5.3956   -3.7014    0.0000 C   0  0  0  0  0  0  0  0  0
    4.6811   -4.1139    0.0000 C   0  0  0  0  0  0  0  0  0
    3.9666   -3.7014    0.0000 C   0  0  0  0  0  0  0  0  0
    3.9666   -2.8764    0.0000 C   0  0  0  0  0  0  0  0  0
    4.6811   -2.4639    0.0000 C   0  0  0  0  0  0  0  0  0
    4.6811   -1.6389    0.0000 C   0  0  0  0  0  0  0  0  0
    3.9666   -1.2264    0.0000 N   0  0  0  0  0  0  0  0  0
    3.9666   -0.4014    0.0000 C   0  0  0  0  0  0  0  0  0
    3.2522   -4.1139    0.0000 C   0  0  0  0  0  0  0  0  0
    2.5377   -4.5264    0.0000 C   0  0  0  0  0  0  0  0  0
    1.8232   -4.9389    0.0000 C   0  0  0  0  0  0  0  0  0
    1.8232   -5.7639    0.0000 C   0  0  0  0  0  0  0  0  0
    1.1088   -6.1764    0.0000 N   0  0  0  0  0  0  0  0  0
    1.1088   -7.0014    0.0000 C   0  0  0  0  0  0  0  0  0
    0.3943   -7.4139    0.0000 C   0  0  0  0  0  0  0  0  0
   -0.3202   -7.0014    0.0000 O   0  0  0  0  0  0  0  0  0
   -0.3202   -6.1764    0.0000 C   0  0  0  0  0  0  0  0  0
    0.3943   -5.7639    0.0000 C   0  0  0  0  0  0  0  0  0
    5.3956   -1.2264    0.0000 C   0  0  0  0  0  0  0  0  0
    5.3956   -0.4014    0.0000 C   0  0  0  0  0  0  0  0  0
  1  2  1  0  0  0  0
  2  3  1  0  0  0  0
  2  4  1  0  0  0  0
  2  5  1  0  0  0  0
  5  6  4  0  0  0  0
  5 30  4  0  0  0  0
  6  7  4  0  0  0  0
  7  8  4  0  0  0  0
  8  9  1  0  0  0  0
  8 29  4  0  0  0  0
  9 10  1  0  0  0  0
 10 11  4  0  0  0  0
 10 15  4  0  0  0  0
 11 12  4  0  0  0  0
 12 13  4  0  0  0  0
 13 14  4  0  0  0  0
 13 19  1  0  0  0  0
 14 15  4  0  0  0  0
 15 16  1  0  0  0  0
 16 17  1  0  0  0  0
 17 18  1  0  0  0  0
 19 20  3  0  0  0  0
 20 21  1  0  0  0  0
 21 22  1  0  0  0  0
 22 23  1  0  0  0  0
 23 24  1  0  0  0  0
 23 28  1  0  0  0  0
 24 25  1  0  0  0  0
 25 26  1  0  0  0  0
 26 27  1  0  0  0  0
 27 28  1  0  0  0  0
 29 30  4  0  0  0  0
M  END
>  <Name_Molregno>
399926

>  <HISTAMINE H3>
8.14

>  <Serotonin transporter>
8.57

$$$$
399927
  Marvin  02231216192D 0   1.00000     0.00000     0

 31 33  0  0  0  0  0  0  0  0999 V2000
   -1.0976    1.4010    0.0000 Cl  0  0  0  0  0  0  0  0  0
   -1.0976    0.5760    0.0000 C   0  0  0  0  0  0  0  0  0
   -0.3831    0.1635    0.0000 C   0  0  0  0  0  0  0  0  0
   -0.3831   -0.6615    0.0000 C   0  0  0  0  0  0  0  0  0
   -1.0976   -1.0740    0.0000 C   0  0  0  0  0  0  0  0  0
   -1.0976   -1.8990    0.0000 O   0  0  0  0  0  0  0  0  0
   -1.8121   -2.3115    0.0000 C   0  0  0  0  0  0  0  0  0
   -1.8121   -3.1365    0.0000 C   0  0  0  0  0  0  0  0  0
   -2.5265   -3.5490    0.0000 C   0  0  0  0  0  0  0  0  0
   -3.2410   -3.1365    0.0000 C   0  0  0  0  0  0  0  0  0
   -3.2410   -2.3115    0.0000 C   0  0  0  0  0  0  0  0  0
   -2.5265   -1.8990    0.0000 C   0  0  0  0  0  0  0  0  0
   -2.5265   -1.0740    0.0000 C   0  0  0  0  0  0  0  0  0
   -3.2410   -0.6615    0.0000 N   0  0  0  0  0  0  0  0  0
   -3.2410    0.1635    0.0000 C   0  0  0  0  0  0  0  0  0
   -3.9555   -3.5490    0.0000 C   0  0  0  0  0  0  0  0  0
   -4.6699   -3.9615    0.0000 C   0  0  0  0  0  0  0  0  0
   -5.3844   -4.3740    0.0000 C   0  0  0  0  0  0  0  0  0
   -5.3844   -5.1990    0.0000 C   0  0  0  0  0  0  0  0  0
   -6.0989   -5.6115    0.0000 N   0  0  0  0  0  0  0  0  0
   -6.0989   -6.4365    0.0000 C   0  0  0  0  0  0  0  0  0
   -6.8134   -6.8490    0.0000 C   0  0  0  0  0  0  0  0  0
   -7.5278   -6.4365    0.0000 O   0  0  0  0  0  0  0  0  0
   -7.5278   -5.6115    0.0000 C   0  0  0  0  0  0  0  0  0
   -6.8134   -5.1990    0.0000 C   0  0  0  0  0  0  0  0  0
   -1.8121   -0.6615    0.0000 C   0  0  0  0  0  0  0  0  0
   -1.8121    0.1635    0.0000 C   0  0  0  0  0  0  0  0  0
   -2.5265    0.5760    0.0000 C   0  0  0  0  0  0  0  0  0
   -3.2410    0.9885    0.0000 F   0  0  0  0  0  0  0  0  0
   -2.9390   -0.1385    0.0000 F   0  0  0  0  0  0  0  0  0
   -2.1140    1.2904    0.0000 F   0  0  0  0  0  0  0  0  0
  1  2  1  0  0  0  0
  2  3  4  0  0  0  0
  2 27  4  0  0  0  0
  3  4  4  0  0  0  0
  4  5  4  0  0  0  0
  5  6  1  0  0  0  0
  5 26  4  0  0  0  0
  6  7  1  0  0  0  0
  7  8  4  0  0  0  0
  7 12  4  0  0  0  0
  8  9  4  0  0  0  0
  9 10  4  0  0  0  0
 10 11  4  0  0  0  0
 10 16  1  0  0  0  0
 11 12  4  0  0  0  0
 12 13  1  0  0  0  0
 13 14  1  0  0  0  0
 14 15  1  0  0  0  0
 16 17  3  0  0  0  0
 17 18  1  0  0  0  0
 18 19  1  0  0  0  0
 19 20  1  0  0  0  0
 20 21  1  0  0  0  0
 20 25  1  0  0  0  0
 21 22  1  0  0  0  0
 22 23  1  0  0  0  0
 23 24  1  0  0  0  0
 24 25  1  0  0  0  0
 26 27  4  0  0  0  0
 27 28  1  0  0  0  0
 28 29  1  0  0  0  0
 28 30  1  0  0  0  0
 28 31  1  0  0  0  0
M  END
>  <Name_Molregno>
399927

>  <HISTAMINE H3>
7.89

>  <Serotonin transporter>
7.77

$$$$
399929
  Marvin  02231216192D 0   1.00000     0.00000     0

 27 29  0  0  0  0  0  0  0  0999 V2000
    3.7552    3.8018    0.0000 F   0  0  0  0  0  0  0  0  0
    3.7552    2.9768    0.0000 C   0  0  0  0  0  0  0  0  0
    4.4697    2.5643    0.0000 C   0  0  0  0  0  0  0  0  0
    4.4697    1.7393    0.0000 C   0  0  0  0  0  0  0  0  0
    5.1842    1.3268    0.0000 O   0  0  0  0  0  0  0  0  0
    5.1842    0.5018    0.0000 C   0  0  0  0  0  0  0  0  0
    5.8987    0.0893    0.0000 C   0  0  0  0  0  0  0  0  0
    5.8987   -0.7357    0.0000 C   0  0  0  0  0  0  0  0  0
    5.1842   -1.1482    0.0000 C   0  0  0  0  0  0  0  0  0
    4.4697   -0.7357    0.0000 C   0  0  0  0  0  0  0  0  0
    4.4697    0.0893    0.0000 C   0  0  0  0  0  0  0  0  0
    3.7552    0.5018    0.0000 C   0  0  0  0  0  0  0  0  0
    3.0408    0.0893    0.0000 N   0  0  0  0  0  0  0  0  0
    2.3263    0.5018    0.0000 C   0  0  0  0  0  0  0  0  0
    5.1842   -1.9732    0.0000 C   0  0  0  0  0  0  0  0  0
    5.1842   -2.7982    0.0000 C   0  0  0  0  0  0  0  0  0
    5.1842   -3.6232    0.0000 C   0  0  0  0  0  0  0  0  0
    5.8987   -4.0357    0.0000 C   0  0  0  0  0  0  0  0  0
    5.8987   -4.8607    0.0000 N   0  0  0  0  0  0  0  0  0
    6.6131   -5.2732    0.0000 C   0  0  0  0  0  0  0  0  0
    6.6131   -6.0982    0.0000 C   0  0  0  0  0  0  0  0  0
    5.8987   -6.5107    0.0000 O   0  0  0  0  0  0  0  0  0
    5.1842   -6.0982    0.0000 C   0  0  0  0  0  0  0  0  0
    5.1842   -5.2732    0.0000 C   0  0  0  0  0  0  0  0  0
    3.7552    1.3268    0.0000 C   0  0  0  0  0  0  0  0  0
    3.0408    1.7393    0.0000 C   0  0  0  0  0  0  0  0  0
    3.0408    2.5643    0.0000 C   0  0  0  0  0  0  0  0  0
  1  2  1  0  0  0  0
  2  3  4  0  0  0  0
  2 27  4  0  0  0  0
  3  4  4  0  0  0  0
  4  5  1  0  0  0  0
  4 25  4  0  0  0  0
  5  6  1  0  0  0  0
  6  7  4  0  0  0  0
  6 11  4  0  0  0  0
  7  8  4  0  0  0  0
  8  9  4  0  0  0  0
  9 10  4  0  0  0  0
  9 15  1  0  0  0  0
 10 11  4  0  0  0  0
 11 12  1  0  0  0  0
 12 13  1  0  0  0  0
 13 14  1  0  0  0  0
 15 16  3  0  0  0  0
 16 17  1  0  0  0  0
 17 18  1  0  0  0  0
 18 19  1  0  0  0  0
 19 20  1  0  0  0  0
 19 24  1  0  0  0  0
 20 21  1  0  0  0  0
 21 22  1  0  0  0  0
 22 23  1  0  0  0  0
 23 24  1  0  0  0  0
 25 26  4  0  0  0  0
 26 27  4  0  0  0  0
M  END
>  <Name_Molregno>
399929

>  <HISTAMINE H3>
8.52

>  <Serotonin transporter>
7.62

$$$$
399932
  Marvin  02231216192D 0   1.00000     0.00000     0

 27 29  0  0  0  0  0  0  0  0999 V2000
    3.7552    3.8018    0.0000 Cl  0  0  0  0  0  0  0  0  0
    3.7552    2.9768    0.0000 C   0  0  0  0  0  0  0  0  0
    4.4697    2.5643    0.0000 C   0  0  0  0  0  0  0  0  0
    4.4697    1.7393    0.0000 C   0  0  0  0  0  0  0  0  0
    5.1842    1.3268    0.0000 O   0  0  0  0  0  0  0  0  0
    5.1842    0.5018    0.0000 C   0  0  0  0  0  0  0  0  0
    5.8987    0.0893    0.0000 C   0  0  0  0  0  0  0  0  0
    5.8987   -0.7357    0.0000 C   0  0  0  0  0  0  0  0  0
    5.1842   -1.1482    0.0000 C   0  0  0  0  0  0  0  0  0
    4.4697   -0.7357    0.0000 C   0  0  0  0  0  0  0  0  0
    4.4697    0.0893    0.0000 C   0  0  0  0  0  0  0  0  0
    3.7552    0.5018    0.0000 C   0  0  0  0  0  0  0  0  0
    3.0408    0.0893    0.0000 N   0  0  0  0  0  0  0  0  0
    2.3263    0.5018    0.0000 C   0  0  0  0  0  0  0  0  0
    5.1842   -1.9732    0.0000 C   0  0  0  0  0  0  0  0  0
    5.1842   -2.7982    0.0000 C   0  0  0  0  0  0  0  0  0
    5.1842   -3.6232    0.0000 C   0  0  0  0  0  0  0  0  0
    5.8987   -4.0357    0.0000 C   0  0  0  0  0  0  0  0  0
    5.8987   -4.8607    0.0000 N   0  0  0  0  0  0  0  0  0
    6.6131   -5.2732    0.0000 C   0  0  0  0  0  0  0  0  0
    6.6131   -6.0982    0.0000 C   0  0  0  0  0  0  0  0  0
    5.8987   -6.5107    0.0000 O   0  0  0  0  0  0  0  0  0
    5.1842   -6.0982    0.0000 C   0  0  0  0  0  0  0  0  0
    5.1842   -5.2732    0.0000 C   0  0  0  0  0  0  0  0  0
    3.7552    1.3268    0.0000 C   0  0  0  0  0  0  0  0  0
    3.0408    1.7393    0.0000 C   0  0  0  0  0  0  0  0  0
    3.0408    2.5643    0.0000 C   0  0  0  0  0  0  0  0  0
  1  2  1  0  0  0  0
  2  3  4  0  0  0  0
  2 27  4  0  0  0  0
  3  4  4  0  0  0  0
  4  5  1  0  0  0  0
  4 25  4  0  0  0  0
  5  6  1  0  0  0  0
  6  7  4  0  0  0  0
  6 11  4  0  0  0  0
  7  8  4  0  0  0  0
  8  9  4  0  0  0  0
  9 10  4  0  0  0  0
  9 15  1  0  0  0  0
 10 11  4  0  0  0  0
 11 12  1  0  0  0  0
 12 13  1  0  0  0  0
 13 14  1  0  0  0  0
 15 16  3  0  0  0  0
 16 17  1  0  0  0  0
 17 18  1  0  0  0  0
 18 19  1  0  0  0  0
 19 20  1  0  0  0  0
 19 24  1  0  0  0  0
 20 21  1  0  0  0  0
 21 22  1  0  0  0  0
 22 23  1  0  0  0  0
 23 24  1  0  0  0  0
 25 26  4  0  0  0  0
 26 27  4  0  0  0  0
M  END
>  <Name_Molregno>
399932

>  <HISTAMINE H3>
8.52

>  <Serotonin transporter>
8.14

$$$$
399934
  Marvin  02231216192D 0   1.00000     0.00000     0

 28 30  0  0  0  0  0  0  0  0999 V2000
   -7.0363    2.0358    0.0000 Cl  0  0  0  0  0  0  0  0  0
   -7.0363    1.2108    0.0000 C   0  0  0  0  0  0  0  0  0
   -7.7508    0.7983    0.0000 C   0  0  0  0  0  0  0  0  0
   -7.7508   -0.0267    0.0000 C   0  0  0  0  0  0  0  0  0
   -8.4653   -0.4392    0.0000 F   0  0  0  0  0  0  0  0  0
   -7.0363   -0.4392    0.0000 C   0  0  0  0  0  0  0  0  0
   -6.3219   -0.0267    0.0000 C   0  0  0  0  0  0  0  0  0
   -6.3219    0.7983    0.0000 C   0  0  0  0  0  0  0  0  0
   -5.6074    1.2108    0.0000 O   0  0  0  0  0  0  0  0  0
   -4.8929    0.7983    0.0000 C   0  0  0  0  0  0  0  0  0
   -4.1785    1.2108    0.0000 C   0  0  0  0  0  0  0  0  0
   -3.4640    0.7983    0.0000 C   0  0  0  0  0  0  0  0  0
   -3.4640   -0.0267    0.0000 C   0  0  0  0  0  0  0  0  0
   -4.1785   -0.4392    0.0000 C   0  0  0  0  0  0  0  0  0
   -4.8929   -0.0267    0.0000 C   0  0  0  0  0  0  0  0  0
   -5.6074   -0.4392    0.0000 C   0  0  0  0  0  0  0  0  0
   -5.6074   -1.2642    0.0000 N   0  0  0  0  0  0  0  0  0
   -6.3219   -1.6767    0.0000 C   0  0  0  0  0  0  0  0  0
   -2.7495   -0.4392    0.0000 C   0  0  0  0  0  0  0  0  0
   -2.0350   -0.8517    0.0000 C   0  0  0  0  0  0  0  0  0
   -1.3206   -1.2642    0.0000 C   0  0  0  0  0  0  0  0  0
   -0.6061   -0.8517    0.0000 C   0  0  0  0  0  0  0  0  0
    0.1084   -1.2642    0.0000 N   0  0  0  0  0  0  0  0  0
    0.8228   -0.8517    0.0000 C   0  0  0  0  0  0  0  0  0
    1.5373   -1.2642    0.0000 C   0  0  0  0  0  0  0  0  0
    1.5373   -2.0892    0.0000 O   0  0  0  0  0  0  0  0  0
    0.8228   -2.5017    0.0000 C   0  0  0  0  0  0  0  0  0
    0.1084   -2.0892    0.0000 C   0  0  0  0  0  0  0  0  0
  1  2  1  0  0  0  0
  2  3  4  0  0  0  0
  2  8  4  0  0  0  0
  3  4  4  0  0  0  0
  4  5  1  0  0  0  0
  4  6  4  0  0  0  0
  6  7  4  0  0  0  0
  7  8  4  0  0  0  0
  8  9  1  0  0  0  0
  9 10  1  0  0  0  0
 10 11  4  0  0  0  0
 10 15  4  0  0  0  0
 11 12  4  0  0  0  0
 12 13  4  0  0  0  0
 13 14  4  0  0  0  0
 13 19  1  0  0  0  0
 14 15  4  0  0  0  0
 15 16  1  0  0  0  0
 16 17  1  0  0  0  0
 17 18  1  0  0  0  0
 19 20  3  0  0  0  0
 20 21  1  0  0  0  0
 21 22  1  0  0  0  0
 22 23  1  0  0  0  0
 23 24  1  0  0  0  0
 23 28  1  0  0  0  0
 24 25  1  0  0  0  0
 25 26  1  0  0  0  0
 26 27  1  0  0  0  0
 27 28  1  0  0  0  0
M  END
>  <Name_Molregno>
399934

>  <HISTAMINE H3>
8.22

>  <Serotonin transporter>
8.44

$$$$
399936
  Marvin  02231216192D 0   1.00000     0.00000     0

 28 30  0  0  0  0  0  0  0  0999 V2000
    5.6785   -5.3047    0.0000 S   0  0  0  0  0  0  0  0  0
    4.9641   -4.8922    0.0000 C   0  0  0  0  0  0  0  0  0
    4.9641   -4.0672    0.0000 C   0  0  0  0  0  0  0  0  0
    5.6785   -3.6547    0.0000 N   0  0  0  0  0  0  0  0  0
    6.3930   -4.0672    0.0000 C   0  0  0  0  0  0  0  0  0
    6.3930   -4.8922    0.0000 C   0  0  0  0  0  0  0  0  0
    5.6785   -2.8297    0.0000 C   0  0  0  0  0  0  0  0  0
    4.9641   -2.4172    0.0000 C   0  0  0  0  0  0  0  0  0
    4.9641   -1.5922    0.0000 C   0  0  0  0  0  0  0  0  0
    4.9641   -0.7672    0.0000 C   0  0  0  0  0  0  0  0  0
    4.9641    0.0578    0.0000 C   0  0  0  0  0  0  0  0  0
    4.2496    0.4703    0.0000 C   0  0  0  0  0  0  0  0  0
    4.2496    1.2953    0.0000 C   0  0  0  0  0  0  0  0  0
    3.5351    1.7078    0.0000 C   0  0  0  0  0  0  0  0  0
    2.8206    1.2953    0.0000 N   0  0  0  0  0  0  0  0  0
    2.1062    1.7078    0.0000 C   0  0  0  0  0  0  0  0  0
    4.9641    1.7078    0.0000 C   0  0  0  0  0  0  0  0  0
    4.9641    2.5328    0.0000 O   0  0  0  0  0  0  0  0  0
    5.6785    2.9453    0.0000 C   0  0  0  0  0  0  0  0  0
    5.6785    3.7703    0.0000 C   0  0  0  0  0  0  0  0  0
    6.3930    4.1828    0.0000 C   0  0  0  0  0  0  0  0  0
    7.1075    3.7703    0.0000 C   0  0  0  0  0  0  0  0  0
    7.8219    4.1828    0.0000 S   0  0  0  0  0  0  0  0  0
    7.8219    5.0078    0.0000 C   0  0  0  0  0  0  0  0  0
    7.1075    2.9453    0.0000 C   0  0  0  0  0  0  0  0  0
    6.3930    2.5328    0.0000 C   0  0  0  0  0  0  0  0  0
    5.6785    1.2953    0.0000 C   0  0  0  0  0  0  0  0  0
    5.6785    0.4703    0.0000 C   0  0  0  0  0  0  0  0  0
  1  2  1  0  0  0  0
  1  6  1  0  0  0  0
  2  3  1  0  0  0  0
  3  4  1  0  0  0  0
  4  5  1  0  0  0  0
  4  7  1  0  0  0  0
  5  6  1  0  0  0  0
  7  8  1  0  0  0  0
  8  9  1  0  0  0  0
  9 10  3  0  0  0  0
 10 11  1  0  0  0  0
 11 12  4  0  0  0  0
 11 28  4  0  0  0  0
 12 13  4  0  0  0  0
 13 14  1  0  0  0  0
 13 17  4  0  0  0  0
 14 15  1  0  0  0  0
 15 16  1  0  0  0  0
 17 18  1  0  0  0  0
 17 27  4  0  0  0  0
 18 19  1  0  0  0  0
 19 20  4  0  0  0  0
 19 26  4  0  0  0  0
 20 21  4  0  0  0  0
 21 22  4  0  0  0  0
 22 23  1  0  0  0  0
 22 25  4  0  0  0  0
 23 24  1  0  0  0  0
 25 26  4  0  0  0  0
 27 28  4  0  0  0  0
M  END
>  <Name_Molregno>
399936

>  <HISTAMINE H3>
8.27

>  <Serotonin transporter>
8.6

$$$$
399939
  Marvin  02231216192D 0   1.00000     0.00000     0

 28 30  0  0  0  0  0  0  0  0999 V2000
    4.0658    3.7810    0.0000 Cl  0  0  0  0  0  0  0  0  0
    4.0658    2.9560    0.0000 C   0  0  0  0  0  0  0  0  0
    4.7803    2.5435    0.0000 C   0  0  0  0  0  0  0  0  0
    4.7803    1.7185    0.0000 C   0  0  0  0  0  0  0  0  0
    5.4947    1.3060    0.0000 O   0  0  0  0  0  0  0  0  0
    5.4947    0.4810    0.0000 C   0  0  0  0  0  0  0  0  0
    6.2092    0.0685    0.0000 C   0  0  0  0  0  0  0  0  0
    6.2092   -0.7565    0.0000 C   0  0  0  0  0  0  0  0  0
    5.4947   -1.1690    0.0000 C   0  0  0  0  0  0  0  0  0
    4.7803   -0.7565    0.0000 C   0  0  0  0  0  0  0  0  0
    4.7803    0.0685    0.0000 C   0  0  0  0  0  0  0  0  0
    4.0658    0.4810    0.0000 C   0  0  0  0  0  0  0  0  0
    3.3513    0.0685    0.0000 N   0  0  0  0  0  0  0  0  0
    2.6369    0.4810    0.0000 C   0  0  0  0  0  0  0  0  0
    5.4947   -1.9940    0.0000 C   0  0  0  0  0  0  0  0  0
    5.4947   -2.8190    0.0000 C   0  0  0  0  0  0  0  0  0
    5.4947   -3.6440    0.0000 C   0  0  0  0  0  0  0  0  0
    4.7803   -4.0565    0.0000 C   0  0  0  0  0  0  0  0  0
    4.7803   -4.8815    0.0000 N   0  0  0  0  0  0  0  0  0
    5.4947   -5.2940    0.0000 C   0  0  0  0  0  0  0  0  0
    5.4947   -6.1190    0.0000 C   0  0  0  0  0  0  0  0  0
    4.7803   -6.5315    0.0000 S   0  0  0  0  0  0  0  0  0
    4.0658   -6.1190    0.0000 C   0  0  0  0  0  0  0  0  0
    4.0658   -5.2940    0.0000 C   0  0  0  0  0  0  0  0  0
    4.0658    1.3060    0.0000 C   0  0  0  0  0  0  0  0  0
    3.3513    1.7185    0.0000 C   0  0  0  0  0  0  0  0  0
    3.3513    2.5435    0.0000 C   0  0  0  0  0  0  0  0  0
    2.6369    2.9560    0.0000 Cl  0  0  0  0  0  0  0  0  0
  1  2  1  0  0  0  0
  2  3  4  0  0  0  0
  2 27  4  0  0  0  0
  3  4  4  0  0  0  0
  4  5  1  0  0  0  0
  4 25  4  0  0  0  0
  5  6  1  0  0  0  0
  6  7  4  0  0  0  0
  6 11  4  0  0  0  0
  7  8  4  0  0  0  0
  8  9  4  0  0  0  0
  9 10  4  0  0  0  0
  9 15  1  0  0  0  0
 10 11  4  0  0  0  0
 11 12  1  0  0  0  0
 12 13  1  0  0  0  0
 13 14  1  0  0  0  0
 15 16  3  0  0  0  0
 16 17  1  0  0  0  0
 17 18  1  0  0  0  0
 18 19  1  0  0  0  0
 19 20  1  0  0  0  0
 19 24  1  0  0  0  0
 20 21  1  0  0  0  0
 21 22  1  0  0  0  0
 22 23  1  0  0  0  0
 23 24  1  0  0  0  0
 25 26  4  0  0  0  0
 26 27  4  0  0  0  0
 27 28  1  0  0  0  0
M  END
>  <Name_Molregno>
399939

>  <HISTAMINE H3>
7.89

>  <Serotonin transporter>
8.17

$$$$
399940
  Marvin  02231216192D 0   1.00000     0.00000     0

 31 33  0  0  0  0  0  0  0  0999 V2000
   -1.6415    2.0363    0.0000 S   0  0  0  0  0  0  0  0  0
   -2.3559    2.4488    0.0000 C   0  0  0  0  0  0  0  0  0
   -1.6415    1.2113    0.0000 C   0  0  0  0  0  0  0  0  0
   -0.9270    0.7988    0.0000 C   0  0  0  0  0  0  0  0  0
   -0.9270   -0.0262    0.0000 C   0  0  0  0  0  0  0  0  0
   -1.6415   -0.4387    0.0000 C   0  0  0  0  0  0  0  0  0
   -1.6415   -1.2637    0.0000 O   0  0  0  0  0  0  0  0  0
   -2.3559   -1.6762    0.0000 C   0  0  0  0  0  0  0  0  0
   -2.3559   -2.5012    0.0000 C   0  0  0  0  0  0  0  0  0
   -3.0704   -2.9137    0.0000 C   0  0  0  0  0  0  0  0  0
   -3.7849   -2.5012    0.0000 C   0  0  0  0  0  0  0  0  0
   -3.7849   -1.6762    0.0000 C   0  0  0  0  0  0  0  0  0
   -3.0704   -1.2637    0.0000 C   0  0  0  0  0  0  0  0  0
   -3.0704   -0.4387    0.0000 C   0  0  0  0  0  0  0  0  0
   -3.7849   -0.0262    0.0000 N   0  0  0  0  0  0  0  0  0
   -3.7849    0.7988    0.0000 C   0  0  0  0  0  0  0  0  0
   -4.4994   -2.9137    0.0000 C   0  0  0  0  0  0  0  0  0
   -5.2138   -3.3262    0.0000 C   0  0  0  0  0  0  0  0  0
   -5.9283   -3.7387    0.0000 C   0  0  0  0  0  0  0  0  0
   -5.9283   -4.5637    0.0000 C   0  0  0  0  0  0  0  0  0
   -6.6428   -4.9762    0.0000 N   0  0  0  0  0  0  0  0  0
   -6.6428   -5.8012    0.0000 C   0  0  0  0  0  0  0  0  0
   -7.3572   -6.2137    0.0000 C   0  0  0  0  0  0  0  0  0
   -8.0717   -5.8012    0.0000 N   0  0  0  0  0  0  0  0  0
   -8.0717   -4.9762    0.0000 C   0  0  0  0  0  0  0  0  0
   -7.3572   -4.5637    0.0000 C   0  0  0  0  0  0  0  0  0
   -8.7862   -6.2137    0.0000 C   0  0  0  0  0  0  0  0  0
   -8.7862   -7.0387    0.0000 C   0  0  0  0  0  0  0  0  0
   -9.5007   -5.8012    0.0000 C   0  0  0  0  0  0  0  0  0
   -2.3559   -0.0262    0.0000 C   0  0  0  0  0  0  0  0  0
   -2.3559    0.7988    0.0000 C   0  0  0  0  0  0  0  0  0
  1  2  1  0  0  0  0
  1  3  1  0  0  0  0
  3  4  4  0  0  0  0
  3 31  4  0  0  0  0
  4  5  4  0  0  0  0
  5  6  4  0  0  0  0
  6  7  1  0  0  0  0
  6 30  4  0  0  0  0
  7  8  1  0  0  0  0
  8  9  4  0  0  0  0
  8 13  4  0  0  0  0
  9 10  4  0  0  0  0
 10 11  4  0  0  0  0
 11 12  4  0  0  0  0
 11 17  1  0  0  0  0
 12 13  4  0  0  0  0
 13 14  1  0  0  0  0
 14 15  1  0  0  0  0
 15 16  1  0  0  0  0
 17 18  3  0  0  0  0
 18 19  1  0  0  0  0
 19 20  1  0  0  0  0
 20 21  1  0  0  0  0
 21 22  1  0  0  0  0
 21 26  1  0  0  0  0
 22 23  1  0  0  0  0
 23 24  1  0  0  0  0
 24 25  1  0  0  0  0
 24 27  1  0  0  0  0
 25 26  1  0  0  0  0
 27 28  1  0  0  0  0
 27 29  1  0  0  0  0
 30 31  4  0  0  0  0
M  END
>  <Name_Molregno>
399940

>  <HISTAMINE H3>
7.51

>  <Serotonin transporter>
7.89

$$$$
399942
  Marvin  02231216192D 0   1.00000     0.00000     0

 29 31  0  0  0  0  0  0  0  0999 V2000
   -1.5706    6.4196    0.0000 S   0  0  0  0  0  0  0  0  0
   -2.2851    6.8321    0.0000 C   0  0  0  0  0  0  0  0  0
   -1.5706    5.5946    0.0000 C   0  0  0  0  0  0  0  0  0
   -0.8561    5.1821    0.0000 C   0  0  0  0  0  0  0  0  0
   -0.8561    4.3571    0.0000 C   0  0  0  0  0  0  0  0  0
   -1.5706    3.9446    0.0000 C   0  0  0  0  0  0  0  0  0
   -1.5706    3.1196    0.0000 O   0  0  0  0  0  0  0  0  0
   -2.2851    2.7071    0.0000 C   0  0  0  0  0  0  0  0  0
   -2.2851    1.8821    0.0000 C   0  0  0  0  0  0  0  0  0
   -2.9995    1.4696    0.0000 C   0  0  0  0  0  0  0  0  0
   -3.7140    1.8821    0.0000 C   0  0  0  0  0  0  0  0  0
   -3.7140    2.7071    0.0000 C   0  0  0  0  0  0  0  0  0
   -2.9995    3.1196    0.0000 C   0  0  0  0  0  0  0  0  0
   -2.9995    3.9446    0.0000 C   0  0  0  0  0  0  0  0  0
   -3.7140    4.3571    0.0000 N   0  0  0  0  0  0  0  0  0
   -3.7140    5.1821    0.0000 C   0  0  0  0  0  0  0  0  0
   -4.4285    1.4696    0.0000 C   0  0  0  0  0  0  0  0  0
   -5.1429    1.0571    0.0000 C   0  0  0  0  0  0  0  0  0
   -5.8574    0.6446    0.0000 C   0  0  0  0  0  0  0  0  0
   -5.8574   -0.1804    0.0000 C   0  0  0  0  0  0  0  0  0
   -6.5719   -0.5929    0.0000 N   0  0  0  0  0  0  0  0  0
   -6.5719   -1.4179    0.0000 C   0  0  0  0  0  0  0  0  0
   -7.2864   -1.8304    0.0000 C   0  0  0  0  0  0  0  0  0
   -8.0008   -1.4179    0.0000 C   0  0  0  0  0  0  0  0  0
   -8.7153   -1.8304    0.0000 F   0  0  0  0  0  0  0  0  0
   -8.0008   -0.5929    0.0000 C   0  0  0  0  0  0  0  0  0
   -7.2864   -0.1804    0.0000 C   0  0  0  0  0  0  0  0  0
   -2.2851    4.3571    0.0000 C   0  0  0  0  0  0  0  0  0
   -2.2851    5.1821    0.0000 C   0  0  0  0  0  0  0  0  0
  1  2  1  0  0  0  0
  1  3  1  0  0  0  0
  3  4  4  0  0  0  0
  3 29  4  0  0  0  0
  4  5  4  0  0  0  0
  5  6  4  0  0  0  0
  6  7  1  0  0  0  0
  6 28  4  0  0  0  0
  7  8  1  0  0  0  0
  8  9  4  0  0  0  0
  8 13  4  0  0  0  0
  9 10  4  0  0  0  0
 10 11  4  0  0  0  0
 11 12  4  0  0  0  0
 11 17  1  0  0  0  0
 12 13  4  0  0  0  0
 13 14  1  0  0  0  0
 14 15  1  0  0  0  0
 15 16  1  0  0  0  0
 17 18  3  0  0  0  0
 18 19  1  0  0  0  0
 19 20  1  0  0  0  0
 20 21  1  0  0  0  0
 21 22  1  0  0  0  0
 21 27  1  0  0  0  0
 22 23  1  0  0  0  0
 23 24  1  0  0  0  0
 24 25  1  0  0  0  0
 24 26  1  0  0  0  0
 26 27  1  0  0  0  0
 28 29  4  0  0  0  0
M  END
>  <Name_Molregno>
399942

>  <Dopamine transporter>
6.72

>  <HISTAMINE H3>
8.22

>  <Norepinephrine transporter>
7.02

>  <Serotonin transporter>
9.05

$$$$
399944
  Marvin  02231216192D 0   1.00000     0.00000     0

 29 31  0  0  0  0  0  0  0  0999 V2000
    4.2769    4.0220    0.0000 Cl  0  0  0  0  0  0  0  0  0
    4.2769    3.1970    0.0000 C   0  0  0  0  0  0  0  0  0
    4.9914    2.7845    0.0000 C   0  0  0  0  0  0  0  0  0
    4.9914    1.9595    0.0000 C   0  0  0  0  0  0  0  0  0
    5.7059    1.5470    0.0000 O   0  0  0  0  0  0  0  0  0
    5.7059    0.7220    0.0000 C   0  0  0  0  0  0  0  0  0
    6.4203    0.3095    0.0000 C   0  0  0  0  0  0  0  0  0
    6.4203   -0.5155    0.0000 C   0  0  0  0  0  0  0  0  0
    5.7059   -0.9280    0.0000 C   0  0  0  0  0  0  0  0  0
    4.9914   -0.5155    0.0000 C   0  0  0  0  0  0  0  0  0
    4.9914    0.3095    0.0000 C   0  0  0  0  0  0  0  0  0
    4.2769    0.7220    0.0000 C   0  0  0  0  0  0  0  0  0
    3.5625    0.3095    0.0000 N   0  0  0  0  0  0  0  0  0
    2.8480    0.7220    0.0000 C   0  0  0  0  0  0  0  0  0
    5.7059   -1.7530    0.0000 C   0  0  0  0  0  0  0  0  0
    5.7059   -2.5780    0.0000 C   0  0  0  0  0  0  0  0  0
    5.7059   -3.4030    0.0000 C   0  0  0  0  0  0  0  0  0
    4.9914   -3.8155    0.0000 C   0  0  0  0  0  0  0  0  0
    4.9914   -4.6405    0.0000 N   0  0  0  0  0  0  0  0  0
    5.7059   -5.0530    0.0000 C   0  0  0  0  0  0  0  0  0
    5.7059   -5.8780    0.0000 C   0  0  0  0  0  0  0  0  0
    4.9914   -6.2905    0.0000 C   0  0  0  0  0  0  0  0  0
    4.9914   -7.1155    0.0000 F   0  0  0  0  0  0  0  0  0
    4.2769   -5.8780    0.0000 C   0  0  0  0  0  0  0  0  0
    4.2769   -5.0530    0.0000 C   0  0  0  0  0  0  0  0  0
    4.2769    1.5470    0.0000 C   0  0  0  0  0  0  0  0  0
    3.5625    1.9595    0.0000 C   0  0  0  0  0  0  0  0  0
    3.5625    2.7845    0.0000 C   0  0  0  0  0  0  0  0  0
    2.8480    3.1970    0.0000 Cl  0  0  0  0  0  0  0  0  0
  1  2  1  0  0  0  0
  2  3  4  0  0  0  0
  2 28  4  0  0  0  0
  3  4  4  0  0  0  0
  4  5  1  0  0  0  0
  4 26  4  0  0  0  0
  5  6  1  0  0  0  0
  6  7  4  0  0  0  0
  6 11  4  0  0  0  0
  7  8  4  0  0  0  0
  8  9  4  0  0  0  0
  9 10  4  0  0  0  0
  9 15  1  0  0  0  0
 10 11  4  0  0  0  0
 11 12  1  0  0  0  0
 12 13  1  0  0  0  0
 13 14  1  0  0  0  0
 15 16  3  0  0  0  0
 16 17  1  0  0  0  0
 17 18  1  0  0  0  0
 18 19  1  0  0  0  0
 19 20  1  0  0  0  0
 19 25  1  0  0  0  0
 20 21  1  0  0  0  0
 21 22  1  0  0  0  0
 22 23  1  0  0  0  0
 22 24  1  0  0  0  0
 24 25  1  0  0  0  0
 26 27  4  0  0  0  0
 27 28  4  0  0  0  0
 28 29  1  0  0  0  0
M  END
>  <Name_Molregno>
399944

>  <HISTAMINE H3>
7.85

>  <Serotonin transporter>
7.57

$$$$
399956
  Marvin  02231216192D 0   1.00000     0.00000     0

 31 34  0  0  0  0  0  0  0  0999 V2000
   -6.8427    2.2754    0.0000 S   0  0  0  0  0  0  0  0  0
   -7.5572    1.8629    0.0000 C   0  0  0  0  0  0  0  0  0
   -6.1283    1.8629    0.0000 C   0  0  0  0  0  0  0  0  0
   -5.4138    2.2754    0.0000 C   0  0  0  0  0  0  0  0  0
   -4.6993    1.8629    0.0000 C   0  0  0  0  0  0  0  0  0
   -4.6993    1.0379    0.0000 C   0  0  0  0  0  0  0  0  0
   -3.9848    0.6254    0.0000 O   0  0  0  0  0  0  0  0  0
   -3.9848   -0.1996    0.0000 C   0  0  0  0  0  0  0  0  0
   -3.2704   -0.6121    0.0000 C   0  0  0  0  0  0  0  0  0
   -3.2704   -1.4371    0.0000 C   0  0  0  0  0  0  0  0  0
   -3.9848   -1.8496    0.0000 C   0  0  0  0  0  0  0  0  0
   -4.6993   -1.4371    0.0000 C   0  0  0  0  0  0  0  0  0
   -4.6993   -0.6121    0.0000 C   0  0  0  0  0  0  0  0  0
   -5.4138   -0.1996    0.0000 C   0  0  0  0  0  0  0  0  0
   -6.1283   -0.6121    0.0000 N   0  0  0  0  0  0  0  0  0
   -6.8427   -0.1996    0.0000 C   0  0  0  0  0  0  0  0  0
   -3.9848   -2.6746    0.0000 C   0  0  0  0  0  0  0  0  0
   -3.9848   -3.4996    0.0000 C   0  0  0  0  0  0  0  0  0
   -3.9848   -4.3246    0.0000 C   0  0  0  0  0  0  0  0  0
   -3.2704   -4.7371    0.0000 C   0  0  0  0  0  0  0  0  0
   -3.2704   -5.5621    0.0000 N   0  0  0  0  0  0  0  0  0
   -2.5559   -5.9746    0.0000 C   0  0  0  0  0  0  0  0  0
   -2.5559   -6.7996    0.0000 C   0  0  0  0  0  0  0  0  0
   -3.2704   -7.2121    0.0000 N   0  0  0  0  0  0  0  0  0
   -3.9848   -6.7996    0.0000 C   0  0  0  0  0  0  0  0  0
   -3.9848   -5.9746    0.0000 C   0  0  0  0  0  0  0  0  0
   -3.2704   -8.0371    0.0000 C   0  0  0  0  0  0  0  0  0
   -2.8579   -8.7516    0.0000 C   0  0  0  0  0  0  0  0  0
   -3.6829   -8.7516    0.0000 C   0  0  0  0  0  0  0  0  0
   -5.4138    0.6254    0.0000 C   0  0  0  0  0  0  0  0  0
   -6.1283    1.0379    0.0000 C   0  0  0  0  0  0  0  0  0
  1  2  1  0  0  0  0
  1  3  1  0  0  0  0
  3  4  4  0  0  0  0
  3 31  4  0  0  0  0
  4  5  4  0  0  0  0
  5  6  4  0  0  0  0
  6  7  1  0  0  0  0
  6 30  4  0  0  0  0
  7  8  1  0  0  0  0
  8  9  4  0  0  0  0
  8 13  4  0  0  0  0
  9 10  4  0  0  0  0
 10 11  4  0  0  0  0
 11 12  4  0  0  0  0
 11 17  1  0  0  0  0
 12 13  4  0  0  0  0
 13 14  1  0  0  0  0
 14 15  1  0  0  0  0
 15 16  1  0  0  0  0
 17 18  3  0  0  0  0
 18 19  1  0  0  0  0
 19 20  1  0  0  0  0
 20 21  1  0  0  0  0
 21 22  1  0  0  0  0
 21 26  1  0  0  0  0
 22 23  1  0  0  0  0
 23 24  1  0  0  0  0
 24 25  1  0  0  0  0
 24 27  1  0  0  0  0
 25 26  1  0  0  0  0
 27 28  1  0  0  0  0
 27 29  1  0  0  0  0
 28 29  1  0  0  0  0
 30 31  4  0  0  0  0
M  END
>  <Name_Molregno>
399956

>  <HISTAMINE H3>
7.28

>  <Serotonin transporter>
8.46

$$$$
399959
  Marvin  02231216192D 0   1.00000     0.00000     0

 26 28  0  0  0  0  0  0  0  0999 V2000
   -7.3819    2.4527    0.0000 S   0  0  0  0  0  0  0  0  0
   -7.3819    1.6277    0.0000 C   0  0  0  0  0  0  0  0  0
   -6.6674    2.8652    0.0000 C   0  0  0  0  0  0  0  0  0
   -6.6674    3.6902    0.0000 C   0  0  0  0  0  0  0  0  0
   -5.9529    4.1027    0.0000 C   0  0  0  0  0  0  0  0  0
   -5.2385    3.6902    0.0000 C   0  0  0  0  0  0  0  0  0
   -4.5240    4.1027    0.0000 O   0  0  0  0  0  0  0  0  0
   -3.8095    3.6902    0.0000 C   0  0  0  0  0  0  0  0  0
   -3.0950    4.1027    0.0000 C   0  0  0  0  0  0  0  0  0
   -2.3806    3.6902    0.0000 C   0  0  0  0  0  0  0  0  0
   -2.3806    2.8652    0.0000 C   0  0  0  0  0  0  0  0  0
   -3.0950    2.4527    0.0000 C   0  0  0  0  0  0  0  0  0
   -3.8095    2.8652    0.0000 C   0  0  0  0  0  0  0  0  0
   -4.5240    2.4527    0.0000 C   0  0  0  0  0  0  0  0  0
   -4.5240    1.6277    0.0000 N   0  0  0  0  0  0  0  0  0
   -5.2385    1.2152    0.0000 C   0  0  0  0  0  0  0  0  0
   -1.6661    2.4527    0.0000 C   0  0  0  0  0  0  0  0  0
   -0.9516    2.0402    0.0000 C   0  0  0  0  0  0  0  0  0
   -0.2372    1.6277    0.0000 C   0  0  0  0  0  0  0  0  0
   -0.2372    0.8027    0.0000 C   0  0  0  0  0  0  0  0  0
    0.4773    0.3902    0.0000 N   0  0  0  0  0  0  0  0  0
    0.4773   -0.4348    0.0000 C   0  0  0  0  0  0  0  0  0
    0.8898   -1.1492    0.0000 C   0  0  0  0  0  0  0  0  0
    0.0648   -1.1492    0.0000 C   0  0  0  0  0  0  0  0  0
   -5.2385    2.8652    0.0000 C   0  0  0  0  0  0  0  0  0
   -5.9529    2.4527    0.0000 C   0  0  0  0  0  0  0  0  0
  1  2  1  0  0  0  0
  1  3  1  0  0  0  0
  3  4  4  0  0  0  0
  3 26  4  0  0  0  0
  4  5  4  0  0  0  0
  5  6  4  0  0  0  0
  6  7  1  0  0  0  0
  6 25  4  0  0  0  0
  7  8  1  0  0  0  0
  8  9  4  0  0  0  0
  8 13  4  0  0  0  0
  9 10  4  0  0  0  0
 10 11  4  0  0  0  0
 11 12  4  0  0  0  0
 11 17  1  0  0  0  0
 12 13  4  0  0  0  0
 13 14  1  0  0  0  0
 14 15  1  0  0  0  0
 15 16  1  0  0  0  0
 17 18  3  0  0  0  0
 18 19  1  0  0  0  0
 19 20  1  0  0  0  0
 20 21  1  0  0  0  0
 21 22  1  0  0  0  0
 22 23  1  0  0  0  0
 22 24  1  0  0  0  0
 23 24  1  0  0  0  0
 25 26  4  0  0  0  0
M  END
>  <Name_Molregno>
399959

>  <HISTAMINE H3>
7.77

>  <Serotonin transporter>
7.92

$$$$
399961
  Marvin  02231216192D 0   1.00000     0.00000     0

 26 28  0  0  0  0  0  0  0  0999 V2000
    0.2590    0.9169    0.0000 Cl  0  0  0  0  0  0  0  0  0
    0.9735    0.5044    0.0000 C   0  0  0  0  0  0  0  0  0
    1.6879    0.9169    0.0000 C   0  0  0  0  0  0  0  0  0
    2.4024    0.5044    0.0000 C   0  0  0  0  0  0  0  0  0
    3.1169    0.9169    0.0000 O   0  0  0  0  0  0  0  0  0
    3.8314    0.5044    0.0000 C   0  0  0  0  0  0  0  0  0
    4.5458    0.9169    0.0000 C   0  0  0  0  0  0  0  0  0
    5.2603    0.5044    0.0000 C   0  0  0  0  0  0  0  0  0
    5.2603   -0.3206    0.0000 C   0  0  0  0  0  0  0  0  0
    4.5458   -0.7331    0.0000 C   0  0  0  0  0  0  0  0  0
    3.8314   -0.3206    0.0000 C   0  0  0  0  0  0  0  0  0
    3.1169   -0.7331    0.0000 C   0  0  0  0  0  0  0  0  0
    3.1169   -1.5581    0.0000 N   0  0  0  0  0  0  0  0  0
    2.4024   -1.9706    0.0000 C   0  0  0  0  0  0  0  0  0
    5.9748   -0.7331    0.0000 C   0  0  0  0  0  0  0  0  0
    6.6892   -1.1456    0.0000 C   0  0  0  0  0  0  0  0  0
    7.4037   -1.5581    0.0000 C   0  0  0  0  0  0  0  0  0
    7.4037   -2.3831    0.0000 C   0  0  0  0  0  0  0  0  0
    8.1182   -2.7956    0.0000 N   0  0  0  0  0  0  0  0  0
    8.1182   -3.6206    0.0000 C   0  0  0  0  0  0  0  0  0
    8.5307   -4.3351    0.0000 C   0  0  0  0  0  0  0  0  0
    7.7057   -4.3351    0.0000 C   0  0  0  0  0  0  0  0  0
    2.4024   -0.3206    0.0000 C   0  0  0  0  0  0  0  0  0
    1.6879   -0.7331    0.0000 C   0  0  0  0  0  0  0  0  0
    0.9735   -0.3206    0.0000 C   0  0  0  0  0  0  0  0  0
    0.2590   -0.7331    0.0000 Cl  0  0  0  0  0  0  0  0  0
  1  2  1  0  0  0  0
  2  3  4  0  0  0  0
  2 25  4  0  0  0  0
  3  4  4  0  0  0  0
  4  5  1  0  0  0  0
  4 23  4  0  0  0  0
  5  6  1  0  0  0  0
  6  7  4  0  0  0  0
  6 11  4  0  0  0  0
  7  8  4  0  0  0  0
  8  9  4  0  0  0  0
  9 10  4  0  0  0  0
  9 15  1  0  0  0  0
 10 11  4  0  0  0  0
 11 12  1  0  0  0  0
 12 13  1  0  0  0  0
 13 14  1  0  0  0  0
 15 16  3  0  0  0  0
 16 17  1  0  0  0  0
 17 18  1  0  0  0  0
 18 19  1  0  0  0  0
 19 20  1  0  0  0  0
 20 21  1  0  0  0  0
 20 22  1  0  0  0  0
 21 22  1  0  0  0  0
 23 24  4  0  0  0  0
 24 25  4  0  0  0  0
 25 26  1  0  0  0  0
M  END
>  <Name_Molregno>
399961

>  <HISTAMINE H3>
7.77

>  <Serotonin transporter>
8.85

$$$$
399962
  Marvin  02231216192D 0   1.00000     0.00000     0

 27 29  0  0  0  0  0  0  0  0999 V2000
   -7.7068    2.5525    0.0000 S   0  0  0  0  0  0  0  0  0
   -7.7068    1.7275    0.0000 C   0  0  0  0  0  0  0  0  0
   -6.9923    2.9650    0.0000 C   0  0  0  0  0  0  0  0  0
   -6.9923    3.7900    0.0000 C   0  0  0  0  0  0  0  0  0
   -6.2779    4.2025    0.0000 C   0  0  0  0  0  0  0  0  0
   -5.5634    3.7900    0.0000 C   0  0  0  0  0  0  0  0  0
   -4.8489    4.2025    0.0000 O   0  0  0  0  0  0  0  0  0
   -4.1344    3.7900    0.0000 C   0  0  0  0  0  0  0  0  0
   -3.4200    4.2025    0.0000 C   0  0  0  0  0  0  0  0  0
   -2.7055    3.7900    0.0000 C   0  0  0  0  0  0  0  0  0
   -2.7055    2.9650    0.0000 C   0  0  0  0  0  0  0  0  0
   -3.4200    2.5525    0.0000 C   0  0  0  0  0  0  0  0  0
   -4.1344    2.9650    0.0000 C   0  0  0  0  0  0  0  0  0
   -4.8489    2.5525    0.0000 C   0  0  0  0  0  0  0  0  0
   -4.8489    1.7275    0.0000 N   0  0  0  0  0  0  0  0  0
   -5.5634    1.3150    0.0000 C   0  0  0  0  0  0  0  0  0
   -1.9910    2.5525    0.0000 C   0  0  0  0  0  0  0  0  0
   -1.2766    2.1400    0.0000 C   0  0  0  0  0  0  0  0  0
   -0.5621    1.7275    0.0000 C   0  0  0  0  0  0  0  0  0
   -0.5621    0.9025    0.0000 C   0  0  0  0  0  0  0  0  0
    0.1524    0.4900    0.0000 N   0  0  0  0  0  0  0  0  0
    0.8668    0.9025    0.0000 C   0  0  0  0  0  0  0  0  0
    0.1524   -0.3350    0.0000 C   0  0  0  0  0  0  0  0  0
    0.5649   -1.0495    0.0000 C   0  0  0  0  0  0  0  0  0
   -0.2601   -1.0495    0.0000 C   0  0  0  0  0  0  0  0  0
   -5.5634    2.9650    0.0000 C   0  0  0  0  0  0  0  0  0
   -6.2779    2.5525    0.0000 C   0  0  0  0  0  0  0  0  0
  1  2  1  0  0  0  0
  1  3  1  0  0  0  0
  3  4  4  0  0  0  0
  3 27  4  0  0  0  0
  4  5  4  0  0  0  0
  5  6  4  0  0  0  0
  6  7  1  0  0  0  0
  6 26  4  0  0  0  0
  7  8  1  0  0  0  0
  8  9  4  0  0  0  0
  8 13  4  0  0  0  0
  9 10  4  0  0  0  0
 10 11  4  0  0  0  0
 11 12  4  0  0  0  0
 11 17  1  0  0  0  0
 12 13  4  0  0  0  0
 13 14  1  0  0  0  0
 14 15  1  0  0  0  0
 15 16  1  0  0  0  0
 17 18  3  0  0  0  0
 18 19  1  0  0  0  0
 19 20  1  0  0  0  0
 20 21  1  0  0  0  0
 21 22  1  0  0  0  0
 21 23  1  0  0  0  0
 23 24  1  0  0  0  0
 23 25  1  0  0  0  0
 24 25  1  0  0  0  0
 26 27  4  0  0  0  0
M  END
>  <Name_Molregno>
399962

>  <Dopamine transporter>
6.4

>  <HISTAMINE H3>
8.21

>  <Norepinephrine transporter>
6.6

>  <Serotonin transporter>
8.96

$$$$
399963
  Marvin  02231216192D 0   1.00000     0.00000     0

 27 29  0  0  0  0  0  0  0  0999 V2000
    0.2550    2.7783    0.0000 Cl  0  0  0  0  0  0  0  0  0
    0.9695    2.3658    0.0000 C   0  0  0  0  0  0  0  0  0
    1.6840    2.7783    0.0000 C   0  0  0  0  0  0  0  0  0
    2.3985    2.3658    0.0000 C   0  0  0  0  0  0  0  0  0
    3.1129    2.7783    0.0000 O   0  0  0  0  0  0  0  0  0
    3.8274    2.3658    0.0000 C   0  0  0  0  0  0  0  0  0
    4.5419    2.7783    0.0000 C   0  0  0  0  0  0  0  0  0
    5.2563    2.3658    0.0000 C   0  0  0  0  0  0  0  0  0
    5.2563    1.5408    0.0000 C   0  0  0  0  0  0  0  0  0
    4.5419    1.1283    0.0000 C   0  0  0  0  0  0  0  0  0
    3.8274    1.5408    0.0000 C   0  0  0  0  0  0  0  0  0
    3.1129    1.1283    0.0000 C   0  0  0  0  0  0  0  0  0
    3.1129    0.3033    0.0000 N   0  0  0  0  0  0  0  0  0
    2.3985   -0.1092    0.0000 C   0  0  0  0  0  0  0  0  0
    5.9708    1.1283    0.0000 C   0  0  0  0  0  0  0  0  0
    6.6853    0.7158    0.0000 C   0  0  0  0  0  0  0  0  0
    7.3998    0.3033    0.0000 C   0  0  0  0  0  0  0  0  0
    7.3998   -0.5217    0.0000 C   0  0  0  0  0  0  0  0  0
    8.1142   -0.9342    0.0000 N   0  0  0  0  0  0  0  0  0
    8.8287   -0.5217    0.0000 C   0  0  0  0  0  0  0  0  0
    8.1142   -1.7592    0.0000 C   0  0  0  0  0  0  0  0  0
    8.5267   -2.4737    0.0000 C   0  0  0  0  0  0  0  0  0
    7.7017   -2.4737    0.0000 C   0  0  0  0  0  0  0  0  0
    2.3985    1.5408    0.0000 C   0  0  0  0  0  0  0  0  0
    1.6840    1.1283    0.0000 C   0  0  0  0  0  0  0  0  0
    0.9695    1.5408    0.0000 C   0  0  0  0  0  0  0  0  0
    0.2550    1.1283    0.0000 Cl  0  0  0  0  0  0  0  0  0
  1  2  1  0  0  0  0
  2  3  4  0  0  0  0
  2 26  4  0  0  0  0
  3  4  4  0  0  0  0
  4  5  1  0  0  0  0
  4 24  4  0  0  0  0
  5  6  1  0  0  0  0
  6  7  4  0  0  0  0
  6 11  4  0  0  0  0
  7  8  4  0  0  0  0
  8  9  4  0  0  0  0
  9 10  4  0  0  0  0
  9 15  1  0  0  0  0
 10 11  4  0  0  0  0
 11 12  1  0  0  0  0
 12 13  1  0  0  0  0
 13 14  1  0  0  0  0
 15 16  3  0  0  0  0
 16 17  1  0  0  0  0
 17 18  1  0  0  0  0
 18 19  1  0  0  0  0
 19 20  1  0  0  0  0
 19 21  1  0  0  0  0
 21 22  1  0  0  0  0
 21 23  1  0  0  0  0
 22 23  1  0  0  0  0
 24 25  4  0  0  0  0
 25 26  4  0  0  0  0
 26 27  1  0  0  0  0
M  END
>  <Name_Molregno>
399963

>  <HISTAMINE H3>
8.01

>  <Serotonin transporter>
8.23

$$$$
399964
  Marvin  02231216192D 0   1.00000     0.00000     0

 29 31  0  0  0  0  0  0  0  0999 V2000
   -1.5726    1.8156    0.0000 S   0  0  0  0  0  0  0  0  0
   -2.2870    2.2281    0.0000 C   0  0  0  0  0  0  0  0  0
   -1.5726    0.9906    0.0000 C   0  0  0  0  0  0  0  0  0
   -0.8581    0.5781    0.0000 C   0  0  0  0  0  0  0  0  0
   -0.8581   -0.2469    0.0000 C   0  0  0  0  0  0  0  0  0
   -1.5726   -0.6594    0.0000 C   0  0  0  0  0  0  0  0  0
   -1.5726   -1.4844    0.0000 O   0  0  0  0  0  0  0  0  0
   -2.2870   -1.8969    0.0000 C   0  0  0  0  0  0  0  0  0
   -2.2870   -2.7219    0.0000 C   0  0  0  0  0  0  0  0  0
   -3.0015   -3.1344    0.0000 C   0  0  0  0  0  0  0  0  0
   -3.7160   -2.7219    0.0000 C   0  0  0  0  0  0  0  0  0
   -3.7160   -1.8969    0.0000 C   0  0  0  0  0  0  0  0  0
   -3.0015   -1.4844    0.0000 C   0  0  0  0  0  0  0  0  0
   -3.0015   -0.6594    0.0000 C   0  0  0  0  0  0  0  0  0
   -3.7160   -0.2469    0.0000 N   0  0  0  0  0  0  0  0  0
   -3.7160    0.5781    0.0000 C   0  0  0  0  0  0  0  0  0
   -4.4304   -3.1344    0.0000 C   0  0  0  0  0  0  0  0  0
   -5.1449   -3.5469    0.0000 C   0  0  0  0  0  0  0  0  0
   -5.8594   -3.9594    0.0000 C   0  0  0  0  0  0  0  0  0
   -5.8594   -4.7844    0.0000 C   0  0  0  0  0  0  0  0  0
   -6.5738   -5.1969    0.0000 N   0  0  0  0  0  0  0  0  0
   -6.5738   -6.0219    0.0000 C   0  0  0  0  0  0  0  0  0
   -7.2883   -6.4344    0.0000 C   0  0  0  0  0  0  0  0  0
   -7.2883   -7.2594    0.0000 O   0  0  0  0  0  0  0  0  0
   -8.0028   -6.0219    0.0000 N   0  0  0  0  0  0  0  0  0
   -8.0028   -5.1969    0.0000 C   0  0  0  0  0  0  0  0  0
   -7.2883   -4.7844    0.0000 C   0  0  0  0  0  0  0  0  0
   -2.2870   -0.2469    0.0000 C   0  0  0  0  0  0  0  0  0
   -2.2870    0.5781    0.0000 C   0  0  0  0  0  0  0  0  0
  1  2  1  0  0  0  0
  1  3  1  0  0  0  0
  3  4  4  0  0  0  0
  3 29  4  0  0  0  0
  4  5  4  0  0  0  0
  5  6  4  0  0  0  0
  6  7  1  0  0  0  0
  6 28  4  0  0  0  0
  7  8  1  0  0  0  0
  8  9  4  0  0  0  0
  8 13  4  0  0  0  0
  9 10  4  0  0  0  0
 10 11  4  0  0  0  0
 11 12  4  0  0  0  0
 11 17  1  0  0  0  0
 12 13  4  0  0  0  0
 13 14  1  0  0  0  0
 14 15  1  0  0  0  0
 15 16  1  0  0  0  0
 17 18  3  0  0  0  0
 18 19  1  0  0  0  0
 19 20  1  0  0  0  0
 20 21  1  0  0  0  0
 21 22  1  0  0  0  0
 21 27  1  0  0  0  0
 22 23  1  0  0  0  0
 23 24  2  0  0  0  0
 23 25  1  0  0  0  0
 25 26  1  0  0  0  0
 26 27  1  0  0  0  0
 28 29  4  0  0  0  0
M  END
>  <Name_Molregno>
399964

>  <HISTAMINE H3>
6.06

>  <Serotonin transporter>
8.89

$$$$
399965
  Marvin  02231216192D 0   1.00000     0.00000     0

 32 34  0  0  0  0  0  0  0  0999 V2000
   -1.7243    6.7679    0.0000 S   0  0  0  0  0  0  0  0  0
   -2.4388    7.1804    0.0000 C   0  0  0  0  0  0  0  0  0
   -1.7243    5.9429    0.0000 C   0  0  0  0  0  0  0  0  0
   -1.0098    5.5304    0.0000 C   0  0  0  0  0  0  0  0  0
   -1.0098    4.7054    0.0000 C   0  0  0  0  0  0  0  0  0
   -1.7243    4.2929    0.0000 C   0  0  0  0  0  0  0  0  0
   -1.7243    3.4679    0.0000 O   0  0  0  0  0  0  0  0  0
   -2.4388    3.0554    0.0000 C   0  0  0  0  0  0  0  0  0
   -2.4388    2.2304    0.0000 C   0  0  0  0  0  0  0  0  0
   -3.1533    1.8179    0.0000 C   0  0  0  0  0  0  0  0  0
   -3.8677    2.2304    0.0000 C   0  0  0  0  0  0  0  0  0
   -3.8677    3.0554    0.0000 C   0  0  0  0  0  0  0  0  0
   -3.1533    3.4679    0.0000 C   0  0  0  0  0  0  0  0  0
   -3.1533    4.2929    0.0000 C   0  0  0  0  0  0  0  0  0
   -3.8677    4.7054    0.0000 N   0  0  0  0  0  0  0  0  0
   -3.8677    5.5304    0.0000 C   0  0  0  0  0  0  0  0  0
   -4.5822    1.8179    0.0000 C   0  0  0  0  0  0  0  0  0
   -5.2967    1.4054    0.0000 C   0  0  0  0  0  0  0  0  0
   -6.0111    0.9929    0.0000 C   0  0  0  0  0  0  0  0  0
   -6.0111    0.1679    0.0000 C   0  0  0  0  0  0  0  0  0
   -6.7256   -0.2446    0.0000 N   0  0  0  0  0  0  0  0  0
   -6.7256   -1.0696    0.0000 C   0  0  0  0  0  0  0  0  0
   -7.4401   -1.4821    0.0000 C   0  0  0  0  0  0  0  0  0
   -7.4401   -2.3071    0.0000 O   0  0  0  0  0  0  0  0  0
   -8.1546   -1.0696    0.0000 N   0  0  0  0  0  0  0  0  0
   -8.1546   -0.2446    0.0000 C   0  0  0  0  0  0  0  0  0
   -7.4401    0.1679    0.0000 C   0  0  0  0  0  0  0  0  0
   -8.8690   -1.4821    0.0000 C   0  0  0  0  0  0  0  0  0
   -8.8690   -2.3071    0.0000 C   0  0  0  0  0  0  0  0  0
   -9.5835   -1.0696    0.0000 C   0  0  0  0  0  0  0  0  0
   -2.4388    4.7054    0.0000 C   0  0  0  0  0  0  0  0  0
   -2.4388    5.5304    0.0000 C   0  0  0  0  0  0  0  0  0
  1  2  1  0  0  0  0
  1  3  1  0  0  0  0
  3  4  4  0  0  0  0
  3 32  4  0  0  0  0
  4  5  4  0  0  0  0
  5  6  4  0  0  0  0
  6  7  1  0  0  0  0
  6 31  4  0  0  0  0
  7  8  1  0  0  0  0
  8  9  4  0  0  0  0
  8 13  4  0  0  0  0
  9 10  4  0  0  0  0
 10 11  4  0  0  0  0
 11 12  4  0  0  0  0
 11 17  1  0  0  0  0
 12 13  4  0  0  0  0
 13 14  1  0  0  0  0
 14 15  1  0  0  0  0
 15 16  1  0  0  0  0
 17 18  3  0  0  0  0
 18 19  1  0  0  0  0
 19 20  1  0  0  0  0
 20 21  1  0  0  0  0
 21 22  1  0  0  0  0
 21 27  1  0  0  0  0
 22 23  1  0  0  0  0
 23 24  2  0  0  0  0
 23 25  1  0  0  0  0
 25 26  1  0  0  0  0
 25 28  1  0  0  0  0
 26 27  1  0  0  0  0
 28 29  1  0  0  0  0
 28 30  1  0  0  0  0
 31 32  4  0  0  0  0
M  END
>  <Name_Molregno>
399965

>  <HISTAMINE H3>
5.73

>  <Serotonin transporter>
8.92

$$$$
399967
  Marvin  02231216192D 0   1.00000     0.00000     0

 32 34  0  0  0  0  0  0  0  0999 V2000
   -1.4007    6.2263    0.0000 S   0  0  0  0  0  0  0  0  0
   -2.1152    6.6388    0.0000 C   0  0  0  0  0  0  0  0  0
   -1.4007    5.4013    0.0000 C   0  0  0  0  0  0  0  0  0
   -0.6862    4.9888    0.0000 C   0  0  0  0  0  0  0  0  0
   -0.6862    4.1638    0.0000 C   0  0  0  0  0  0  0  0  0
   -1.4007    3.7513    0.0000 C   0  0  0  0  0  0  0  0  0
   -1.4007    2.9263    0.0000 O   0  0  0  0  0  0  0  0  0
   -2.1152    2.5138    0.0000 C   0  0  0  0  0  0  0  0  0
   -2.1152    1.6888    0.0000 C   0  0  0  0  0  0  0  0  0
   -2.8296    1.2763    0.0000 C   0  0  0  0  0  0  0  0  0
   -3.5441    1.6888    0.0000 C   0  0  0  0  0  0  0  0  0
   -3.5441    2.5138    0.0000 C   0  0  0  0  0  0  0  0  0
   -2.8296    2.9263    0.0000 C   0  0  0  0  0  0  0  0  0
   -2.8296    3.7513    0.0000 C   0  0  0  0  0  0  0  0  0
   -3.5441    4.1638    0.0000 N   0  0  0  0  0  0  0  0  0
   -3.5441    4.9888    0.0000 C   0  0  0  0  0  0  0  0  0
   -4.2586    1.2763    0.0000 C   0  0  0  0  0  0  0  0  0
   -4.9731    0.8638    0.0000 C   0  0  0  0  0  0  0  0  0
   -5.6875    0.4513    0.0000 C   0  0  0  0  0  0  0  0  0
   -6.4020    0.8638    0.0000 C   0  0  0  0  0  0  0  0  0
   -7.1165    0.4513    0.0000 N   0  0  0  0  0  0  0  0  0
   -7.0548   -0.3713    0.0000 C   0  0  0  0  0  0  0  0  0
   -7.6596   -0.9325    0.0000 C   0  0  0  0  0  0  0  0  0
   -8.4754   -0.8095    0.0000 C   0  0  0  0  0  0  0  0  0
   -8.8879   -0.0951    0.0000 N   0  0  0  0  0  0  0  0  0
   -8.5865    0.6729    0.0000 C   0  0  0  0  0  0  0  0  0
   -7.7981    0.9161    0.0000 C   0  0  0  0  0  0  0  0  0
   -9.7106   -0.1567    0.0000 C   0  0  0  0  0  0  0  0  0
  -10.0685   -0.9000    0.0000 C   0  0  0  0  0  0  0  0  0
  -10.1753    0.5249    0.0000 C   0  0  0  0  0  0  0  0  0
   -2.1152    4.1638    0.0000 C   0  0  0  0  0  0  0  0  0
   -2.1152    4.9888    0.0000 C   0  0  0  0  0  0  0  0  0
  1  2  1  0  0  0  0
  1  3  1  0  0  0  0
  3  4  4  0  0  0  0
  3 32  4  0  0  0  0
  4  5  4  0  0  0  0
  5  6  4  0  0  0  0
  6  7  1  0  0  0  0
  6 31  4  0  0  0  0
  7  8  1  0  0  0  0
  8  9  4  0  0  0  0
  8 13  4  0  0  0  0
  9 10  4  0  0  0  0
 10 11  4  0  0  0  0
 11 12  4  0  0  0  0
 11 17  1  0  0  0  0
 12 13  4  0  0  0  0
 13 14  1  0  0  0  0
 14 15  1  0  0  0  0
 15 16  1  0  0  0  0
 17 18  3  0  0  0  0
 18 19  1  0  0  0  0
 19 20  1  0  0  0  0
 20 21  1  0  0  0  0
 21 22  1  0  0  0  0
 21 27  1  0  0  0  0
 22 23  1  0  0  0  0
 23 24  1  0  0  0  0
 24 25  1  0  0  0  0
 25 26  1  0  0  0  0
 25 28  1  0  0  0  0
 26 27  1  0  0  0  0
 28 29  1  0  0  0  0
 28 30  1  0  0  0  0
 31 32  4  0  0  0  0
M  END
>  <Name_Molregno>
399967

>  <HISTAMINE H3>
7.03

>  <Serotonin transporter>
8.44

$$$$
400080
  Marvin  02231216192D 0   1.00000     0.00000     0

 31 35  0  0  1  0  0  0  0  0999 V2000
   -0.6150    0.3518    0.0000 O   0  0  0  0  0  0  0  0  0
    0.2096    0.3261    0.0000 C   0  0  0  0  0  0  0  0  0
    0.6442    1.0273    0.0000 C   0  0  0  0  0  0  0  0  0
    1.4688    1.0016    0.0000 C   0  0  0  0  0  0  0  0  0
    1.9035    1.7028    0.0000 N   0  0  0  0  0  0  0  0  0
    1.5135    2.4298    0.0000 C   0  0  0  0  0  0  0  0  0
    1.9481    3.1310    0.0000 C   0  0  0  0  0  0  0  0  0
    2.7727    3.1053    0.0000 C   0  0  0  0  0  0  0  0  0
    3.1627    2.3783    0.0000 C   0  0  0  0  0  0  0  0  0
    2.7281    1.6770    0.0000 C   0  0  0  0  0  0  0  0  0
   -1.0496   -0.3494    0.0000 C   0  0  0  0  0  0  0  0  0
   -1.8742   -0.3236    0.0000 C   0  0  0  0  0  0  0  0  0
   -2.3088   -1.0249    0.0000 C   0  0  0  0  0  0  0  0  0
   -1.9188   -1.7519    0.0000 C   0  0  0  0  0  0  0  0  0
   -1.0942   -1.7776    0.0000 C   0  0  0  0  0  0  0  0  0
   -0.6596   -1.0764    0.0000 C   0  0  0  0  0  0  0  0  0
   -2.3534   -2.4531    0.0000 C   0  0  0  0  0  0  0  0  0
   -3.1780   -2.4274    0.0000 C   0  0  0  0  0  0  0  0  0
   -3.5680   -1.7004    0.0000 N   0  0  0  0  0  0  0  0  0
   -3.1334   -0.9991    0.0000 C   0  0  0  0  0  0  0  0  0
   -3.6660   -0.3691    0.0000 C   0  0  0  0  0  0  0  0  0
   -4.4298   -0.6809    0.0000 C   0  0  0  0  0  0  0  0  0
   -4.3692   -1.5037    0.0000 C   0  0  0  0  0  0  0  0  0
   -1.9634   -3.1801    0.0000 C   0  0  0  0  0  0  0  0  0
   -1.1388   -3.2059    0.0000 C   0  0  0  0  0  0  0  0  0
   -0.7488   -3.9329    0.0000 C   0  0  0  0  0  0  0  0  0
   -1.1834   -4.6341    0.0000 C   0  0  0  0  0  0  0  0  0
   -0.7935   -5.3611    0.0000 O   0  0  0  0  0  0  0  0  0
   -1.2281   -6.0624    0.0000 C   0  0  0  0  0  0  0  0  0
   -2.0080   -4.6084    0.0000 C   0  0  0  0  0  0  0  0  0
   -2.3980   -3.8814    0.0000 C   0  0  0  0  0  0  0  0  0
  1  2  1  0  0  0  0
  1 11  1  0  0  0  0
  2  3  1  0  0  0  0
  3  4  1  0  0  0  0
  4  5  1  0  0  0  0
  5  6  1  0  0  0  0
  5 10  1  0  0  0  0
  6  7  1  0  0  0  0
  7  8  1  0  0  0  0
  8  9  1  0  0  0  0
  9 10  1  0  0  0  0
 11 12  4  0  0  0  0
 11 16  4  0  0  0  0
 12 13  4  0  0  0  0
 13 14  4  0  0  0  0
 13 20  1  0  0  0  0
 14 15  4  0  0  0  0
 14 17  1  0  0  0  0
 15 16  4  0  0  0  0
 17 18  1  0  0  0  0
 17 24  1  0  0  0  0
 18 19  1  0  0  0  0
 19 20  1  0  0  0  0
 19 23  1  0  0  0  0
 20 21  1  0  0  0  0
 21 22  1  0  0  0  0
 22 23  1  0  0  0  0
 24 25  4  0  0  0  0
 24 31  4  0  0  0  0
 25 26  4  0  0  0  0
 26 27  4  0  0  0  0
 27 28  1  0  0  0  0
 27 30  4  0  0  0  0
 28 29  1  0  0  0  0
 30 31  4  0  0  0  0
M  END
>  <Name_Molregno>
400080

>  <HISTAMINE H3>
8.57

>  <Serotonin transporter>
8.48

$$$$
400087
  Marvin  02231216192D 0   1.00000     0.00000     0

 28 30  0  0  1  0  0  0  0  0999 V2000
    0.0622   -0.1165    0.0000 Cl  0  0  0  0  0  0  0  0  0
    0.8872   -0.1165    0.0000 C   0  0  0  0  0  0  0  0  0
    1.2997    0.5980    0.0000 C   0  0  0  0  0  0  0  0  0
    2.1247    0.5980    0.0000 C   0  0  0  0  0  0  0  0  0
    2.5372   -0.1165    0.0000 C   0  0  0  0  0  0  0  0  0
    2.1247   -0.8310    0.0000 C   0  0  0  0  0  0  0  0  0
    1.2997   -0.8310    0.0000 C   0  0  0  0  0  0  0  0  0
    0.8872   -1.5454    0.0000 Cl  0  0  0  0  0  0  0  0  0
    2.5372    1.3124    0.0000 C   0  0  0  0  0  0  0  0  0
    3.3622    1.3124    0.0000 C   0  0  0  0  0  0  0  0  0
    3.7747    2.0269    0.0000 C   0  0  0  0  0  0  0  0  0
    4.5997    2.0269    0.0000 C   0  0  0  0  0  0  0  0  0
    5.0122    1.3124    0.0000 C   0  0  0  0  0  0  0  0  0
    5.8372    1.3124    0.0000 O   0  0  0  0  0  0  0  0  0
    6.2497    0.5980    0.0000 C   0  0  0  0  0  0  0  0  0
    7.0747    0.5980    0.0000 C   0  0  0  0  0  0  0  0  0
    7.4872   -0.1165    0.0000 C   0  0  0  0  0  0  0  0  0
    8.3122   -0.1165    0.0000 N   0  0  0  0  0  0  0  0  0
    8.7247   -0.8310    0.0000 C   0  0  0  0  0  0  0  0  0
    9.5497   -0.8310    0.0000 C   0  0  0  0  0  0  0  0  0
    8.7247    0.5980    0.0000 C   0  0  0  0  0  0  0  0  0
    9.5497    0.5980    0.0000 C   0  0  0  0  0  0  0  0  0
    4.5997    0.5980    0.0000 N   0  0  0  0  0  0  0  0  0
    3.7747    0.5980    0.0000 C   0  0  0  0  0  0  0  0  0
    3.3622    2.7414    0.0000 C   0  0  0  0  0  0  0  0  0
    2.5372    2.7414    0.0000 N   0  0  0  0  0  0  0  0  0
    2.1247    2.0269    0.0000 C   0  0  0  0  0  0  0  0  0
    2.1247    3.4559    0.0000 C   0  0  0  0  0  0  0  0  0
  1  2  1  0  0  0  0
  2  3  4  0  0  0  0
  2  7  4  0  0  0  0
  3  4  4  0  0  0  0
  4  5  4  0  0  0  0
  4  9  1  0  0  0  0
  5  6  4  0  0  0  0
  6  7  4  0  0  0  0
  7  8  1  0  0  0  0
  9 10  1  0  0  0  0
  9 27  1  0  0  0  0
 10 11  4  0  0  0  0
 10 24  4  0  0  0  0
 11 12  4  0  0  0  0
 11 25  1  0  0  0  0
 12 13  4  0  0  0  0
 13 14  1  0  0  0  0
 13 23  4  0  0  0  0
 14 15  1  0  0  0  0
 15 16  1  0  0  0  0
 16 17  1  0  0  0  0
 17 18  1  0  0  0  0
 18 19  1  0  0  0  0
 18 21  1  0  0  0  0
 19 20  1  0  0  0  0
 21 22  1  0  0  0  0
 23 24  4  0  0  0  0
 25 26  1  0  0  0  0
 26 27  1  0  0  0  0
 26 28  1  0  0  0  0
M  END
>  <Name_Molregno>
400087

>  <HISTAMINE H3>
7.97

>  <Serotonin transporter>
7.56

$$$$
400105
  Marvin  02231216192D 0   1.00000     0.00000     0

 23 25  0  0  0  0  0  0  0  0999 V2000
   -5.1721   -5.6410    0.0000 O   0  0  0  0  0  0  0  0  0
   -5.8866   -5.2285    0.0000 C   0  0  0  0  0  0  0  0  0
   -5.8866   -4.4035    0.0000 C   0  0  0  0  0  0  0  0  0
   -5.1721   -3.9910    0.0000 N   0  0  0  0  0  0  0  0  0
   -4.4576   -4.4035    0.0000 C   0  0  0  0  0  0  0  0  0
   -4.4576   -5.2285    0.0000 C   0  0  0  0  0  0  0  0  0
   -5.1721   -3.1660    0.0000 C   0  0  0  0  0  0  0  0  0
   -4.4576   -2.7535    0.0000 C   0  0  0  0  0  0  0  0  0
   -4.4576   -1.9285    0.0000 C   0  0  0  0  0  0  0  0  0
   -3.7432   -1.5160    0.0000 C   0  0  0  0  0  0  0  0  0
   -3.0287   -1.9285    0.0000 C   0  0  0  0  0  0  0  0  0
   -3.0287   -2.7535    0.0000 C   0  0  0  0  0  0  0  0  0
   -3.7432   -3.1660    0.0000 C   0  0  0  0  0  0  0  0  0
   -3.7432   -0.6910    0.0000 C   0  0  0  0  0  0  0  0  0
   -3.7432    0.1340    0.0000 C   0  0  0  0  0  0  0  0  0
   -3.7432    0.9590    0.0000 C   0  0  0  0  0  0  0  0  0
   -4.4576    1.3715    0.0000 C   0  0  0  0  0  0  0  0  0
   -4.4576    2.1965    0.0000 N   0  0  0  0  0  0  0  0  0
   -5.1721    2.6090    0.0000 C   0  0  0  0  0  0  0  0  0
   -5.1721    3.4340    0.0000 C   0  0  0  0  0  0  0  0  0
   -4.4576    3.8465    0.0000 C   0  0  0  0  0  0  0  0  0
   -3.7432    3.4340    0.0000 C   0  0  0  0  0  0  0  0  0
   -3.7432    2.6090    0.0000 C   0  0  0  0  0  0  0  0  0
  1  2  1  0  0  0  0
  1  6  1  0  0  0  0
  2  3  1  0  0  0  0
  3  4  1  0  0  0  0
  4  5  1  0  0  0  0
  4  7  1  0  0  0  0
  5  6  1  0  0  0  0
  7  8  1  0  0  0  0
  8  9  4  0  0  0  0
  8 13  4  0  0  0  0
  9 10  4  0  0  0  0
 10 11  4  0  0  0  0
 10 14  1  0  0  0  0
 11 12  4  0  0  0  0
 12 13  4  0  0  0  0
 14 15  3  0  0  0  0
 15 16  1  0  0  0  0
 16 17  1  0  0  0  0
 17 18  1  0  0  0  0
 18 19  1  0  0  0  0
 18 23  1  0  0  0  0
 19 20  1  0  0  0  0
 20 21  1  0  0  0  0
 21 22  1  0  0  0  0
 22 23  1  0  0  0  0
M  END
>  <Name_Molregno>
400105

>  <HISTAMINE H3>
8.9

$$$$
400115
  Marvin  02231216192D 0   1.00000     0.00000     0

 19 20  0  0  0  0  0  0  0  0999 V2000
    3.0905    4.0017    0.0000 Br  0  0  0  0  0  0  0  0  0
    3.0905    3.1767    0.0000 C   0  0  0  0  0  0  0  0  0
    3.8050    2.7642    0.0000 C   0  0  0  0  0  0  0  0  0
    3.8050    1.9392    0.0000 C   0  0  0  0  0  0  0  0  0
    4.5194    1.5267    0.0000 C   0  0  0  0  0  0  0  0  0
    5.2339    1.9392    0.0000 N   0  0  0  0  0  0  0  0  0
    5.9484    1.5267    0.0000 C   0  0  0  0  0  0  0  0  0
    3.0905    1.5267    0.0000 C   0  0  0  0  0  0  0  0  0
    3.0905    0.7017    0.0000 O   0  0  0  0  0  0  0  0  0
    2.3760    0.2892    0.0000 C   0  0  0  0  0  0  0  0  0
    2.3760   -0.5358    0.0000 C   0  0  0  0  0  0  0  0  0
    1.6616   -0.9483    0.0000 C   0  0  0  0  0  0  0  0  0
    0.9471   -0.5358    0.0000 C   0  0  0  0  0  0  0  0  0
    0.2326   -0.9483    0.0000 S   0  0  0  0  0  0  0  0  0
    0.2326   -1.7733    0.0000 C   0  0  0  0  0  0  0  0  0
    0.9471    0.2892    0.0000 C   0  0  0  0  0  0  0  0  0
    1.6616    0.7017    0.0000 C   0  0  0  0  0  0  0  0  0
    2.3760    1.9392    0.0000 C   0  0  0  0  0  0  0  0  0
    2.3760    2.7642    0.0000 C   0  0  0  0  0  0  0  0  0
  1  2  1  0  0  0  0
  2  3  4  0  0  0  0
  2 19  4  0  0  0  0
  3  4  4  0  0  0  0
  4  5  1  0  0  0  0
  4  8  4  0  0  0  0
  5  6  1  0  0  0  0
  6  7  1  0  0  0  0
  8  9  1  0  0  0  0
  8 18  4  0  0  0  0
  9 10  1  0  0  0  0
 10 11  4  0  0  0  0
 10 17  4  0  0  0  0
 11 12  4  0  0  0  0
 12 13  4  0  0  0  0
 13 14  1  0  0  0  0
 13 16  4  0  0  0  0
 14 15  1  0  0  0  0
 16 17  4  0  0  0  0
 18 19  4  0  0  0  0
M  END
>  <Name_Molregno>
400115

>  <HISTAMINE H3>
5.05

>  <Serotonin transporter>
8.77

$$$$
400116
  Marvin  02231216192D 0   1.00000     0.00000     0

 28 30  0  0  0  0  0  0  0  0999 V2000
    0.3989    1.1344    0.0000 S   0  0  0  0  0  0  0  0  0
   -0.3155    1.5469    0.0000 C   0  0  0  0  0  0  0  0  0
    0.3989    0.3094    0.0000 C   0  0  0  0  0  0  0  0  0
    1.1134   -0.1031    0.0000 C   0  0  0  0  0  0  0  0  0
    1.1134   -0.9281    0.0000 C   0  0  0  0  0  0  0  0  0
    0.3989   -1.3406    0.0000 C   0  0  0  0  0  0  0  0  0
    0.3989   -2.1656    0.0000 O   0  0  0  0  0  0  0  0  0
   -0.3155   -2.5781    0.0000 C   0  0  0  0  0  0  0  0  0
   -0.3155   -3.4031    0.0000 C   0  0  0  0  0  0  0  0  0
   -1.0300   -3.8156    0.0000 C   0  0  0  0  0  0  0  0  0
   -1.7445   -3.4031    0.0000 C   0  0  0  0  0  0  0  0  0
   -1.7445   -2.5781    0.0000 C   0  0  0  0  0  0  0  0  0
   -1.0300   -2.1656    0.0000 C   0  0  0  0  0  0  0  0  0
   -1.0300   -1.3406    0.0000 C   0  0  0  0  0  0  0  0  0
   -1.7445   -0.9281    0.0000 N   0  0  0  0  0  0  0  0  0
   -1.7445   -0.1031    0.0000 C   0  0  0  0  0  0  0  0  0
   -1.0300   -4.6406    0.0000 C   0  0  0  0  0  0  0  0  0
   -1.0300   -5.4656    0.0000 C   0  0  0  0  0  0  0  0  0
   -1.0300   -6.2906    0.0000 C   0  0  0  0  0  0  0  0  0
   -0.3155   -6.7031    0.0000 C   0  0  0  0  0  0  0  0  0
   -0.3155   -7.5281    0.0000 N   0  0  0  0  0  0  0  0  0
    0.3989   -7.9406    0.0000 C   0  0  0  0  0  0  0  0  0
    0.3989   -8.7656    0.0000 C   0  0  0  0  0  0  0  0  0
   -0.3155   -9.1781    0.0000 O   0  0  0  0  0  0  0  0  0
   -1.0300   -8.7656    0.0000 C   0  0  0  0  0  0  0  0  0
   -1.0300   -7.9406    0.0000 C   0  0  0  0  0  0  0  0  0
   -0.3155   -0.9281    0.0000 C   0  0  0  0  0  0  0  0  0
   -0.3155   -0.1031    0.0000 C   0  0  0  0  0  0  0  0  0
  1  2  1  0  0  0  0
  1  3  1  0  0  0  0
  3  4  4  0  0  0  0
  3 28  4  0  0  0  0
  4  5  4  0  0  0  0
  5  6  4  0  0  0  0
  6  7  1  0  0  0  0
  6 27  4  0  0  0  0
  7  8  1  0  0  0  0
  8  9  4  0  0  0  0
  8 13  4  0  0  0  0
  9 10  4  0  0  0  0
 10 11  4  0  0  0  0
 10 17  1  0  0  0  0
 11 12  4  0  0  0  0
 12 13  4  0  0  0  0
 13 14  1  0  0  0  0
 14 15  1  0  0  0  0
 15 16  1  0  0  0  0
 17 18  3  0  0  0  0
 18 19  1  0  0  0  0
 19 20  1  0  0  0  0
 20 21  1  0  0  0  0
 21 22  1  0  0  0  0
 21 26  1  0  0  0  0
 22 23  1  0  0  0  0
 23 24  1  0  0  0  0
 24 25  1  0  0  0  0
 25 26  1  0  0  0  0
 27 28  4  0  0  0  0
M  END
>  <Name_Molregno>
400116

>  <HISTAMINE H3>
6.37

>  <Serotonin transporter>
8.47

$$$$
400117
  Marvin  02231216192D 0   1.00000     0.00000     0

 28 30  0  0  0  0  0  0  0  0999 V2000
   -0.2837    0.3540    0.0000 S   0  0  0  0  0  0  0  0  0
    0.4308    0.7665    0.0000 C   0  0  0  0  0  0  0  0  0
    1.1452    0.3540    0.0000 C   0  0  0  0  0  0  0  0  0
    1.1452   -0.4710    0.0000 N   0  0  0  0  0  0  0  0  0
    0.4308   -0.8835    0.0000 C   0  0  0  0  0  0  0  0  0
   -0.2837   -0.4710    0.0000 C   0  0  0  0  0  0  0  0  0
    1.8597   -0.8835    0.0000 C   0  0  0  0  0  0  0  0  0
    2.5742   -0.4710    0.0000 C   0  0  0  0  0  0  0  0  0
    3.2886   -0.8835    0.0000 C   0  0  0  0  0  0  0  0  0
    4.0031   -0.4710    0.0000 C   0  0  0  0  0  0  0  0  0
    4.7176   -0.8835    0.0000 C   0  0  0  0  0  0  0  0  0
    5.4321   -0.4710    0.0000 C   0  0  0  0  0  0  0  0  0
    6.1465   -0.8835    0.0000 C   0  0  0  0  0  0  0  0  0
    6.8610   -0.4710    0.0000 C   0  0  0  0  0  0  0  0  0
    6.8610    0.3540    0.0000 N   0  0  0  0  0  0  0  0  0
    7.5755    0.7665    0.0000 C   0  0  0  0  0  0  0  0  0
    6.1465   -1.7085    0.0000 C   0  0  0  0  0  0  0  0  0
    6.8610   -2.1210    0.0000 O   0  0  0  0  0  0  0  0  0
    7.5755   -1.7085    0.0000 C   0  0  0  0  0  0  0  0  0
    7.5755   -0.8835    0.0000 C   0  0  0  0  0  0  0  0  0
    8.2899   -0.4710    0.0000 C   0  0  0  0  0  0  0  0  0
    9.0044   -0.8835    0.0000 C   0  0  0  0  0  0  0  0  0
    9.7189   -0.4710    0.0000 S   0  0  0  0  0  0  0  0  0
    9.7189    0.3540    0.0000 C   0  0  0  0  0  0  0  0  0
    9.0044   -1.7085    0.0000 C   0  0  0  0  0  0  0  0  0
    8.2899   -2.1210    0.0000 C   0  0  0  0  0  0  0  0  0
    5.4321   -2.1210    0.0000 C   0  0  0  0  0  0  0  0  0
    4.7176   -1.7085    0.0000 C   0  0  0  0  0  0  0  0  0
  1  2  1  0  0  0  0
  1  6  1  0  0  0  0
  2  3  1  0  0  0  0
  3  4  1  0  0  0  0
  4  5  1  0  0  0  0
  4  7  1  0  0  0  0
  5  6  1  0  0  0  0
  7  8  1  0  0  0  0
  8  9  1  0  0  0  0
  9 10  1  0  0  0  0
 10 11  1  0  0  0  0
 11 12  4  0  0  0  0
 11 28  4  0  0  0  0
 12 13  4  0  0  0  0
 13 14  1  0  0  0  0
 13 17  4  0  0  0  0
 14 15  1  0  0  0  0
 15 16  1  0  0  0  0
 17 18  1  0  0  0  0
 17 27  4  0  0  0  0
 18 19  1  0  0  0  0
 19 20  4  0  0  0  0
 19 26  4  0  0  0  0
 20 21  4  0  0  0  0
 21 22  4  0  0  0  0
 22 23  1  0  0  0  0
 22 25  4  0  0  0  0
 23 24  1  0  0  0  0
 25 26  4  0  0  0  0
 27 28  4  0  0  0  0
M  END
>  <Name_Molregno>
400117

>  <HISTAMINE H3>
8.01

>  <Serotonin transporter>
8.72

$$$$
400118
  Marvin  02231216192D 0   1.00000     0.00000     0

 31 33  0  0  0  0  0  0  0  0999 V2000
   -9.4727    1.9558    0.0000 S   0  0  0  0  0  0  0  0  0
   -9.4727    1.1308    0.0000 C   0  0  0  0  0  0  0  0  0
   -8.7583    2.3683    0.0000 C   0  0  0  0  0  0  0  0  0
   -8.7583    3.1933    0.0000 C   0  0  0  0  0  0  0  0  0
   -8.0438    3.6058    0.0000 C   0  0  0  0  0  0  0  0  0
   -7.3293    3.1933    0.0000 C   0  0  0  0  0  0  0  0  0
   -6.6148    3.6058    0.0000 O   0  0  0  0  0  0  0  0  0
   -5.9004    3.1933    0.0000 C   0  0  0  0  0  0  0  0  0
   -5.1859    3.6058    0.0000 C   0  0  0  0  0  0  0  0  0
   -4.4714    3.1933    0.0000 C   0  0  0  0  0  0  0  0  0
   -4.4714    2.3683    0.0000 C   0  0  0  0  0  0  0  0  0
   -5.1859    1.9558    0.0000 C   0  0  0  0  0  0  0  0  0
   -5.9004    2.3683    0.0000 C   0  0  0  0  0  0  0  0  0
   -6.6148    1.9558    0.0000 C   0  0  0  0  0  0  0  0  0
   -6.6148    1.1308    0.0000 N   0  0  0  0  0  0  0  0  0
   -7.3293    0.7183    0.0000 C   0  0  0  0  0  0  0  0  0
   -3.7570    1.9558    0.0000 C   0  0  0  0  0  0  0  0  0
   -3.0425    2.3683    0.0000 C   0  0  0  0  0  0  0  0  0
   -2.3280    1.9558    0.0000 C   0  0  0  0  0  0  0  0  0
   -1.6135    2.3683    0.0000 C   0  0  0  0  0  0  0  0  0
   -0.8991    1.9558    0.0000 N   0  0  0  0  0  0  0  0  0
   -0.1846    2.3683    0.0000 C   0  0  0  0  0  0  0  0  0
    0.5299    1.9558    0.0000 C   0  0  0  0  0  0  0  0  0
    0.5299    1.1308    0.0000 N   0  0  0  0  0  0  0  0  0
   -0.1846    0.7183    0.0000 C   0  0  0  0  0  0  0  0  0
   -0.8991    1.1308    0.0000 C   0  0  0  0  0  0  0  0  0
    1.2443    0.7183    0.0000 C   0  0  0  0  0  0  0  0  0
    1.9588    1.1308    0.0000 C   0  0  0  0  0  0  0  0  0
    1.2443   -0.1067    0.0000 C   0  0  0  0  0  0  0  0  0
   -7.3293    2.3683    0.0000 C   0  0  0  0  0  0  0  0  0
   -8.0438    1.9558    0.0000 C   0  0  0  0  0  0  0  0  0
  1  2  1  0  0  0  0
  1  3  1  0  0  0  0
  3  4  4  0  0  0  0
  3 31  4  0  0  0  0
  4  5  4  0  0  0  0
  5  6  4  0  0  0  0
  6  7  1  0  0  0  0
  6 30  4  0  0  0  0
  7  8  1  0  0  0  0
  8  9  4  0  0  0  0
  8 13  4  0  0  0  0
  9 10  4  0  0  0  0
 10 11  4  0  0  0  0
 11 12  4  0  0  0  0
 11 17  1  0  0  0  0
 12 13  4  0  0  0  0
 13 14  1  0  0  0  0
 14 15  1  0  0  0  0
 15 16  1  0  0  0  0
 17 18  1  0  0  0  0
 18 19  1  0  0  0  0
 19 20  1  0  0  0  0
 20 21  1  0  0  0  0
 21 22  1  0  0  0  0
 21 26  1  0  0  0  0
 22 23  1  0  0  0  0
 23 24  1  0  0  0  0
 24 25  1  0  0  0  0
 24 27  1  0  0  0  0
 25 26  1  0  0  0  0
 27 28  1  0  0  0  0
 27 29  1  0  0  0  0
 30 31  4  0  0  0  0
M  END
>  <Name_Molregno>
400118

>  <HISTAMINE H3>
8.28

>  <Serotonin transporter>
8.85

$$$$
400119
  Marvin  02231216192D 0   1.00000     0.00000     0

 31 34  0  0  0  0  0  0  0  0999 V2000
   -6.9799    2.4153    0.0000 S   0  0  0  0  0  0  0  0  0
   -7.6943    2.0028    0.0000 C   0  0  0  0  0  0  0  0  0
   -6.2654    2.0028    0.0000 C   0  0  0  0  0  0  0  0  0
   -5.5509    2.4153    0.0000 C   0  0  0  0  0  0  0  0  0
   -4.8364    2.0028    0.0000 C   0  0  0  0  0  0  0  0  0
   -4.8364    1.1778    0.0000 C   0  0  0  0  0  0  0  0  0
   -4.1220    0.7653    0.0000 O   0  0  0  0  0  0  0  0  0
   -4.1220   -0.0597    0.0000 C   0  0  0  0  0  0  0  0  0
   -3.4075   -0.4722    0.0000 C   0  0  0  0  0  0  0  0  0
   -3.4075   -1.2972    0.0000 C   0  0  0  0  0  0  0  0  0
   -4.1220   -1.7097    0.0000 C   0  0  0  0  0  0  0  0  0
   -4.8364   -1.2972    0.0000 C   0  0  0  0  0  0  0  0  0
   -4.8364   -0.4722    0.0000 C   0  0  0  0  0  0  0  0  0
   -5.5509   -0.0597    0.0000 C   0  0  0  0  0  0  0  0  0
   -6.2654   -0.4722    0.0000 N   0  0  0  0  0  0  0  0  0
   -6.9799   -0.0597    0.0000 C   0  0  0  0  0  0  0  0  0
   -4.1220   -2.5347    0.0000 C   0  0  0  0  0  0  0  0  0
   -3.4075   -2.9472    0.0000 C   0  0  0  0  0  0  0  0  0
   -3.4075   -3.7722    0.0000 C   0  0  0  0  0  0  0  0  0
   -2.6930   -4.1847    0.0000 C   0  0  0  0  0  0  0  0  0
   -2.6930   -5.0097    0.0000 N   0  0  0  0  0  0  0  0  0
   -1.9786   -5.4222    0.0000 C   0  0  0  0  0  0  0  0  0
   -1.9786   -6.2472    0.0000 C   0  0  0  0  0  0  0  0  0
   -2.6930   -6.6597    0.0000 N   0  0  0  0  0  0  0  0  0
   -3.4075   -6.2472    0.0000 C   0  0  0  0  0  0  0  0  0
   -3.4075   -5.4222    0.0000 C   0  0  0  0  0  0  0  0  0
   -2.6930   -7.4847    0.0000 C   0  0  0  0  0  0  0  0  0
   -2.2805   -8.1992    0.0000 C   0  0  0  0  0  0  0  0  0
   -3.1055   -8.1992    0.0000 C   0  0  0  0  0  0  0  0  0
   -5.5509    0.7653    0.0000 C   0  0  0  0  0  0  0  0  0
   -6.2654    1.1778    0.0000 C   0  0  0  0  0  0  0  0  0
  1  2  1  0  0  0  0
  1  3  1  0  0  0  0
  3  4  4  0  0  0  0
  3 31  4  0  0  0  0
  4  5  4  0  0  0  0
  5  6  4  0  0  0  0
  6  7  1  0  0  0  0
  6 30  4  0  0  0  0
  7  8  1  0  0  0  0
  8  9  4  0  0  0  0
  8 13  4  0  0  0  0
  9 10  4  0  0  0  0
 10 11  4  0  0  0  0
 11 12  4  0  0  0  0
 11 17  1  0  0  0  0
 12 13  4  0  0  0  0
 13 14  1  0  0  0  0
 14 15  1  0  0  0  0
 15 16  1  0  0  0  0
 17 18  1  0  0  0  0
 18 19  1  0  0  0  0
 19 20  1  0  0  0  0
 20 21  1  0  0  0  0
 21 22  1  0  0  0  0
 21 26  1  0  0  0  0
 22 23  1  0  0  0  0
 23 24  1  0  0  0  0
 24 25  1  0  0  0  0
 24 27  1  0  0  0  0
 25 26  1  0  0  0  0
 27 28  1  0  0  0  0
 27 29  1  0  0  0  0
 28 29  1  0  0  0  0
 30 31  4  0  0  0  0
M  END
>  <Name_Molregno>
400119

>  <HISTAMINE H3>
8.33

>  <Serotonin transporter>
8.7

$$$$
401982
  Marvin  02231216192D 0   1.00000     0.00000     0

 29 31  0  0  1  0  0  0  0  0999 V2000
   -2.5854    1.7087    0.0000 O   0  0  0  0  0  0  0  0  0
   -1.8709    1.2962    0.0000 C   0  0  0  0  0  0  0  0  0
   -1.1564    1.7087    0.0000 C   0  0  0  0  0  0  0  0  0
   -0.4419    1.2962    0.0000 C   0  0  0  0  0  0  0  0  0
    0.2725    1.7087    0.0000 N   0  0  0  0  0  0  0  0  0
    0.2725    2.5337    0.0000 C   0  0  0  0  0  0  0  0  0
    0.9870    1.2962    0.0000 C   0  0  0  0  0  0  0  0  0
   -1.8709    0.4712    0.0000 C   0  0  0  0  0  0  0  0  0
   -1.1564    0.0587    0.0000 C   0  0  0  0  0  0  0  0  0
   -1.1564   -0.7663    0.0000 C   0  0  0  0  0  0  0  0  0
   -1.8709   -1.1788    0.0000 C   0  0  0  0  0  0  0  0  0
   -1.8709   -2.0038    0.0000 O   0  0  0  0  0  0  0  0  0
   -2.5854   -2.4163    0.0000 C   0  0  0  0  0  0  0  0  0
   -2.5854   -3.2413    0.0000 C   0  0  0  0  0  0  0  0  0
   -3.2998   -3.6538    0.0000 C   0  0  0  0  0  0  0  0  0
   -3.2998   -4.4788    0.0000 N   0  0  0  0  0  0  0  0  0
   -2.5854   -4.8913    0.0000 C   0  0  0  0  0  0  0  0  0
   -2.5854   -5.7163    0.0000 C   0  0  0  0  0  0  0  0  0
   -3.2998   -6.1288    0.0000 C   0  0  0  0  0  0  0  0  0
   -4.0143   -5.7163    0.0000 C   0  0  0  0  0  0  0  0  0
   -4.0143   -4.8913    0.0000 C   0  0  0  0  0  0  0  0  0
   -2.5854   -0.7663    0.0000 C   0  0  0  0  0  0  0  0  0
   -2.5854    0.0587    0.0000 C   0  0  0  0  0  0  0  0  0
   -2.5854    2.5337    0.0000 C   0  0  0  0  0  0  0  0  0
   -3.2998    2.9462    0.0000 C   0  0  0  0  0  0  0  0  0
   -3.2998    3.7712    0.0000 C   0  0  0  0  0  0  0  0  0
   -2.5854    4.1837    0.0000 C   0  0  0  0  0  0  0  0  0
   -1.8709    3.7712    0.0000 C   0  0  0  0  0  0  0  0  0
   -1.8709    2.9462    0.0000 C   0  0  0  0  0  0  0  0  0
  1  2  1  0  0  0  0
  1 24  1  0  0  0  0
  2  3  1  0  0  0  0
  2  8  1  0  0  0  0
  3  4  1  0  0  0  0
  4  5  1  0  0  0  0
  5  6  1  0  0  0  0
  5  7  1  0  0  0  0
  8  9  4  0  0  0  0
  8 23  4  0  0  0  0
  9 10  4  0  0  0  0
 10 11  4  0  0  0  0
 11 12  1  0  0  0  0
 11 22  4  0  0  0  0
 12 13  1  0  0  0  0
 13 14  1  0  0  0  0
 14 15  1  0  0  0  0
 15 16  1  0  0  0  0
 16 17  1  0  0  0  0
 16 21  1  0  0  0  0
 17 18  1  0  0  0  0
 18 19  1  0  0  0  0
 19 20  1  0  0  0  0
 20 21  1  0  0  0  0
 22 23  4  0  0  0  0
 24 25  4  0  0  0  0
 24 29  4  0  0  0  0
 25 26  4  0  0  0  0
 26 27  4  0  0  0  0
 27 28  4  0  0  0  0
 28 29  4  0  0  0  0
M  END
>  <Name_Molregno>
401982

>  <HISTAMINE H3>
9.21

>  <Norepinephrine transporter>
6.7

>  <Serotonin transporter>
8.11

$$$$
401983
  Marvin  02231216192D 0   1.00000     0.00000     0

 31 35  0  0  1  0  0  0  0  0999 V2000
   -2.6923   -7.0049    0.0000 S   0  0  0  0  0  0  0  0  0
   -1.8677   -7.0307    0.0000 C   0  0  0  0  0  0  0  0  0
   -3.0823   -6.2779    0.0000 C   0  0  0  0  0  0  0  0  0
   -3.9069   -6.2521    0.0000 C   0  0  0  0  0  0  0  0  0
   -4.2969   -5.5251    0.0000 C   0  0  0  0  0  0  0  0  0
   -3.8623   -4.8239    0.0000 C   0  0  0  0  0  0  0  0  0
   -3.0377   -4.8496    0.0000 C   0  0  0  0  0  0  0  0  0
   -2.6477   -5.5766    0.0000 C   0  0  0  0  0  0  0  0  0
   -4.2522   -4.0969    0.0000 C   0  0  0  0  0  0  0  0  0
   -3.8176   -3.3956    0.0000 C   0  0  0  0  0  0  0  0  0
   -4.2076   -2.6686    0.0000 C   0  0  0  0  0  0  0  0  0
   -3.7730   -1.9674    0.0000 C   0  0  0  0  0  0  0  0  0
   -2.9484   -1.9931    0.0000 C   0  0  0  0  0  0  0  0  0
   -2.5138   -1.2919    0.0000 O   0  0  0  0  0  0  0  0  0
   -2.9038   -0.5649    0.0000 C   0  0  0  0  0  0  0  0  0
   -2.4692    0.1363    0.0000 C   0  0  0  0  0  0  0  0  0
   -2.8592    0.8633    0.0000 C   0  0  0  0  0  0  0  0  0
   -2.4246    1.5646    0.0000 N   0  0  0  0  0  0  0  0  0
   -2.8145    2.2916    0.0000 C   0  0  0  0  0  0  0  0  0
   -2.3799    2.9928    0.0000 C   0  0  0  0  0  0  0  0  0
   -1.5553    2.9671    0.0000 C   0  0  0  0  0  0  0  0  0
   -1.1654    2.2401    0.0000 C   0  0  0  0  0  0  0  0  0
   -1.6000    1.5388    0.0000 C   0  0  0  0  0  0  0  0  0
   -2.5584   -2.7202    0.0000 C   0  0  0  0  0  0  0  0  0
   -2.9930   -3.4214    0.0000 C   0  0  0  0  0  0  0  0  0
   -5.0322   -2.6429    0.0000 C   0  0  0  0  0  0  0  0  0
   -5.4668   -3.3441    0.0000 N   0  0  0  0  0  0  0  0  0
   -5.0768   -4.0711    0.0000 C   0  0  0  0  0  0  0  0  0
   -6.2681   -3.1475    0.0000 C   0  0  0  0  0  0  0  0  0
   -6.3286   -2.3247    0.0000 C   0  0  0  0  0  0  0  0  0
   -5.5648   -2.0128    0.0000 C   0  0  0  0  0  0  0  0  0
  1  2  1  0  0  0  0
  1  3  1  0  0  0  0
  3  4  4  0  0  0  0
  3  8  4  0  0  0  0
  4  5  4  0  0  0  0
  5  6  4  0  0  0  0
  6  7  4  0  0  0  0
  6  9  1  0  0  0  0
  7  8  4  0  0  0  0
  9 10  1  0  0  0  0
  9 28  1  0  0  0  0
 10 11  4  0  0  0  0
 10 25  4  0  0  0  0
 11 12  4  0  0  0  0
 11 26  1  0  0  0  0
 12 13  4  0  0  0  0
 13 14  1  0  0  0  0
 13 24  4  0  0  0  0
 14 15  1  0  0  0  0
 15 16  1  0  0  0  0
 16 17  1  0  0  0  0
 17 18  1  0  0  0  0
 18 19  1  0  0  0  0
 18 23  1  0  0  0  0
 19 20  1  0  0  0  0
 20 21  1  0  0  0  0
 21 22  1  0  0  0  0
 22 23  1  0  0  0  0
 24 25  4  0  0  0  0
 26 27  1  0  0  0  0
 26 31  1  0  0  0  0
 27 28  1  0  0  0  0
 27 29  1  0  0  0  0
 29 30  1  0  0  0  0
 30 31  1  0  0  0  0
M  END
>  <Name_Molregno>
401983

>  <HISTAMINE H3>
8.44

>  <Serotonin transporter>
8.44

$$$$
401984
  Marvin  02231216192D 0   1.00000     0.00000     0

 29 32  0  0  1  0  0  0  0  0999 V2000
   -6.1879   -3.6353    0.0000 O   0  0  0  0  0  0  0  0  0
   -5.4734   -4.0478    0.0000 C   0  0  0  0  0  0  0  0  0
   -6.1879   -2.8103    0.0000 C   0  0  0  0  0  0  0  0  0
   -6.9023   -2.3978    0.0000 C   0  0  0  0  0  0  0  0  0
   -6.9023   -1.5728    0.0000 C   0  0  0  0  0  0  0  0  0
   -6.1879   -1.1603    0.0000 C   0  0  0  0  0  0  0  0  0
   -5.4734   -1.5728    0.0000 C   0  0  0  0  0  0  0  0  0
   -5.4734   -2.3978    0.0000 C   0  0  0  0  0  0  0  0  0
   -6.1879   -0.3353    0.0000 C   0  0  0  0  0  0  0  0  0
   -5.4734    0.0772    0.0000 C   0  0  0  0  0  0  0  0  0
   -5.4734    0.9022    0.0000 C   0  0  0  0  0  0  0  0  0
   -4.7589    1.3147    0.0000 C   0  0  0  0  0  0  0  0  0
   -4.0445    0.9022    0.0000 C   0  0  0  0  0  0  0  0  0
   -3.3300    1.3147    0.0000 O   0  0  0  0  0  0  0  0  0
   -3.3300    2.1397    0.0000 C   0  0  0  0  0  0  0  0  0
   -2.6155    2.5522    0.0000 C   0  0  0  0  0  0  0  0  0
   -2.6155    3.3772    0.0000 C   0  0  0  0  0  0  0  0  0
   -1.9010    3.7897    0.0000 N   0  0  0  0  0  0  0  0  0
   -1.9010    4.6147    0.0000 C   0  0  0  0  0  0  0  0  0
   -1.1866    5.0272    0.0000 C   0  0  0  0  0  0  0  0  0
   -0.4721    4.6147    0.0000 C   0  0  0  0  0  0  0  0  0
   -0.4721    3.7897    0.0000 C   0  0  0  0  0  0  0  0  0
   -1.1866    3.3772    0.0000 C   0  0  0  0  0  0  0  0  0
   -4.0445    0.0772    0.0000 N   0  0  0  0  0  0  0  0  0
   -4.7589   -0.3353    0.0000 C   0  0  0  0  0  0  0  0  0
   -6.1879    1.3147    0.0000 C   0  0  0  0  0  0  0  0  0
   -6.9023    0.9022    0.0000 N   0  0  0  0  0  0  0  0  0
   -6.9023    0.0772    0.0000 C   0  0  0  0  0  0  0  0  0
   -7.6168    1.3147    0.0000 C   0  0  0  0  0  0  0  0  0
  1  2  1  0  0  0  0
  1  3  1  0  0  0  0
  3  4  4  0  0  0  0
  3  8  4  0  0  0  0
  4  5  4  0  0  0  0
  5  6  4  0  0  0  0
  6  7  4  0  0  0  0
  6  9  1  0  0  0  0
  7  8  4  0  0  0  0
  9 10  1  0  0  0  0
  9 28  1  0  0  0  0
 10 11  4  0  0  0  0
 10 25  4  0  0  0  0
 11 12  4  0  0  0  0
 11 26  1  0  0  0  0
 12 13  4  0  0  0  0
 13 14  1  0  0  0  0
 13 24  4  0  0  0  0
 14 15  1  0  0  0  0
 15 16  1  0  0  0  0
 16 17  1  0  0  0  0
 17 18  1  0  0  0  0
 18 19  1  0  0  0  0
 18 23  1  0  0  0  0
 19 20  1  0  0  0  0
 20 21  1  0  0  0  0
 21 22  1  0  0  0  0
 22 23  1  0  0  0  0
 24 25  4  0  0  0  0
 26 27  1  0  0  0  0
 27 28  1  0  0  0  0
 27 29  1  0  0  0  0
M  END
>  <Name_Molregno>
401984

>  <HISTAMINE H3>
7.92

>  <Serotonin transporter>
7.21

$$$$
403068
  Marvin  02231216192D 0   1.00000     0.00000     0

 33 37  0  0  1  0  0  0  0  0999 V2000
   -8.9562   -5.0045    0.0000 O   0  0  0  0  0  0  0  0  0
   -8.4713   -5.6720    0.0000 C   0  0  0  0  0  0  0  0  0
   -8.8068   -6.4257    0.0000 C   0  0  0  0  0  0  0  0  0
   -8.6206   -4.2509    0.0000 C   0  0  0  0  0  0  0  0  0
   -9.1056   -3.5834    0.0000 N   0  0  0  0  0  0  0  0  0
   -8.7700   -2.8297    0.0000 N   0  0  0  0  0  0  0  0  0
   -7.9495   -2.7435    0.0000 C   0  0  0  0  0  0  0  0  0
   -7.6140   -1.9898    0.0000 N   0  0  0  0  0  0  0  0  0
   -8.0265   -1.2754    0.0000 N   0  0  0  0  0  0  0  0  0
   -7.4744   -0.6623    0.0000 C   0  0  0  0  0  0  0  0  0
   -6.7208   -0.9978    0.0000 C   0  0  0  0  0  0  0  0  0
   -6.0063   -0.5853    0.0000 C   0  0  0  0  0  0  0  0  0
   -5.2918   -0.9978    0.0000 N   0  0  0  0  0  0  0  0  0
   -4.5773   -0.5853    0.0000 C   0  0  0  0  0  0  0  0  0
   -4.5773    0.2397    0.0000 C   0  0  0  0  0  0  0  0  0
   -3.8629    0.6522    0.0000 C   0  0  0  0  0  0  0  0  0
   -3.1484    0.2397    0.0000 C   0  0  0  0  0  0  0  0  0
   -3.1484   -0.5853    0.0000 C   0  0  0  0  0  0  0  0  0
   -3.8629   -0.9978    0.0000 C   0  0  0  0  0  0  0  0  0
   -2.4339    0.6522    0.0000 C   0  0  0  0  0  0  0  0  0
   -2.4339    1.4772    0.0000 C   0  0  0  0  0  0  0  0  0
   -1.7195    1.8897    0.0000 N   0  0  0  0  0  0  0  0  0
   -1.6332    2.7102    0.0000 C   0  0  0  0  0  0  0  0  0
   -0.8263    2.8817    0.0000 C   0  0  0  0  0  0  0  0  0
   -0.4138    2.1672    0.0000 C   0  0  0  0  0  0  0  0  0
   -0.9658    1.5541    0.0000 C   0  0  0  0  0  0  0  0  0
   -0.7943    0.7471    0.0000 C   0  0  0  0  0  0  0  0  0
   -5.2918    0.6522    0.0000 C   0  0  0  0  0  0  0  0  0
   -6.0063    0.2397    0.0000 C   0  0  0  0  0  0  0  0  0
   -6.8070   -1.8183    0.0000 C   0  0  0  0  0  0  0  0  0
   -6.1939   -2.3703    0.0000 C   0  0  0  0  0  0  0  0  0
   -7.4646   -3.4110    0.0000 C   0  0  0  0  0  0  0  0  0
   -7.8002   -4.1646    0.0000 C   0  0  0  0  0  0  0  0  0
  1  2  1  0  0  0  0
  1  4  1  0  0  0  0
  2  3  1  0  0  0  0
  4  5  4  0  0  0  0
  4 33  4  0  0  0  0
  5  6  4  0  0  0  0
  6  7  4  0  0  0  0
  7  8  1  0  0  0  0
  7 32  4  0  0  0  0
  8  9  4  0  0  0  0
  8 30  4  0  0  0  0
  9 10  4  0  0  0  0
 10 11  4  0  0  0  0
 11 12  1  0  0  0  0
 11 30  4  0  0  0  0
 12 13  4  0  0  0  0
 12 29  4  0  0  0  0
 13 14  4  0  0  0  0
 14 15  4  0  0  0  0
 14 19  4  0  0  0  0
 15 16  4  0  0  0  0
 15 28  4  0  0  0  0
 16 17  4  0  0  0  0
 17 18  4  0  0  0  0
 17 20  1  0  0  0  0
 18 19  4  0  0  0  0
 20 21  1  0  0  0  0
 21 22  1  0  0  0  0
 22 23  1  0  0  0  0
 22 26  1  0  0  0  0
 23 24  1  0  0  0  0
 24 25  1  0  0  0  0
 25 26  1  0  0  0  0
 26 27  1  0  0  0  0
 28 29  4  0  0  0  0
 30 31  1  0  0  0  0
 32 33  4  0  0  0  0
M  END
>  <Name_Molregno>
403068

>  <HISTAMINE H3>
9.72

$$$$
403091
  Marvin  02231216192D 0   1.00000     0.00000     0

 30 34  0  0  1  0  0  0  0  0999 V2000
   -0.0032   -0.0178    0.0000 N   0  0  0  0  0  0  0  0  0
    0.7112    0.3947    0.0000 C   0  0  0  0  0  0  0  0  0
    0.7112    1.2197    0.0000 C   0  0  0  0  0  0  0  0  0
    1.4257    1.6322    0.0000 C   0  0  0  0  0  0  0  0  0
    2.1402    1.2197    0.0000 C   0  0  0  0  0  0  0  0  0
    2.1402    0.3947    0.0000 C   0  0  0  0  0  0  0  0  0
    1.4257   -0.0178    0.0000 C   0  0  0  0  0  0  0  0  0
    2.8546    1.6322    0.0000 C   0  0  0  0  0  0  0  0  0
    3.5691    1.2197    0.0000 C   0  0  0  0  0  0  0  0  0
    4.2836    1.6322    0.0000 N   0  0  0  0  0  0  0  0  0
    4.3698    2.4526    0.0000 C   0  0  0  0  0  0  0  0  0
    5.1768    2.6242    0.0000 C   0  0  0  0  0  0  0  0  0
    5.5893    1.9097    0.0000 C   0  0  0  0  0  0  0  0  0
    5.0373    1.2966    0.0000 C   0  0  0  0  0  0  0  0  0
    5.2088    0.4896    0.0000 C   0  0  0  0  0  0  0  0  0
   -0.0032    1.6322    0.0000 C   0  0  0  0  0  0  0  0  0
   -0.7177    1.2197    0.0000 C   0  0  0  0  0  0  0  0  0
   -0.7177    0.3947    0.0000 C   0  0  0  0  0  0  0  0  0
   -1.4322   -0.0178    0.0000 C   0  0  0  0  0  0  0  0  0
   -1.5184   -0.8383    0.0000 C   0  0  0  0  0  0  0  0  0
   -2.3254   -1.0099    0.0000 N   0  0  0  0  0  0  0  0  0
   -2.7379   -0.2954    0.0000 N   0  0  0  0  0  0  0  0  0
   -2.1859    0.3177    0.0000 C   0  0  0  0  0  0  0  0  0
   -2.3574    1.1247    0.0000 C   0  0  0  0  0  0  0  0  0
   -3.5584   -0.2091    0.0000 C   0  0  0  0  0  0  0  0  0
   -4.0433   -0.8766    0.0000 N   0  0  0  0  0  0  0  0  0
   -4.8638   -0.7903    0.0000 C   0  0  0  0  0  0  0  0  0
   -5.1993   -0.0367    0.0000 C   0  0  0  0  0  0  0  0  0
   -4.7144    0.6308    0.0000 C   0  0  0  0  0  0  0  0  0
   -3.8939    0.5445    0.0000 C   0  0  0  0  0  0  0  0  0
  1  2  4  0  0  0  0
  1 18  4  0  0  0  0
  2  3  4  0  0  0  0
  2  7  4  0  0  0  0
  3  4  4  0  0  0  0
  3 16  4  0  0  0  0
  4  5  4  0  0  0  0
  5  6  4  0  0  0  0
  5  8  1  0  0  0  0
  6  7  4  0  0  0  0
  8  9  1  0  0  0  0
  9 10  1  0  0  0  0
 10 11  1  0  0  0  0
 10 14  1  0  0  0  0
 11 12  1  0  0  0  0
 12 13  1  0  0  0  0
 13 14  1  0  0  0  0
 14 15  1  0  0  0  0
 16 17  4  0  0  0  0
 17 18  4  0  0  0  0
 18 19  1  0  0  0  0
 19 20  4  0  0  0  0
 19 23  4  0  0  0  0
 20 21  4  0  0  0  0
 21 22  4  0  0  0  0
 22 23  4  0  0  0  0
 22 25  1  0  0  0  0
 23 24  1  0  0  0  0
 25 26  4  0  0  0  0
 25 30  4  0  0  0  0
 26 27  4  0  0  0  0
 27 28  4  0  0  0  0
 28 29  4  0  0  0  0
 29 30  4  0  0  0  0
M  END
>  <Name_Molregno>
403091

>  <HISTAMINE H3>
9.59

$$$$
403093
  Marvin  02231216192D 0   1.00000     0.00000     0

 30 34  0  0  1  0  0  0  0  0999 V2000
   -5.9583   -0.2958    0.0000 N   0  0  0  0  0  0  0  0  0
   -5.2438    0.1167    0.0000 C   0  0  0  0  0  0  0  0  0
   -5.2438    0.9417    0.0000 C   0  0  0  0  0  0  0  0  0
   -4.5293   -0.2958    0.0000 C   0  0  0  0  0  0  0  0  0
   -4.5293   -1.1208    0.0000 C   0  0  0  0  0  0  0  0  0
   -5.2438   -1.5333    0.0000 N   0  0  0  0  0  0  0  0  0
   -5.9583   -1.1208    0.0000 C   0  0  0  0  0  0  0  0  0
   -6.6728   -1.5333    0.0000 N   0  0  0  0  0  0  0  0  0
   -6.7590   -2.3538    0.0000 C   0  0  0  0  0  0  0  0  0
   -7.5660   -2.5253    0.0000 C   0  0  0  0  0  0  0  0  0
   -7.9785   -1.8108    0.0000 C   0  0  0  0  0  0  0  0  0
   -7.4264   -1.1977    0.0000 C   0  0  0  0  0  0  0  0  0
   -3.8149    0.1167    0.0000 C   0  0  0  0  0  0  0  0  0
   -3.1004   -0.2958    0.0000 N   0  0  0  0  0  0  0  0  0
   -2.3859    0.1167    0.0000 C   0  0  0  0  0  0  0  0  0
   -2.3859    0.9417    0.0000 C   0  0  0  0  0  0  0  0  0
   -1.6715    1.3542    0.0000 C   0  0  0  0  0  0  0  0  0
   -0.9570    0.9417    0.0000 C   0  0  0  0  0  0  0  0  0
   -0.9570    0.1167    0.0000 C   0  0  0  0  0  0  0  0  0
   -1.6715   -0.2958    0.0000 C   0  0  0  0  0  0  0  0  0
   -0.2425    1.3542    0.0000 C   0  0  0  0  0  0  0  0  0
   -0.2425    2.1792    0.0000 C   0  0  0  0  0  0  0  0  0
    0.4720    2.5917    0.0000 N   0  0  0  0  0  0  0  0  0
    0.5582    3.4122    0.0000 C   0  0  0  0  0  0  0  0  0
    1.3652    3.5837    0.0000 C   0  0  0  0  0  0  0  0  0
    1.7777    2.8693    0.0000 C   0  0  0  0  0  0  0  0  0
    1.2256    2.2562    0.0000 C   0  0  0  0  0  0  0  0  0
    1.3972    1.4492    0.0000 C   0  0  0  0  0  0  0  0  0
   -3.1004    1.3542    0.0000 C   0  0  0  0  0  0  0  0  0
   -3.8149    0.9417    0.0000 C   0  0  0  0  0  0  0  0  0
  1  2  4  0  0  0  0
  1  7  4  0  0  0  0
  2  3  1  0  0  0  0
  2  4  4  0  0  0  0
  4  5  4  0  0  0  0
  4 13  1  0  0  0  0
  5  6  4  0  0  0  0
  6  7  4  0  0  0  0
  7  8  1  0  0  0  0
  8  9  1  0  0  0  0
  8 12  1  0  0  0  0
  9 10  1  0  0  0  0
 10 11  1  0  0  0  0
 11 12  1  0  0  0  0
 13 14  4  0  0  0  0
 13 30  4  0  0  0  0
 14 15  4  0  0  0  0
 15 16  4  0  0  0  0
 15 20  4  0  0  0  0
 16 17  4  0  0  0  0
 16 29  4  0  0  0  0
 17 18  4  0  0  0  0
 18 19  4  0  0  0  0
 18 21  1  0  0  0  0
 19 20  4  0  0  0  0
 21 22  1  0  0  0  0
 22 23  1  0  0  0  0
 23 24  1  0  0  0  0
 23 27  1  0  0  0  0
 24 25  1  0  0  0  0
 25 26  1  0  0  0  0
 26 27  1  0  0  0  0
 27 28  1  0  0  0  0
 29 30  4  0  0  0  0
M  END
>  <Name_Molregno>
403093

>  <HISTAMINE H3>
9.54

$$$$
403095
  Marvin  02231216192D 0   1.00000     0.00000     0

 29 33  0  0  1  0  0  0  0  0999 V2000
    0.4488   -2.1819    0.0000 N   0  0  0  0  0  0  0  0  0
    0.2773   -2.9889    0.0000 N   0  0  0  0  0  0  0  0  0
   -0.5432   -3.0751    0.0000 C   0  0  0  0  0  0  0  0  0
   -0.8787   -2.3215    0.0000 C   0  0  0  0  0  0  0  0  0
   -0.2656   -1.7694    0.0000 C   0  0  0  0  0  0  0  0  0
   -0.2656   -0.9444    0.0000 N   0  0  0  0  0  0  0  0  0
    0.4488   -0.5319    0.0000 C   0  0  0  0  0  0  0  0  0
    1.1633   -0.9444    0.0000 C   0  0  0  0  0  0  0  0  0
    1.8778   -0.5319    0.0000 C   0  0  0  0  0  0  0  0  0
    2.5922   -0.9444    0.0000 N   0  0  0  0  0  0  0  0  0
    3.3067   -0.5319    0.0000 C   0  0  0  0  0  0  0  0  0
    3.3067    0.2931    0.0000 C   0  0  0  0  0  0  0  0  0
    4.0212    0.7056    0.0000 C   0  0  0  0  0  0  0  0  0
    4.7357    0.2931    0.0000 C   0  0  0  0  0  0  0  0  0
    4.7357   -0.5319    0.0000 C   0  0  0  0  0  0  0  0  0
    4.0212   -0.9444    0.0000 C   0  0  0  0  0  0  0  0  0
    5.4501    0.7056    0.0000 C   0  0  0  0  0  0  0  0  0
    6.1646    0.2931    0.0000 C   0  0  0  0  0  0  0  0  0
    6.8791    0.7056    0.0000 N   0  0  0  0  0  0  0  0  0
    6.9653    1.5261    0.0000 C   0  0  0  0  0  0  0  0  0
    7.7723    1.6976    0.0000 C   0  0  0  0  0  0  0  0  0
    8.1848    0.9831    0.0000 C   0  0  0  0  0  0  0  0  0
    7.6327    0.3700    0.0000 C   0  0  0  0  0  0  0  0  0
    7.8043   -0.4370    0.0000 C   0  0  0  0  0  0  0  0  0
    2.5922    0.7056    0.0000 C   0  0  0  0  0  0  0  0  0
    1.8778    0.2931    0.0000 C   0  0  0  0  0  0  0  0  0
    1.1633   -1.7694    0.0000 C   0  0  0  0  0  0  0  0  0
    1.8778   -2.1819    0.0000 C   0  0  0  0  0  0  0  0  0
   -0.9557   -3.7896    0.0000 C   0  0  0  0  0  0  0  0  0
  1  2  4  0  0  0  0
  1  5  4  0  0  0  0
  1 27  4  0  0  0  0
  2  3  4  0  0  0  0
  3  4  4  0  0  0  0
  3 29  1  0  0  0  0
  4  5  4  0  0  0  0
  5  6  4  0  0  0  0
  6  7  4  0  0  0  0
  7  8  4  0  0  0  0
  8  9  1  0  0  0  0
  8 27  4  0  0  0  0
  9 10  4  0  0  0  0
  9 26  4  0  0  0  0
 10 11  4  0  0  0  0
 11 12  4  0  0  0  0
 11 16  4  0  0  0  0
 12 13  4  0  0  0  0
 12 25  4  0  0  0  0
 13 14  4  0  0  0  0
 14 15  4  0  0  0  0
 14 17  1  0  0  0  0
 15 16  4  0  0  0  0
 17 18  1  0  0  0  0
 18 19  1  0  0  0  0
 19 20  1  0  0  0  0
 19 23  1  0  0  0  0
 20 21  1  0  0  0  0
 21 22  1  0  0  0  0
 22 23  1  0  0  0  0
 23 24  1  0  0  0  0
 25 26  4  0  0  0  0
 27 28  1  0  0  0  0
M  END
>  <Name_Molregno>
403095

>  <HISTAMINE H3>
9.62

$$$$
403097
  Marvin  02231216192D 0   1.00000     0.00000     0

 25 28  0  0  1  0  0  0  0  0999 V2000
    0.2004   -0.6708    0.0000 N   0  0  0  0  0  0  0  0  0
    0.9149   -0.2583    0.0000 C   0  0  0  0  0  0  0  0  0
    0.9149    0.5667    0.0000 C   0  0  0  0  0  0  0  0  0
    1.6294    0.9792    0.0000 C   0  0  0  0  0  0  0  0  0
    2.3439    0.5667    0.0000 C   0  0  0  0  0  0  0  0  0
    2.3439   -0.2583    0.0000 C   0  0  0  0  0  0  0  0  0
    1.6294   -0.6708    0.0000 C   0  0  0  0  0  0  0  0  0
    3.0583    0.9792    0.0000 C   0  0  0  0  0  0  0  0  0
    3.7728    0.5667    0.0000 C   0  0  0  0  0  0  0  0  0
    4.4873    0.9792    0.0000 N   0  0  0  0  0  0  0  0  0
    4.5735    1.7997    0.0000 C   0  0  0  0  0  0  0  0  0
    5.3805    1.9712    0.0000 C   0  0  0  0  0  0  0  0  0
    5.7930    1.2567    0.0000 C   0  0  0  0  0  0  0  0  0
    5.2409    0.6436    0.0000 C   0  0  0  0  0  0  0  0  0
    5.4125   -0.1633    0.0000 C   0  0  0  0  0  0  0  0  0
    0.2004    0.9792    0.0000 C   0  0  0  0  0  0  0  0  0
   -0.5140    0.5667    0.0000 C   0  0  0  0  0  0  0  0  0
   -0.5140   -0.2583    0.0000 C   0  0  0  0  0  0  0  0  0
   -1.2285   -0.6708    0.0000 C   0  0  0  0  0  0  0  0  0
   -1.3147   -1.4913    0.0000 C   0  0  0  0  0  0  0  0  0
   -2.1217   -1.6628    0.0000 N   0  0  0  0  0  0  0  0  0
   -2.5342   -0.9483    0.0000 N   0  0  0  0  0  0  0  0  0
   -1.9822   -0.3353    0.0000 C   0  0  0  0  0  0  0  0  0
   -2.1537    0.4717    0.0000 C   0  0  0  0  0  0  0  0  0
   -2.4573   -2.4165    0.0000 C   0  0  0  0  0  0  0  0  0
  1  2  4  0  0  0  0
  1 18  4  0  0  0  0
  2  3  4  0  0  0  0
  2  7  4  0  0  0  0
  3  4  4  0  0  0  0
  3 16  4  0  0  0  0
  4  5  4  0  0  0  0
  5  6  4  0  0  0  0
  5  8  1  0  0  0  0
  6  7  4  0  0  0  0
  8  9  1  0  0  0  0
  9 10  1  0  0  0  0
 10 11  1  0  0  0  0
 10 14  1  0  0  0  0
 11 12  1  0  0  0  0
 12 13  1  0  0  0  0
 13 14  1  0  0  0  0
 14 15  1  0  0  0  0
 16 17  4  0  0  0  0
 17 18  4  0  0  0  0
 18 19  1  0  0  0  0
 19 20  4  0  0  0  0
 19 23  4  0  0  0  0
 20 21  4  0  0  0  0
 21 22  4  0  0  0  0
 21 25  1  0  0  0  0
 22 23  4  0  0  0  0
 23 24  1  0  0  0  0
M  END
>  <Name_Molregno>
403097

>  <HISTAMINE H3>
9.35

$$$$
403099
  Marvin  02231216192D 0   1.00000     0.00000     0

 29 33  0  0  1  0  0  0  0  0999 V2000
    1.3322   -0.1637    0.0000 N   0  0  0  0  0  0  0  0  0
    0.6178    0.2488    0.0000 C   0  0  0  0  0  0  0  0  0
   -0.0967   -0.1637    0.0000 C   0  0  0  0  0  0  0  0  0
   -0.8112    0.2488    0.0000 C   0  0  0  0  0  0  0  0  0
   -0.8112    1.0738    0.0000 C   0  0  0  0  0  0  0  0  0
   -0.0967    1.4863    0.0000 C   0  0  0  0  0  0  0  0  0
    0.6178    1.0738    0.0000 C   0  0  0  0  0  0  0  0  0
   -1.5257    1.4863    0.0000 C   0  0  0  0  0  0  0  0  0
   -1.5257    2.3113    0.0000 C   0  0  0  0  0  0  0  0  0
   -2.2401    2.7238    0.0000 N   0  0  0  0  0  0  0  0  0
   -2.9938    2.3883    0.0000 C   0  0  0  0  0  0  0  0  0
   -3.5458    3.0014    0.0000 C   0  0  0  0  0  0  0  0  0
   -3.1333    3.7158    0.0000 C   0  0  0  0  0  0  0  0  0
   -2.3264    3.5443    0.0000 C   0  0  0  0  0  0  0  0  0
   -1.7133    4.0963    0.0000 C   0  0  0  0  0  0  0  0  0
   -0.0967   -0.9887    0.0000 C   0  0  0  0  0  0  0  0  0
    0.6178   -1.4012    0.0000 C   0  0  0  0  0  0  0  0  0
    1.3322   -0.9887    0.0000 C   0  0  0  0  0  0  0  0  0
    2.0467   -1.4012    0.0000 C   0  0  0  0  0  0  0  0  0
    2.7612   -0.9887    0.0000 C   0  0  0  0  0  0  0  0  0
    3.4756   -1.4012    0.0000 C   0  0  0  0  0  0  0  0  0
    4.1901   -0.9887    0.0000 C   0  0  0  0  0  0  0  0  0
    4.9046   -1.4012    0.0000 C   0  0  0  0  0  0  0  0  0
    4.9046   -2.2262    0.0000 C   0  0  0  0  0  0  0  0  0
    4.1901   -2.6387    0.0000 N   0  0  0  0  0  0  0  0  0
    3.4756   -2.2262    0.0000 C   0  0  0  0  0  0  0  0  0
    2.7612   -2.6387    0.0000 N   0  0  0  0  0  0  0  0  0
    2.0467   -2.2262    0.0000 C   0  0  0  0  0  0  0  0  0
    1.3322   -2.6387    0.0000 C   0  0  0  0  0  0  0  0  0
  1  2  4  0  0  0  0
  1 18  4  0  0  0  0
  2  3  4  0  0  0  0
  2  7  4  0  0  0  0
  3  4  4  0  0  0  0
  3 16  4  0  0  0  0
  4  5  4  0  0  0  0
  5  6  4  0  0  0  0
  5  8  1  0  0  0  0
  6  7  4  0  0  0  0
  8  9  1  0  0  0  0
  9 10  1  0  0  0  0
 10 11  1  0  0  0  0
 10 14  1  0  0  0  0
 11 12  1  0  0  0  0
 12 13  1  0  0  0  0
 13 14  1  0  0  0  0
 14 15  1  0  0  0  0
 16 17  4  0  0  0  0
 17 18  4  0  0  0  0
 18 19  1  0  0  0  0
 19 20  4  0  0  0  0
 19 28  4  0  0  0  0
 20 21  4  0  0  0  0
 21 22  4  0  0  0  0
 21 26  4  0  0  0  0
 22 23  4  0  0  0  0
 23 24  4  0  0  0  0
 24 25  4  0  0  0  0
 25 26  4  0  0  0  0
 26 27  4  0  0  0  0
 27 28  4  0  0  0  0
 28 29  1  0  0  0  0
M  END
>  <Name_Molregno>
403099

>  <HISTAMINE H3>
9.47

$$$$
405680
  Marvin  02231216192D 0   1.00000     0.00000     0

 32 35  0  0  0  0  0  0  0  0999 V2000
   -2.7718    5.0725    0.0000 F   0  0  0  0  0  0  0  0  0
   -2.7718    4.2475    0.0000 C   0  0  0  0  0  0  0  0  0
   -2.0573    3.8350    0.0000 C   0  0  0  0  0  0  0  0  0
   -2.0573    3.0100    0.0000 C   0  0  0  0  0  0  0  0  0
   -2.7718    2.5975    0.0000 C   0  0  0  0  0  0  0  0  0
   -3.4863    3.0100    0.0000 C   0  0  0  0  0  0  0  0  0
   -3.4863    3.8350    0.0000 C   0  0  0  0  0  0  0  0  0
   -2.7718    1.7725    0.0000 C   0  0  0  0  0  0  0  0  0
   -2.0573    1.3600    0.0000 O   0  0  0  0  0  0  0  0  0
   -3.4863    1.3600    0.0000 N   0  0  0  0  0  0  0  0  0
   -3.4863    0.5350    0.0000 C   0  0  0  0  0  0  0  0  0
   -4.2008    0.1225    0.0000 C   0  0  0  0  0  0  0  0  0
   -4.2008   -0.7025    0.0000 O   0  0  0  0  0  0  0  0  0
   -4.9152    0.5350    0.0000 N   0  0  0  0  0  0  0  0  0
   -4.9152    1.3600    0.0000 C   0  0  0  0  0  0  0  0  0
   -4.2008    1.7725    0.0000 C   0  0  0  0  0  0  0  0  0
   -5.6297    0.1225    0.0000 C   0  0  0  0  0  0  0  0  0
   -5.6297   -0.7025    0.0000 C   0  0  0  0  0  0  0  0  0
   -6.3442   -1.1150    0.0000 C   0  0  0  0  0  0  0  0  0
   -7.0586   -0.7025    0.0000 C   0  0  0  0  0  0  0  0  0
   -7.7731   -1.1150    0.0000 O   0  0  0  0  0  0  0  0  0
   -7.7731   -1.9400    0.0000 C   0  0  0  0  0  0  0  0  0
   -8.4876   -2.3525    0.0000 C   0  0  0  0  0  0  0  0  0
   -8.4876   -3.1775    0.0000 C   0  0  0  0  0  0  0  0  0
   -9.2021   -3.5900    0.0000 N   0  0  0  0  0  0  0  0  0
   -9.2021   -4.4150    0.0000 C   0  0  0  0  0  0  0  0  0
   -9.9165   -4.8275    0.0000 C   0  0  0  0  0  0  0  0  0
  -10.6310   -4.4150    0.0000 C   0  0  0  0  0  0  0  0  0
  -10.6310   -3.5900    0.0000 C   0  0  0  0  0  0  0  0  0
   -9.9165   -3.1775    0.0000 C   0  0  0  0  0  0  0  0  0
   -7.0586    0.1225    0.0000 C   0  0  0  0  0  0  0  0  0
   -6.3442    0.5350    0.0000 C   0  0  0  0  0  0  0  0  0
  1  2  1  0  0  0  0
  2  3  4  0  0  0  0
  2  7  4  0  0  0  0
  3  4  4  0  0  0  0
  4  5  4  0  0  0  0
  5  6  4  0  0  0  0
  5  8  1  0  0  0  0
  6  7  4  0  0  0  0
  8  9  2  0  0  0  0
  8 10  1  0  0  0  0
 10 11  1  0  0  0  0
 10 16  1  0  0  0  0
 11 12  1  0  0  0  0
 12 13  2  0  0  0  0
 12 14  1  0  0  0  0
 14 15  1  0  0  0  0
 14 17  1  0  0  0  0
 15 16  1  0  0  0  0
 17 18  4  0  0  0  0
 17 32  4  0  0  0  0
 18 19  4  0  0  0  0
 19 20  4  0  0  0  0
 20 21  1  0  0  0  0
 20 31  4  0  0  0  0
 21 22  1  0  0  0  0
 22 23  1  0  0  0  0
 23 24  1  0  0  0  0
 24 25  1  0  0  0  0
 25 26  1  0  0  0  0
 25 30  1  0  0  0  0
 26 27  1  0  0  0  0
 27 28  1  0  0  0  0
 28 29  1  0  0  0  0
 29 30  1  0  0  0  0
 31 32  4  0  0  0  0
M  END
>  <Name_Molregno>
405680

>  <Alpha-1A>
5.6

>  <Alpha-1B>
5.6

>  <HISTAMINE H1>
5.7

>  <HISTAMINE H3>
8.75

$$$$
405684
  Marvin  02231216192D 0   1.00000     0.00000     0

 35 38  0  0  0  0  0  0  0  0999 V2000
    7.9444    4.6287    0.0000 S   0  0  0  0  0  0  0  0  0
    7.9444    5.4537    0.0000 O   0  0  0  0  0  0  0  0  0
    7.1194    4.6287    0.0000 O   0  0  0  0  0  0  0  0  0
    8.7694    4.6287    0.0000 C   0  0  0  0  0  0  0  0  0
    7.9444    3.8037    0.0000 C   0  0  0  0  0  0  0  0  0
    8.6589    3.3912    0.0000 C   0  0  0  0  0  0  0  0  0
    8.6589    2.5662    0.0000 C   0  0  0  0  0  0  0  0  0
    7.9444    2.1537    0.0000 C   0  0  0  0  0  0  0  0  0
    7.2299    2.5662    0.0000 C   0  0  0  0  0  0  0  0  0
    7.2299    3.3912    0.0000 C   0  0  0  0  0  0  0  0  0
    7.9444    1.3287    0.0000 C   0  0  0  0  0  0  0  0  0
    8.6589    0.9162    0.0000 O   0  0  0  0  0  0  0  0  0
    7.2299    0.9162    0.0000 N   0  0  0  0  0  0  0  0  0
    7.2299    0.0912    0.0000 C   0  0  0  0  0  0  0  0  0
    6.5155   -0.3213    0.0000 C   0  0  0  0  0  0  0  0  0
    6.5155   -1.1463    0.0000 O   0  0  0  0  0  0  0  0  0
    5.8010    0.0912    0.0000 N   0  0  0  0  0  0  0  0  0
    5.8010    0.9162    0.0000 C   0  0  0  0  0  0  0  0  0
    6.5155    1.3287    0.0000 C   0  0  0  0  0  0  0  0  0
    5.0865   -0.3213    0.0000 C   0  0  0  0  0  0  0  0  0
    5.0865   -1.1463    0.0000 C   0  0  0  0  0  0  0  0  0
    4.3721   -1.5588    0.0000 C   0  0  0  0  0  0  0  0  0
    3.6576   -1.1463    0.0000 C   0  0  0  0  0  0  0  0  0
    2.9431   -1.5588    0.0000 O   0  0  0  0  0  0  0  0  0
    2.9431   -2.3838    0.0000 C   0  0  0  0  0  0  0  0  0
    2.2287   -2.7963    0.0000 C   0  0  0  0  0  0  0  0  0
    2.2287   -3.6213    0.0000 C   0  0  0  0  0  0  0  0  0
    1.5142   -4.0338    0.0000 N   0  0  0  0  0  0  0  0  0
    1.5142   -4.8588    0.0000 C   0  0  0  0  0  0  0  0  0
    0.7997   -5.2713    0.0000 C   0  0  0  0  0  0  0  0  0
    0.0852   -4.8588    0.0000 C   0  0  0  0  0  0  0  0  0
    0.0852   -4.0338    0.0000 C   0  0  0  0  0  0  0  0  0
    0.7997   -3.6213    0.0000 C   0  0  0  0  0  0  0  0  0
    3.6576   -0.3213    0.0000 C   0  0  0  0  0  0  0  0  0
    4.3721    0.0912    0.0000 C   0  0  0  0  0  0  0  0  0
  1  2  2  0  0  0  0
  1  3  2  0  0  0  0
  1  4  1  0  0  0  0
  1  5  1  0  0  0  0
  5  6  4  0  0  0  0
  5 10  4  0  0  0  0
  6  7  4  0  0  0  0
  7  8  4  0  0  0  0
  8  9  4  0  0  0  0
  8 11  1  0  0  0  0
  9 10  4  0  0  0  0
 11 12  2  0  0  0  0
 11 13  1  0  0  0  0
 13 14  1  0  0  0  0
 13 19  1  0  0  0  0
 14 15  1  0  0  0  0
 15 16  2  0  0  0  0
 15 17  1  0  0  0  0
 17 18  1  0  0  0  0
 17 20  1  0  0  0  0
 18 19  1  0  0  0  0
 20 21  4  0  0  0  0
 20 35  4  0  0  0  0
 21 22  4  0  0  0  0
 22 23  4  0  0  0  0
 23 24  1  0  0  0  0
 23 34  4  0  0  0  0
 24 25  1  0  0  0  0
 25 26  1  0  0  0  0
 26 27  1  0  0  0  0
 27 28  1  0  0  0  0
 28 29  1  0  0  0  0
 28 33  1  0  0  0  0
 29 30  1  0  0  0  0
 30 31  1  0  0  0  0
 31 32  1  0  0  0  0
 32 33  1  0  0  0  0
 34 35  4  0  0  0  0
M  END
>  <Name_Molregno>
405684

>  <HISTAMINE H1>
5.7

>  <HISTAMINE H3>
8.6

$$$$
405686
  Marvin  02231216192D 0   1.00000     0.00000     0

 35 38  0  0  0  0  0  0  0  0999 V2000
    3.8325    3.9947    0.0000 S   0  0  0  0  0  0  0  0  0
    3.8325    4.8197    0.0000 O   0  0  0  0  0  0  0  0  0
    3.0075    3.9947    0.0000 O   0  0  0  0  0  0  0  0  0
    4.6575    3.9947    0.0000 C   0  0  0  0  0  0  0  0  0
    3.8325    3.1697    0.0000 C   0  0  0  0  0  0  0  0  0
    4.5470    2.7572    0.0000 C   0  0  0  0  0  0  0  0  0
    4.5470    1.9322    0.0000 C   0  0  0  0  0  0  0  0  0
    3.8325    1.5197    0.0000 C   0  0  0  0  0  0  0  0  0
    3.1181    1.9322    0.0000 C   0  0  0  0  0  0  0  0  0
    3.1181    2.7572    0.0000 C   0  0  0  0  0  0  0  0  0
    5.2615    1.5197    0.0000 C   0  0  0  0  0  0  0  0  0
    5.9759    1.9322    0.0000 O   0  0  0  0  0  0  0  0  0
    5.2615    0.6947    0.0000 N   0  0  0  0  0  0  0  0  0
    5.9759    0.2822    0.0000 C   0  0  0  0  0  0  0  0  0
    5.9759   -0.5428    0.0000 C   0  0  0  0  0  0  0  0  0
    6.6904   -0.9553    0.0000 O   0  0  0  0  0  0  0  0  0
    5.2615   -0.9553    0.0000 N   0  0  0  0  0  0  0  0  0
    4.5470   -0.5428    0.0000 C   0  0  0  0  0  0  0  0  0
    4.5470    0.2822    0.0000 C   0  0  0  0  0  0  0  0  0
    5.2615   -1.7803    0.0000 C   0  0  0  0  0  0  0  0  0
    5.9759   -2.1928    0.0000 C   0  0  0  0  0  0  0  0  0
    5.9759   -3.0178    0.0000 C   0  0  0  0  0  0  0  0  0
    5.2615   -3.4303    0.0000 C   0  0  0  0  0  0  0  0  0
    5.2615   -4.2553    0.0000 O   0  0  0  0  0  0  0  0  0
    5.9759   -4.6678    0.0000 C   0  0  0  0  0  0  0  0  0
    5.9759   -5.4928    0.0000 C   0  0  0  0  0  0  0  0  0
    6.6904   -5.9053    0.0000 C   0  0  0  0  0  0  0  0  0
    6.6904   -6.7303    0.0000 N   0  0  0  0  0  0  0  0  0
    7.4049   -7.1428    0.0000 C   0  0  0  0  0  0  0  0  0
    7.4049   -7.9678    0.0000 C   0  0  0  0  0  0  0  0  0
    6.6904   -8.3803    0.0000 C   0  0  0  0  0  0  0  0  0
    5.9759   -7.9678    0.0000 C   0  0  0  0  0  0  0  0  0
    5.9759   -7.1428    0.0000 C   0  0  0  0  0  0  0  0  0
    4.5470   -3.0178    0.0000 C   0  0  0  0  0  0  0  0  0
    4.5470   -2.1928    0.0000 C   0  0  0  0  0  0  0  0  0
  1  2  2  0  0  0  0
  1  3  2  0  0  0  0
  1  4  1  0  0  0  0
  1  5  1  0  0  0  0
  5  6  4  0  0  0  0
  5 10  4  0  0  0  0
  6  7  4  0  0  0  0
  7  8  4  0  0  0  0
  7 11  1  0  0  0  0
  8  9  4  0  0  0  0
  9 10  4  0  0  0  0
 11 12  2  0  0  0  0
 11 13  1  0  0  0  0
 13 14  1  0  0  0  0
 13 19  1  0  0  0  0
 14 15  1  0  0  0  0
 15 16  2  0  0  0  0
 15 17  1  0  0  0  0
 17 18  1  0  0  0  0
 17 20  1  0  0  0  0
 18 19  1  0  0  0  0
 20 21  4  0  0  0  0
 20 35  4  0  0  0  0
 21 22  4  0  0  0  0
 22 23  4  0  0  0  0
 23 24  1  0  0  0  0
 23 34  4  0  0  0  0
 24 25  1  0  0  0  0
 25 26  1  0  0  0  0
 26 27  1  0  0  0  0
 27 28  1  0  0  0  0
 28 29  1  0  0  0  0
 28 33  1  0  0  0  0
 29 30  1  0  0  0  0
 30 31  1  0  0  0  0
 31 32  1  0  0  0  0
 32 33  1  0  0  0  0
 34 35  4  0  0  0  0
M  END
>  <Name_Molregno>
405686

>  <HISTAMINE H1>
5.5

>  <HISTAMINE H3>
8.5

$$$$
405687
  Marvin  02231216192D 0   1.00000     0.00000     0

 33 36  0  0  0  0  0  0  0  0999 V2000
    4.1471    7.4605    0.0000 F   0  0  0  0  0  0  0  0  0
    4.1471    6.6355    0.0000 C   0  0  0  0  0  0  0  0  0
    4.8615    6.2230    0.0000 C   0  0  0  0  0  0  0  0  0
    4.8615    5.3980    0.0000 C   0  0  0  0  0  0  0  0  0
    4.1471    4.9855    0.0000 C   0  0  0  0  0  0  0  0  0
    3.4326    5.3980    0.0000 C   0  0  0  0  0  0  0  0  0
    2.7181    4.9855    0.0000 F   0  0  0  0  0  0  0  0  0
    3.4326    6.2230    0.0000 C   0  0  0  0  0  0  0  0  0
    5.5760    4.9855    0.0000 C   0  0  0  0  0  0  0  0  0
    6.2905    5.3980    0.0000 O   0  0  0  0  0  0  0  0  0
    5.5760    4.1605    0.0000 N   0  0  0  0  0  0  0  0  0
    6.2905    3.7480    0.0000 C   0  0  0  0  0  0  0  0  0
    6.2905    2.9230    0.0000 C   0  0  0  0  0  0  0  0  0
    7.0050    2.5105    0.0000 O   0  0  0  0  0  0  0  0  0
    5.5760    2.5105    0.0000 N   0  0  0  0  0  0  0  0  0
    4.8615    2.9230    0.0000 C   0  0  0  0  0  0  0  0  0
    4.8615    3.7480    0.0000 C   0  0  0  0  0  0  0  0  0
    5.5760    1.6855    0.0000 C   0  0  0  0  0  0  0  0  0
    6.2905    1.2730    0.0000 C   0  0  0  0  0  0  0  0  0
    6.2905    0.4480    0.0000 C   0  0  0  0  0  0  0  0  0
    5.5760    0.0355    0.0000 C   0  0  0  0  0  0  0  0  0
    5.5760   -0.7895    0.0000 O   0  0  0  0  0  0  0  0  0
    6.2905   -1.2020    0.0000 C   0  0  0  0  0  0  0  0  0
    6.2905   -2.0270    0.0000 C   0  0  0  0  0  0  0  0  0
    7.0050   -2.4395    0.0000 C   0  0  0  0  0  0  0  0  0
    7.0050   -3.2645    0.0000 N   0  0  0  0  0  0  0  0  0
    7.7194   -3.6770    0.0000 C   0  0  0  0  0  0  0  0  0
    7.7194   -4.5020    0.0000 C   0  0  0  0  0  0  0  0  0
    7.0050   -4.9145    0.0000 C   0  0  0  0  0  0  0  0  0
    6.2905   -4.5020    0.0000 C   0  0  0  0  0  0  0  0  0
    6.2905   -3.6770    0.0000 C   0  0  0  0  0  0  0  0  0
    4.8615    0.4480    0.0000 C   0  0  0  0  0  0  0  0  0
    4.8615    1.2730    0.0000 C   0  0  0  0  0  0  0  0  0
  1  2  1  0  0  0  0
  2  3  4  0  0  0  0
  2  8  4  0  0  0  0
  3  4  4  0  0  0  0
  4  5  4  0  0  0  0
  4  9  1  0  0  0  0
  5  6  4  0  0  0  0
  6  7  1  0  0  0  0
  6  8  4  0  0  0  0
  9 10  2  0  0  0  0
  9 11  1  0  0  0  0
 11 12  1  0  0  0  0
 11 17  1  0  0  0  0
 12 13  1  0  0  0  0
 13 14  2  0  0  0  0
 13 15  1  0  0  0  0
 15 16  1  0  0  0  0
 15 18  1  0  0  0  0
 16 17  1  0  0  0  0
 18 19  4  0  0  0  0
 18 33  4  0  0  0  0
 19 20  4  0  0  0  0
 20 21  4  0  0  0  0
 21 22  1  0  0  0  0
 21 32  4  0  0  0  0
 22 23  1  0  0  0  0
 23 24  1  0  0  0  0
 24 25  1  0  0  0  0
 25 26  1  0  0  0  0
 26 27  1  0  0  0  0
 26 31  1  0  0  0  0
 27 28  1  0  0  0  0
 28 29  1  0  0  0  0
 29 30  1  0  0  0  0
 30 31  1  0  0  0  0
 32 33  4  0  0  0  0
M  END
>  <Name_Molregno>
405687

>  <HISTAMINE H1>
5.7

>  <HISTAMINE H3>
8.7

$$$$
405688
  Marvin  02231216192D 0   1.00000     0.00000     0

 33 36  0  0  0  0  0  0  0  0999 V2000
   -3.3828   -2.4838    0.0000 F   0  0  0  0  0  0  0  0  0
   -3.3828   -3.3088    0.0000 C   0  0  0  0  0  0  0  0  0
   -2.6683   -3.7213    0.0000 C   0  0  0  0  0  0  0  0  0
   -2.6683   -4.5463    0.0000 C   0  0  0  0  0  0  0  0  0
   -1.9539   -4.9588    0.0000 F   0  0  0  0  0  0  0  0  0
   -3.3828   -4.9588    0.0000 C   0  0  0  0  0  0  0  0  0
   -4.0973   -4.5463    0.0000 C   0  0  0  0  0  0  0  0  0
   -4.0973   -3.7213    0.0000 C   0  0  0  0  0  0  0  0  0
   -4.8117   -3.3088    0.0000 C   0  0  0  0  0  0  0  0  0
   -5.5262   -3.7213    0.0000 O   0  0  0  0  0  0  0  0  0
   -4.8117   -2.4838    0.0000 N   0  0  0  0  0  0  0  0  0
   -5.5262   -2.0713    0.0000 C   0  0  0  0  0  0  0  0  0
   -5.5262   -1.2463    0.0000 C   0  0  0  0  0  0  0  0  0
   -6.2407   -0.8338    0.0000 O   0  0  0  0  0  0  0  0  0
   -4.8117   -0.8338    0.0000 N   0  0  0  0  0  0  0  0  0
   -4.0973   -1.2463    0.0000 C   0  0  0  0  0  0  0  0  0
   -4.0973   -2.0713    0.0000 C   0  0  0  0  0  0  0  0  0
   -4.8117   -0.0088    0.0000 C   0  0  0  0  0  0  0  0  0
   -5.5262    0.4037    0.0000 C   0  0  0  0  0  0  0  0  0
   -5.5262    1.2287    0.0000 C   0  0  0  0  0  0  0  0  0
   -4.8117    1.6412    0.0000 C   0  0  0  0  0  0  0  0  0
   -4.8117    2.4662    0.0000 O   0  0  0  0  0  0  0  0  0
   -5.5262    2.8787    0.0000 C   0  0  0  0  0  0  0  0  0
   -5.5262    3.7037    0.0000 C   0  0  0  0  0  0  0  0  0
   -6.2407    4.1162    0.0000 C   0  0  0  0  0  0  0  0  0
   -6.2407    4.9412    0.0000 N   0  0  0  0  0  0  0  0  0
   -6.9552    5.3537    0.0000 C   0  0  0  0  0  0  0  0  0
   -6.9552    6.1787    0.0000 C   0  0  0  0  0  0  0  0  0
   -6.2407    6.5912    0.0000 C   0  0  0  0  0  0  0  0  0
   -5.5262    6.1787    0.0000 C   0  0  0  0  0  0  0  0  0
   -5.5262    5.3537    0.0000 C   0  0  0  0  0  0  0  0  0
   -4.0973    1.2287    0.0000 C   0  0  0  0  0  0  0  0  0
   -4.0973    0.4037    0.0000 C   0  0  0  0  0  0  0  0  0
  1  2  1  0  0  0  0
  2  3  4  0  0  0  0
  2  8  4  0  0  0  0
  3  4  4  0  0  0  0
  4  5  1  0  0  0  0
  4  6  4  0  0  0  0
  6  7  4  0  0  0  0
  7  8  4  0  0  0  0
  8  9  1  0  0  0  0
  9 10  2  0  0  0  0
  9 11  1  0  0  0  0
 11 12  1  0  0  0  0
 11 17  1  0  0  0  0
 12 13  1  0  0  0  0
 13 14  2  0  0  0  0
 13 15  1  0  0  0  0
 15 16  1  0  0  0  0
 15 18  1  0  0  0  0
 16 17  1  0  0  0  0
 18 19  4  0  0  0  0
 18 33  4  0  0  0  0
 19 20  4  0  0  0  0
 20 21  4  0  0  0  0
 21 22  1  0  0  0  0
 21 32  4  0  0  0  0
 22 23  1  0  0  0  0
 23 24  1  0  0  0  0
 24 25  1  0  0  0  0
 25 26  1  0  0  0  0
 26 27  1  0  0  0  0
 26 31  1  0  0  0  0
 27 28  1  0  0  0  0
 28 29  1  0  0  0  0
 29 30  1  0  0  0  0
 30 31  1  0  0  0  0
 32 33  4  0  0  0  0
M  END
>  <Name_Molregno>
405688

>  <HISTAMINE H1>
5.7

>  <HISTAMINE H3>
8.6

$$$$
405689
  Marvin  02231216192D 0   1.00000     0.00000     0

 37 41  0  0  0  0  0  0  0  0999 V2000
   -2.0170    3.4672    0.0000 O   0  0  0  0  0  0  0  0  0
   -2.7315    3.8797    0.0000 C   0  0  0  0  0  0  0  0  0
   -2.7315    4.7047    0.0000 C   0  0  0  0  0  0  0  0  0
   -3.4460    5.1172    0.0000 C   0  0  0  0  0  0  0  0  0
   -3.4460    5.9422    0.0000 N   0  0  0  0  0  0  0  0  0
   -4.1604    6.3547    0.0000 C   0  0  0  0  0  0  0  0  0
   -4.1604    7.1797    0.0000 C   0  0  0  0  0  0  0  0  0
   -3.4460    7.5922    0.0000 C   0  0  0  0  0  0  0  0  0
   -2.7315    7.1797    0.0000 C   0  0  0  0  0  0  0  0  0
   -2.7315    6.3547    0.0000 C   0  0  0  0  0  0  0  0  0
   -2.0170    2.6422    0.0000 C   0  0  0  0  0  0  0  0  0
   -1.3026    2.2297    0.0000 C   0  0  0  0  0  0  0  0  0
   -1.3026    1.4047    0.0000 C   0  0  0  0  0  0  0  0  0
   -2.0170    0.9922    0.0000 C   0  0  0  0  0  0  0  0  0
   -2.0170    0.1672    0.0000 N   0  0  0  0  0  0  0  0  0
   -1.3026   -0.2453    0.0000 C   0  0  0  0  0  0  0  0  0
   -1.3026   -1.0703    0.0000 C   0  0  0  0  0  0  0  0  0
   -2.0170   -1.4828    0.0000 N   0  0  0  0  0  0  0  0  0
   -2.7315   -1.0703    0.0000 C   0  0  0  0  0  0  0  0  0
   -2.7315   -0.2453    0.0000 C   0  0  0  0  0  0  0  0  0
   -3.4460    0.1672    0.0000 O   0  0  0  0  0  0  0  0  0
   -2.0170   -2.3078    0.0000 C   0  0  0  0  0  0  0  0  0
   -1.3026   -2.7203    0.0000 O   0  0  0  0  0  0  0  0  0
   -2.7315   -2.7203    0.0000 C   0  0  0  0  0  0  0  0  0
   -2.7315   -3.5453    0.0000 C   0  0  0  0  0  0  0  0  0
   -3.4460   -3.9578    0.0000 C   0  0  0  0  0  0  0  0  0
   -4.1604   -3.5453    0.0000 C   0  0  0  0  0  0  0  0  0
   -4.1604   -2.7203    0.0000 C   0  0  0  0  0  0  0  0  0
   -3.4460   -2.3078    0.0000 C   0  0  0  0  0  0  0  0  0
   -4.8749   -3.9578    0.0000 C   0  0  0  0  0  0  0  0  0
   -5.5894   -3.5453    0.0000 O   0  0  0  0  0  0  0  0  0
   -4.8749   -4.7828    0.0000 N   0  0  0  0  0  0  0  0  0
   -4.2915   -5.3662    0.0000 C   0  0  0  0  0  0  0  0  0
   -4.8749   -5.9495    0.0000 C   0  0  0  0  0  0  0  0  0
   -5.4583   -5.3662    0.0000 C   0  0  0  0  0  0  0  0  0
   -2.7315    1.4047    0.0000 C   0  0  0  0  0  0  0  0  0
   -2.7315    2.2297    0.0000 C   0  0  0  0  0  0  0  0  0
  1  2  1  0  0  0  0
  1 11  1  0  0  0  0
  2  3  1  0  0  0  0
  3  4  1  0  0  0  0
  4  5  1  0  0  0  0
  5  6  1  0  0  0  0
  5 10  1  0  0  0  0
  6  7  1  0  0  0  0
  7  8  1  0  0  0  0
  8  9  1  0  0  0  0
  9 10  1  0  0  0  0
 11 12  4  0  0  0  0
 11 37  4  0  0  0  0
 12 13  4  0  0  0  0
 13 14  4  0  0  0  0
 14 15  1  0  0  0  0
 14 36  4  0  0  0  0
 15 16  1  0  0  0  0
 15 20  1  0  0  0  0
 16 17  1  0  0  0  0
 17 18  1  0  0  0  0
 18 19  1  0  0  0  0
 18 22  1  0  0  0  0
 19 20  1  0  0  0  0
 20 21  2  0  0  0  0
 22 23  2  0  0  0  0
 22 24  1  0  0  0  0
 24 25  4  0  0  0  0
 24 29  4  0  0  0  0
 25 26  4  0  0  0  0
 26 27  4  0  0  0  0
 27 28  4  0  0  0  0
 27 30  1  0  0  0  0
 28 29  4  0  0  0  0
 30 31  2  0  0  0  0
 30 32  1  0  0  0  0
 32 33  1  0  0  0  0
 32 35  1  0  0  0  0
 33 34  1  0  0  0  0
 34 35  1  0  0  0  0
 36 37  4  0  0  0  0
M  END
>  <Name_Molregno>
405689

>  <HISTAMINE H1>
5.6

>  <HISTAMINE H3>
9.2

$$$$
405690
  Marvin  02231216192D 0   1.00000     0.00000     0

 31 34  0  0  0  0  0  0  0  0999 V2000
   -2.2432   -2.7214    0.0000 O   0  0  0  0  0  0  0  0  0
   -1.5287   -3.1339    0.0000 C   0  0  0  0  0  0  0  0  0
   -1.5287   -3.9589    0.0000 C   0  0  0  0  0  0  0  0  0
   -0.8142   -4.3714    0.0000 C   0  0  0  0  0  0  0  0  0
   -0.8142   -5.1964    0.0000 N   0  0  0  0  0  0  0  0  0
   -0.0998   -5.6089    0.0000 C   0  0  0  0  0  0  0  0  0
   -0.0998   -6.4339    0.0000 C   0  0  0  0  0  0  0  0  0
   -0.8142   -6.8464    0.0000 C   0  0  0  0  0  0  0  0  0
   -1.5287   -6.4339    0.0000 C   0  0  0  0  0  0  0  0  0
   -1.5287   -5.6089    0.0000 C   0  0  0  0  0  0  0  0  0
   -2.2432   -1.8964    0.0000 C   0  0  0  0  0  0  0  0  0
   -2.9576   -1.4839    0.0000 C   0  0  0  0  0  0  0  0  0
   -2.9576   -0.6589    0.0000 C   0  0  0  0  0  0  0  0  0
   -2.2432   -0.2464    0.0000 C   0  0  0  0  0  0  0  0  0
   -2.2432    0.5786    0.0000 N   0  0  0  0  0  0  0  0  0
   -2.9576    0.9911    0.0000 C   0  0  0  0  0  0  0  0  0
   -2.9576    1.8161    0.0000 C   0  0  0  0  0  0  0  0  0
   -2.2432    2.2286    0.0000 N   0  0  0  0  0  0  0  0  0
   -1.5287    1.8161    0.0000 C   0  0  0  0  0  0  0  0  0
   -1.5287    0.9911    0.0000 C   0  0  0  0  0  0  0  0  0
   -0.8142    0.5786    0.0000 O   0  0  0  0  0  0  0  0  0
   -2.2432    3.0536    0.0000 C   0  0  0  0  0  0  0  0  0
   -1.5287    3.4661    0.0000 O   0  0  0  0  0  0  0  0  0
   -2.9576    3.4661    0.0000 C   0  0  0  0  0  0  0  0  0
   -3.6721    3.0536    0.0000 C   0  0  0  0  0  0  0  0  0
   -4.3866    3.4661    0.0000 C   0  0  0  0  0  0  0  0  0
   -4.3866    4.2911    0.0000 N   0  0  0  0  0  0  0  0  0
   -3.6721    4.7036    0.0000 C   0  0  0  0  0  0  0  0  0
   -2.9576    4.2911    0.0000 C   0  0  0  0  0  0  0  0  0
   -1.5287   -0.6589    0.0000 C   0  0  0  0  0  0  0  0  0
   -1.5287   -1.4839    0.0000 C   0  0  0  0  0  0  0  0  0
  1  2  1  0  0  0  0
  1 11  1  0  0  0  0
  2  3  1  0  0  0  0
  3  4  1  0  0  0  0
  4  5  1  0  0  0  0
  5  6  1  0  0  0  0
  5 10  1  0  0  0  0
  6  7  1  0  0  0  0
  7  8  1  0  0  0  0
  8  9  1  0  0  0  0
  9 10  1  0  0  0  0
 11 12  4  0  0  0  0
 11 31  4  0  0  0  0
 12 13  4  0  0  0  0
 13 14  4  0  0  0  0
 14 15  1  0  0  0  0
 14 30  4  0  0  0  0
 15 16  1  0  0  0  0
 15 20  1  0  0  0  0
 16 17  1  0  0  0  0
 17 18  1  0  0  0  0
 18 19  1  0  0  0  0
 18 22  1  0  0  0  0
 19 20  1  0  0  0  0
 20 21  2  0  0  0  0
 22 23  2  0  0  0  0
 22 24  1  0  0  0  0
 24 25  4  0  0  0  0
 24 29  4  0  0  0  0
 25 26  4  0  0  0  0
 26 27  4  0  0  0  0
 27 28  4  0  0  0  0
 28 29  4  0  0  0  0
 30 31  4  0  0  0  0
M  END
>  <Name_Molregno>
405690

>  <HISTAMINE H1>
5.6

>  <HISTAMINE H3>
8.1

$$$$
405691
  Marvin  02231216192D 0   1.00000     0.00000     0

 34 38  0  0  0  0  0  0  0  0999 V2000
   -5.3021   -1.0568    0.0000 O   0  0  0  0  0  0  0  0  0
   -5.5571   -1.8414    0.0000 C   0  0  0  0  0  0  0  0  0
   -6.3641   -2.0130    0.0000 C   0  0  0  0  0  0  0  0  0
   -6.6190   -2.7976    0.0000 C   0  0  0  0  0  0  0  0  0
   -7.4260   -2.9691    0.0000 N   0  0  0  0  0  0  0  0  0
   -7.6809   -3.7537    0.0000 C   0  0  0  0  0  0  0  0  0
   -8.4879   -3.9253    0.0000 C   0  0  0  0  0  0  0  0  0
   -9.0399   -3.3122    0.0000 C   0  0  0  0  0  0  0  0  0
   -8.7850   -2.5275    0.0000 C   0  0  0  0  0  0  0  0  0
   -7.9780   -2.3560    0.0000 C   0  0  0  0  0  0  0  0  0
   -4.4952   -0.8853    0.0000 C   0  0  0  0  0  0  0  0  0
   -4.2402   -0.1007    0.0000 C   0  0  0  0  0  0  0  0  0
   -3.4333    0.0709    0.0000 C   0  0  0  0  0  0  0  0  0
   -2.8812   -0.5422    0.0000 C   0  0  0  0  0  0  0  0  0
   -2.0743   -0.3707    0.0000 N   0  0  0  0  0  0  0  0  0
   -1.8193    0.4139    0.0000 C   0  0  0  0  0  0  0  0  0
   -1.0123    0.5855    0.0000 C   0  0  0  0  0  0  0  0  0
   -0.4603   -0.0276    0.0000 N   0  0  0  0  0  0  0  0  0
   -0.7152   -0.8123    0.0000 C   0  0  0  0  0  0  0  0  0
   -1.5222   -0.9838    0.0000 C   0  0  0  0  0  0  0  0  0
   -1.7772   -1.7684    0.0000 O   0  0  0  0  0  0  0  0  0
    0.3467    0.1439    0.0000 C   0  0  0  0  0  0  0  0  0
    0.8987   -0.4692    0.0000 O   0  0  0  0  0  0  0  0  0
    0.6016    0.9285    0.0000 C   0  0  0  0  0  0  0  0  0
    1.3862    1.1834    0.0000 C   0  0  0  0  0  0  0  0  0
    1.3862    2.0084    0.0000 N   0  0  0  0  0  0  0  0  0
    0.6016    2.2634    0.0000 N   0  0  0  0  0  0  0  0  0
    0.1167    1.5959    0.0000 C   0  0  0  0  0  0  0  0  0
    2.1007    2.4209    0.0000 C   0  0  0  0  0  0  0  0  0
    2.8152    2.0084    0.0000 C   0  0  0  0  0  0  0  0  0
    2.8152    1.1834    0.0000 C   0  0  0  0  0  0  0  0  0
    2.1007    0.7709    0.0000 N   0  0  0  0  0  0  0  0  0
   -3.1362   -1.3268    0.0000 C   0  0  0  0  0  0  0  0  0
   -3.9431   -1.4984    0.0000 C   0  0  0  0  0  0  0  0  0
  1  2  1  0  0  0  0
  1 11  1  0  0  0  0
  2  3  1  0  0  0  0
  3  4  1  0  0  0  0
  4  5  1  0  0  0  0
  5  6  1  0  0  0  0
  5 10  1  0  0  0  0
  6  7  1  0  0  0  0
  7  8  1  0  0  0  0
  8  9  1  0  0  0  0
  9 10  1  0  0  0  0
 11 12  4  0  0  0  0
 11 34  4  0  0  0  0
 12 13  4  0  0  0  0
 13 14  4  0  0  0  0
 14 15  1  0  0  0  0
 14 33  4  0  0  0  0
 15 16  1  0  0  0  0
 15 20  1  0  0  0  0
 16 17  1  0  0  0  0
 17 18  1  0  0  0  0
 18 19  1  0  0  0  0
 18 22  1  0  0  0  0
 19 20  1  0  0  0  0
 20 21  2  0  0  0  0
 22 23  2  0  0  0  0
 22 24  1  0  0  0  0
 24 25  4  0  0  0  0
 24 28  4  0  0  0  0
 25 26  4  0  0  0  0
 25 32  4  0  0  0  0
 26 27  4  0  0  0  0
 26 29  4  0  0  0  0
 27 28  4  0  0  0  0
 29 30  4  0  0  0  0
 30 31  4  0  0  0  0
 31 32  4  0  0  0  0
 33 34  4  0  0  0  0
M  END
>  <Name_Molregno>
405691

>  <HISTAMINE H1>
5.5

>  <HISTAMINE H3>
8.4

$$$$
405696
  Marvin  02231216192D 0   1.00000     0.00000     0

 31 34  0  0  0  0  0  0  0  0999 V2000
   -8.4312    4.8596    0.0000 F   0  0  0  0  0  0  0  0  0
   -7.7167    4.4471    0.0000 C   0  0  0  0  0  0  0  0  0
   -7.0023    4.8596    0.0000 C   0  0  0  0  0  0  0  0  0
   -6.2878    4.4471    0.0000 C   0  0  0  0  0  0  0  0  0
   -6.2878    3.6221    0.0000 C   0  0  0  0  0  0  0  0  0
   -7.0023    3.2096    0.0000 C   0  0  0  0  0  0  0  0  0
   -7.7167    3.6221    0.0000 C   0  0  0  0  0  0  0  0  0
   -5.5733    3.2096    0.0000 C   0  0  0  0  0  0  0  0  0
   -4.8589    3.6221    0.0000 O   0  0  0  0  0  0  0  0  0
   -5.5733    2.3846    0.0000 N   0  0  0  0  0  0  0  0  0
   -4.8589    1.9721    0.0000 C   0  0  0  0  0  0  0  0  0
   -4.8589    1.1471    0.0000 C   0  0  0  0  0  0  0  0  0
   -4.1444    0.7346    0.0000 O   0  0  0  0  0  0  0  0  0
   -5.5733    0.7346    0.0000 N   0  0  0  0  0  0  0  0  0
   -6.2878    1.1471    0.0000 C   0  0  0  0  0  0  0  0  0
   -6.2878    1.9721    0.0000 C   0  0  0  0  0  0  0  0  0
   -5.5733   -0.0904    0.0000 C   0  0  0  0  0  0  0  0  0
   -4.8589   -0.5029    0.0000 C   0  0  0  0  0  0  0  0  0
   -4.8589   -1.3279    0.0000 C   0  0  0  0  0  0  0  0  0
   -5.5733   -1.7404    0.0000 C   0  0  0  0  0  0  0  0  0
   -5.5733   -2.5654    0.0000 O   0  0  0  0  0  0  0  0  0
   -4.8589   -2.9779    0.0000 C   0  0  0  0  0  0  0  0  0
   -4.8589   -3.8029    0.0000 C   0  0  0  0  0  0  0  0  0
   -4.1444   -4.2154    0.0000 C   0  0  0  0  0  0  0  0  0
   -4.1444   -5.0404    0.0000 N   0  0  0  0  0  0  0  0  0
   -3.4769   -5.5254    0.0000 C   0  0  0  0  0  0  0  0  0
   -3.7319   -6.3100    0.0000 C   0  0  0  0  0  0  0  0  0
   -4.5569   -6.3100    0.0000 C   0  0  0  0  0  0  0  0  0
   -4.8118   -5.5254    0.0000 C   0  0  0  0  0  0  0  0  0
   -6.2878   -1.3279    0.0000 C   0  0  0  0  0  0  0  0  0
   -6.2878   -0.5029    0.0000 C   0  0  0  0  0  0  0  0  0
  1  2  1  0  0  0  0
  2  3  4  0  0  0  0
  2  7  4  0  0  0  0
  3  4  4  0  0  0  0
  4  5  4  0  0  0  0
  5  6  4  0  0  0  0
  5  8  1  0  0  0  0
  6  7  4  0  0  0  0
  8  9  2  0  0  0  0
  8 10  1  0  0  0  0
 10 11  1  0  0  0  0
 10 16  1  0  0  0  0
 11 12  1  0  0  0  0
 12 13  2  0  0  0  0
 12 14  1  0  0  0  0
 14 15  1  0  0  0  0
 14 17  1  0  0  0  0
 15 16  1  0  0  0  0
 17 18  4  0  0  0  0
 17 31  4  0  0  0  0
 18 19  4  0  0  0  0
 19 20  4  0  0  0  0
 20 21  1  0  0  0  0
 20 30  4  0  0  0  0
 21 22  1  0  0  0  0
 22 23  1  0  0  0  0
 23 24  1  0  0  0  0
 24 25  1  0  0  0  0
 25 26  1  0  0  0  0
 25 29  1  0  0  0  0
 26 27  1  0  0  0  0
 27 28  1  0  0  0  0
 28 29  1  0  0  0  0
 30 31  4  0  0  0  0
M  END
>  <Name_Molregno>
405696

>  <HISTAMINE H1>
5.6

>  <HISTAMINE H3>
9.1

$$$$
405697
  Marvin  02231216192D 0   1.00000     0.00000     0

 32 35  0  0  0  0  0  0  0  0999 V2000
   -2.5165   -2.7409    0.0000 O   0  0  0  0  0  0  0  0  0
   -1.8021   -3.1534    0.0000 C   0  0  0  0  0  0  0  0  0
   -1.8021   -3.9784    0.0000 C   0  0  0  0  0  0  0  0  0
   -1.0876   -4.3909    0.0000 C   0  0  0  0  0  0  0  0  0
   -1.0876   -5.2159    0.0000 N   0  0  0  0  0  0  0  0  0
   -0.4201   -5.7008    0.0000 C   0  0  0  0  0  0  0  0  0
   -0.6751   -6.4854    0.0000 C   0  0  0  0  0  0  0  0  0
   -1.5001   -6.4854    0.0000 C   0  0  0  0  0  0  0  0  0
   -1.7550   -5.7008    0.0000 C   0  0  0  0  0  0  0  0  0
   -2.5165   -1.9159    0.0000 C   0  0  0  0  0  0  0  0  0
   -3.2310   -1.5034    0.0000 C   0  0  0  0  0  0  0  0  0
   -3.2310   -0.6784    0.0000 C   0  0  0  0  0  0  0  0  0
   -2.5165   -0.2659    0.0000 C   0  0  0  0  0  0  0  0  0
   -2.5165    0.5591    0.0000 N   0  0  0  0  0  0  0  0  0
   -3.2310    0.9716    0.0000 C   0  0  0  0  0  0  0  0  0
   -3.2310    1.7966    0.0000 C   0  0  0  0  0  0  0  0  0
   -2.5165    2.2091    0.0000 N   0  0  0  0  0  0  0  0  0
   -1.8021    1.7966    0.0000 C   0  0  0  0  0  0  0  0  0
   -1.8021    0.9716    0.0000 C   0  0  0  0  0  0  0  0  0
   -1.0876    0.5591    0.0000 O   0  0  0  0  0  0  0  0  0
   -2.5165    3.0341    0.0000 C   0  0  0  0  0  0  0  0  0
   -1.8021    3.4466    0.0000 O   0  0  0  0  0  0  0  0  0
   -3.2310    3.4466    0.0000 C   0  0  0  0  0  0  0  0  0
   -3.9455    3.0341    0.0000 C   0  0  0  0  0  0  0  0  0
   -4.6599    3.4466    0.0000 C   0  0  0  0  0  0  0  0  0
   -4.6599    4.2716    0.0000 C   0  0  0  0  0  0  0  0  0
   -3.9455    4.6841    0.0000 C   0  0  0  0  0  0  0  0  0
   -3.2310    4.2716    0.0000 C   0  0  0  0  0  0  0  0  0
   -5.3744    4.6841    0.0000 C   0  0  0  0  0  0  0  0  0
   -6.0889    5.0966    0.0000 N   0  0  0  0  0  0  0  0  0
   -1.8021   -0.6784    0.0000 C   0  0  0  0  0  0  0  0  0
   -1.8021   -1.5034    0.0000 C   0  0  0  0  0  0  0  0  0
  1  2  1  0  0  0  0
  1 10  1  0  0  0  0
  2  3  1  0  0  0  0
  3  4  1  0  0  0  0
  4  5  1  0  0  0  0
  5  6  1  0  0  0  0
  5  9  1  0  0  0  0
  6  7  1  0  0  0  0
  7  8  1  0  0  0  0
  8  9  1  0  0  0  0
 10 11  4  0  0  0  0
 10 32  4  0  0  0  0
 11 12  4  0  0  0  0
 12 13  4  0  0  0  0
 13 14  1  0  0  0  0
 13 31  4  0  0  0  0
 14 15  1  0  0  0  0
 14 19  1  0  0  0  0
 15 16  1  0  0  0  0
 16 17  1  0  0  0  0
 17 18  1  0  0  0  0
 17 21  1  0  0  0  0
 18 19  1  0  0  0  0
 19 20  2  0  0  0  0
 21 22  2  0  0  0  0
 21 23  1  0  0  0  0
 23 24  4  0  0  0  0
 23 28  4  0  0  0  0
 24 25  4  0  0  0  0
 25 26  4  0  0  0  0
 26 27  4  0  0  0  0
 26 29  1  0  0  0  0
 27 28  4  0  0  0  0
 29 30  3  0  0  0  0
 31 32  4  0  0  0  0
M  END
>  <Name_Molregno>
405697

>  <HISTAMINE H1>
5.6

>  <HISTAMINE H3>
8.2

$$$$
405698
  Marvin  02231216192D 0   1.00000     0.00000     0

 32 35  0  0  0  0  0  0  0  0999 V2000
    4.0244    7.1243    0.0000 F   0  0  0  0  0  0  0  0  0
    4.0244    6.2993    0.0000 C   0  0  0  0  0  0  0  0  0
    4.7389    5.8868    0.0000 C   0  0  0  0  0  0  0  0  0
    4.7389    5.0618    0.0000 C   0  0  0  0  0  0  0  0  0
    4.0244    4.6493    0.0000 C   0  0  0  0  0  0  0  0  0
    3.3100    5.0618    0.0000 C   0  0  0  0  0  0  0  0  0
    2.5955    4.6493    0.0000 F   0  0  0  0  0  0  0  0  0
    3.3100    5.8868    0.0000 C   0  0  0  0  0  0  0  0  0
    5.4534    4.6493    0.0000 C   0  0  0  0  0  0  0  0  0
    6.1678    5.0618    0.0000 O   0  0  0  0  0  0  0  0  0
    5.4534    3.8243    0.0000 N   0  0  0  0  0  0  0  0  0
    6.1678    3.4118    0.0000 C   0  0  0  0  0  0  0  0  0
    6.1678    2.5868    0.0000 C   0  0  0  0  0  0  0  0  0
    6.8823    2.1743    0.0000 O   0  0  0  0  0  0  0  0  0
    5.4534    2.1743    0.0000 N   0  0  0  0  0  0  0  0  0
    4.7389    2.5868    0.0000 C   0  0  0  0  0  0  0  0  0
    4.7389    3.4118    0.0000 C   0  0  0  0  0  0  0  0  0
    5.4534    1.3493    0.0000 C   0  0  0  0  0  0  0  0  0
    6.1678    0.9368    0.0000 C   0  0  0  0  0  0  0  0  0
    6.1678    0.1118    0.0000 C   0  0  0  0  0  0  0  0  0
    5.4534   -0.3007    0.0000 C   0  0  0  0  0  0  0  0  0
    5.4534   -1.1257    0.0000 O   0  0  0  0  0  0  0  0  0
    6.1678   -1.5382    0.0000 C   0  0  0  0  0  0  0  0  0
    6.1678   -2.3632    0.0000 C   0  0  0  0  0  0  0  0  0
    6.8823   -2.7757    0.0000 C   0  0  0  0  0  0  0  0  0
    6.8823   -3.6007    0.0000 N   0  0  0  0  0  0  0  0  0
    7.5497   -4.0856    0.0000 C   0  0  0  0  0  0  0  0  0
    7.2948   -4.8702    0.0000 C   0  0  0  0  0  0  0  0  0
    6.4698   -4.8702    0.0000 C   0  0  0  0  0  0  0  0  0
    6.2149   -4.0856    0.0000 C   0  0  0  0  0  0  0  0  0
    4.7389    0.1118    0.0000 C   0  0  0  0  0  0  0  0  0
    4.7389    0.9368    0.0000 C   0  0  0  0  0  0  0  0  0
  1  2  1  0  0  0  0
  2  3  4  0  0  0  0
  2  8  4  0  0  0  0
  3  4  4  0  0  0  0
  4  5  4  0  0  0  0
  4  9  1  0  0  0  0
  5  6  4  0  0  0  0
  6  7  1  0  0  0  0
  6  8  4  0  0  0  0
  9 10  2  0  0  0  0
  9 11  1  0  0  0  0
 11 12  1  0  0  0  0
 11 17  1  0  0  0  0
 12 13  1  0  0  0  0
 13 14  2  0  0  0  0
 13 15  1  0  0  0  0
 15 16  1  0  0  0  0
 15 18  1  0  0  0  0
 16 17  1  0  0  0  0
 18 19  4  0  0  0  0
 18 32  4  0  0  0  0
 19 20  4  0  0  0  0
 20 21  4  0  0  0  0
 21 22  1  0  0  0  0
 21 31  4  0  0  0  0
 22 23  1  0  0  0  0
 23 24  1  0  0  0  0
 24 25  1  0  0  0  0
 25 26  1  0  0  0  0
 26 27  1  0  0  0  0
 26 30  1  0  0  0  0
 27 28  1  0  0  0  0
 28 29  1  0  0  0  0
 29 30  1  0  0  0  0
 31 32  4  0  0  0  0
M  END
>  <Name_Molregno>
405698

>  <HISTAMINE H1>
5.7

>  <HISTAMINE H3>
8.7

$$$$
405699
  Marvin  02231216192D 0   1.00000     0.00000     0

 32 35  0  0  0  0  0  0  0  0999 V2000
   -6.0461    2.3882    0.0000 F   0  0  0  0  0  0  0  0  0
   -6.0461    3.2132    0.0000 C   0  0  0  0  0  0  0  0  0
   -6.7605    3.6257    0.0000 C   0  0  0  0  0  0  0  0  0
   -6.7605    4.4507    0.0000 C   0  0  0  0  0  0  0  0  0
   -7.4750    4.8632    0.0000 F   0  0  0  0  0  0  0  0  0
   -6.0461    4.8632    0.0000 C   0  0  0  0  0  0  0  0  0
   -5.3316    4.4507    0.0000 C   0  0  0  0  0  0  0  0  0
   -5.3316    3.6257    0.0000 C   0  0  0  0  0  0  0  0  0
   -4.6171    3.2132    0.0000 C   0  0  0  0  0  0  0  0  0
   -3.9027    3.6257    0.0000 O   0  0  0  0  0  0  0  0  0
   -4.6171    2.3882    0.0000 N   0  0  0  0  0  0  0  0  0
   -3.9027    1.9757    0.0000 C   0  0  0  0  0  0  0  0  0
   -3.9027    1.1507    0.0000 C   0  0  0  0  0  0  0  0  0
   -3.1882    0.7382    0.0000 O   0  0  0  0  0  0  0  0  0
   -4.6171    0.7382    0.0000 N   0  0  0  0  0  0  0  0  0
   -5.3316    1.1507    0.0000 C   0  0  0  0  0  0  0  0  0
   -5.3316    1.9757    0.0000 C   0  0  0  0  0  0  0  0  0
   -4.6171   -0.0868    0.0000 C   0  0  0  0  0  0  0  0  0
   -3.9027   -0.4993    0.0000 C   0  0  0  0  0  0  0  0  0
   -3.9027   -1.3243    0.0000 C   0  0  0  0  0  0  0  0  0
   -4.6171   -1.7368    0.0000 C   0  0  0  0  0  0  0  0  0
   -4.6171   -2.5618    0.0000 O   0  0  0  0  0  0  0  0  0
   -3.9027   -2.9743    0.0000 C   0  0  0  0  0  0  0  0  0
   -3.9027   -3.7993    0.0000 C   0  0  0  0  0  0  0  0  0
   -3.1882   -4.2118    0.0000 C   0  0  0  0  0  0  0  0  0
   -3.1882   -5.0368    0.0000 N   0  0  0  0  0  0  0  0  0
   -2.5207   -5.5217    0.0000 C   0  0  0  0  0  0  0  0  0
   -2.7757   -6.3063    0.0000 C   0  0  0  0  0  0  0  0  0
   -3.6007   -6.3063    0.0000 C   0  0  0  0  0  0  0  0  0
   -3.8556   -5.5217    0.0000 C   0  0  0  0  0  0  0  0  0
   -5.3316   -1.3243    0.0000 C   0  0  0  0  0  0  0  0  0
   -5.3316   -0.4993    0.0000 C   0  0  0  0  0  0  0  0  0
  1  2  1  0  0  0  0
  2  3  4  0  0  0  0
  2  8  4  0  0  0  0
  3  4  4  0  0  0  0
  4  5  1  0  0  0  0
  4  6  4  0  0  0  0
  6  7  4  0  0  0  0
  7  8  4  0  0  0  0
  8  9  1  0  0  0  0
  9 10  2  0  0  0  0
  9 11  1  0  0  0  0
 11 12  1  0  0  0  0
 11 17  1  0  0  0  0
 12 13  1  0  0  0  0
 13 14  2  0  0  0  0
 13 15  1  0  0  0  0
 15 16  1  0  0  0  0
 15 18  1  0  0  0  0
 16 17  1  0  0  0  0
 18 19  4  0  0  0  0
 18 32  4  0  0  0  0
 19 20  4  0  0  0  0
 20 21  4  0  0  0  0
 21 22  1  0  0  0  0
 21 31  4  0  0  0  0
 22 23  1  0  0  0  0
 23 24  1  0  0  0  0
 24 25  1  0  0  0  0
 25 26  1  0  0  0  0
 26 27  1  0  0  0  0
 26 30  1  0  0  0  0
 27 28  1  0  0  0  0
 28 29  1  0  0  0  0
 29 30  1  0  0  0  0
 31 32  4  0  0  0  0
M  END
>  <Name_Molregno>
405699

>  <HISTAMINE H1>
5.7

>  <HISTAMINE H3>
8.4

$$$$
405723
  Marvin  02231216192D 0   1.00000     0.00000     0

 33 36  0  0  0  0  0  0  0  0999 V2000
    9.0457    5.3466    0.0000 F   0  0  0  0  0  0  0  0  0
    9.0457    4.5216    0.0000 C   0  0  0  0  0  0  0  0  0
    9.7602    4.1091    0.0000 C   0  0  0  0  0  0  0  0  0
    9.7602    3.2841    0.0000 C   0  0  0  0  0  0  0  0  0
    9.0457    2.8716    0.0000 C   0  0  0  0  0  0  0  0  0
    8.3313    3.2841    0.0000 C   0  0  0  0  0  0  0  0  0
    8.3313    4.1091    0.0000 C   0  0  0  0  0  0  0  0  0
    9.0457    2.0466    0.0000 C   0  0  0  0  0  0  0  0  0
    9.7602    1.6341    0.0000 O   0  0  0  0  0  0  0  0  0
    8.3313    1.6341    0.0000 N   0  0  0  0  0  0  0  0  0
    8.3313    0.8091    0.0000 C   0  0  0  0  0  0  0  0  0
    7.6168    0.3966    0.0000 C   0  0  0  0  0  0  0  0  0
    7.6168   -0.4284    0.0000 O   0  0  0  0  0  0  0  0  0
    6.9023    0.8091    0.0000 N   0  0  0  0  0  0  0  0  0
    6.9023    1.6341    0.0000 C   0  0  0  0  0  0  0  0  0
    7.6168    2.0466    0.0000 C   0  0  0  0  0  0  0  0  0
    6.1878    0.3966    0.0000 C   0  0  0  0  0  0  0  0  0
    6.1878   -0.4284    0.0000 C   0  0  0  0  0  0  0  0  0
    5.4734   -0.8409    0.0000 C   0  0  0  0  0  0  0  0  0
    4.7589   -0.4284    0.0000 C   0  0  0  0  0  0  0  0  0
    4.0444   -0.8409    0.0000 O   0  0  0  0  0  0  0  0  0
    4.0444   -1.6659    0.0000 C   0  0  0  0  0  0  0  0  0
    3.3300   -2.0784    0.0000 C   0  0  0  0  0  0  0  0  0
    3.3300   -2.9034    0.0000 C   0  0  0  0  0  0  0  0  0
    2.6155   -3.3159    0.0000 N   0  0  0  0  0  0  0  0  0
    2.6771   -4.1385    0.0000 C   0  0  0  0  0  0  0  0  0
    2.0724   -4.6997    0.0000 C   0  0  0  0  0  0  0  0  0
    1.2566   -4.5767    0.0000 C   0  0  0  0  0  0  0  0  0
    0.8441   -3.8623    0.0000 C   0  0  0  0  0  0  0  0  0
    1.1455   -3.0943    0.0000 C   0  0  0  0  0  0  0  0  0
    1.9338   -2.8511    0.0000 C   0  0  0  0  0  0  0  0  0
    4.7589    0.3966    0.0000 C   0  0  0  0  0  0  0  0  0
    5.4734    0.8091    0.0000 C   0  0  0  0  0  0  0  0  0
  1  2  1  0  0  0  0
  2  3  4  0  0  0  0
  2  7  4  0  0  0  0
  3  4  4  0  0  0  0
  4  5  4  0  0  0  0
  5  6  4  0  0  0  0
  5  8  1  0  0  0  0
  6  7  4  0  0  0  0
  8  9  2  0  0  0  0
  8 10  1  0  0  0  0
 10 11  1  0  0  0  0
 10 16  1  0  0  0  0
 11 12  1  0  0  0  0
 12 13  2  0  0  0  0
 12 14  1  0  0  0  0
 14 15  1  0  0  0  0
 14 17  1  0  0  0  0
 15 16  1  0  0  0  0
 17 18  4  0  0  0  0
 17 33  4  0  0  0  0
 18 19  4  0  0  0  0
 19 20  4  0  0  0  0
 20 21  1  0  0  0  0
 20 32  4  0  0  0  0
 21 22  1  0  0  0  0
 22 23  1  0  0  0  0
 23 24  1  0  0  0  0
 24 25  1  0  0  0  0
 25 26  1  0  0  0  0
 25 31  1  0  0  0  0
 26 27  1  0  0  0  0
 27 28  1  0  0  0  0
 28 29  1  0  0  0  0
 29 30  1  0  0  0  0
 30 31  1  0  0  0  0
 32 33  4  0  0  0  0
M  END
>  <Name_Molregno>
405723

>  <HISTAMINE H1>
5.6

>  <HISTAMINE H3>
8.4

$$$$
405724
  Marvin  02231216192D 0   1.00000     0.00000     0

 34 37  0  0  0  0  0  0  0  0999 V2000
   -2.2200    2.2852    0.0000 O   0  0  0  0  0  0  0  0  0
   -2.9345    2.6977    0.0000 C   0  0  0  0  0  0  0  0  0
   -2.9345    3.5227    0.0000 C   0  0  0  0  0  0  0  0  0
   -3.6490    3.9352    0.0000 C   0  0  0  0  0  0  0  0  0
   -3.6490    4.7602    0.0000 N   0  0  0  0  0  0  0  0  0
   -4.3923    5.1181    0.0000 C   0  0  0  0  0  0  0  0  0
   -4.5759    5.9225    0.0000 C   0  0  0  0  0  0  0  0  0
   -4.0615    6.5675    0.0000 C   0  0  0  0  0  0  0  0  0
   -3.2365    6.5675    0.0000 C   0  0  0  0  0  0  0  0  0
   -2.7221    5.9225    0.0000 C   0  0  0  0  0  0  0  0  0
   -2.9057    5.1181    0.0000 C   0  0  0  0  0  0  0  0  0
   -2.2200    1.4602    0.0000 C   0  0  0  0  0  0  0  0  0
   -1.5056    1.0477    0.0000 C   0  0  0  0  0  0  0  0  0
   -1.5056    0.2227    0.0000 C   0  0  0  0  0  0  0  0  0
   -2.2200   -0.1898    0.0000 C   0  0  0  0  0  0  0  0  0
   -2.2200   -1.0148    0.0000 N   0  0  0  0  0  0  0  0  0
   -1.5056   -1.4273    0.0000 C   0  0  0  0  0  0  0  0  0
   -1.5056   -2.2523    0.0000 C   0  0  0  0  0  0  0  0  0
   -2.2200   -2.6648    0.0000 N   0  0  0  0  0  0  0  0  0
   -2.9345   -2.2523    0.0000 C   0  0  0  0  0  0  0  0  0
   -2.9345   -1.4273    0.0000 C   0  0  0  0  0  0  0  0  0
   -3.6490   -1.0148    0.0000 O   0  0  0  0  0  0  0  0  0
   -2.2200   -3.4898    0.0000 C   0  0  0  0  0  0  0  0  0
   -2.9345   -3.9023    0.0000 O   0  0  0  0  0  0  0  0  0
   -1.5056   -3.9023    0.0000 C   0  0  0  0  0  0  0  0  0
   -0.7911   -3.4898    0.0000 C   0  0  0  0  0  0  0  0  0
   -0.0766   -3.9023    0.0000 C   0  0  0  0  0  0  0  0  0
   -0.0766   -4.7273    0.0000 C   0  0  0  0  0  0  0  0  0
   -0.7911   -5.1398    0.0000 C   0  0  0  0  0  0  0  0  0
   -1.5056   -4.7273    0.0000 C   0  0  0  0  0  0  0  0  0
    0.6378   -5.1398    0.0000 C   0  0  0  0  0  0  0  0  0
    1.3523   -5.5523    0.0000 N   0  0  0  0  0  0  0  0  0
   -2.9345    0.2227    0.0000 C   0  0  0  0  0  0  0  0  0
   -2.9345    1.0477    0.0000 C   0  0  0  0  0  0  0  0  0
  1  2  1  0  0  0  0
  1 12  1  0  0  0  0
  2  3  1  0  0  0  0
  3  4  1  0  0  0  0
  4  5  1  0  0  0  0
  5  6  1  0  0  0  0
  5 11  1  0  0  0  0
  6  7  1  0  0  0  0
  7  8  1  0  0  0  0
  8  9  1  0  0  0  0
  9 10  1  0  0  0  0
 10 11  1  0  0  0  0
 12 13  4  0  0  0  0
 12 34  4  0  0  0  0
 13 14  4  0  0  0  0
 14 15  4  0  0  0  0
 15 16  1  0  0  0  0
 15 33  4  0  0  0  0
 16 17  1  0  0  0  0
 16 21  1  0  0  0  0
 17 18  1  0  0  0  0
 18 19  1  0  0  0  0
 19 20  1  0  0  0  0
 19 23  1  0  0  0  0
 20 21  1  0  0  0  0
 21 22  2  0  0  0  0
 23 24  2  0  0  0  0
 23 25  1  0  0  0  0
 25 26  4  0  0  0  0
 25 30  4  0  0  0  0
 26 27  4  0  0  0  0
 27 28  4  0  0  0  0
 28 29  4  0  0  0  0
 28 31  1  0  0  0  0
 29 30  4  0  0  0  0
 31 32  3  0  0  0  0
 33 34  4  0  0  0  0
M  END
>  <Name_Molregno>
405724

>  <HISTAMINE H1>
5.6

>  <HISTAMINE H3>
8.5

$$$$
405725
  Marvin  02231216192D 0   1.00000     0.00000     0

 34 37  0  0  0  0  0  0  0  0999 V2000
    4.2953    4.3177    0.0000 F   0  0  0  0  0  0  0  0  0
    4.2953    3.4927    0.0000 C   0  0  0  0  0  0  0  0  0
    5.0097    3.0802    0.0000 C   0  0  0  0  0  0  0  0  0
    5.0097    2.2552    0.0000 C   0  0  0  0  0  0  0  0  0
    4.2953    1.8427    0.0000 C   0  0  0  0  0  0  0  0  0
    3.5808    2.2552    0.0000 C   0  0  0  0  0  0  0  0  0
    2.8663    1.8427    0.0000 F   0  0  0  0  0  0  0  0  0
    3.5808    3.0802    0.0000 C   0  0  0  0  0  0  0  0  0
    5.7242    1.8427    0.0000 C   0  0  0  0  0  0  0  0  0
    6.4387    2.2552    0.0000 O   0  0  0  0  0  0  0  0  0
    5.7242    1.0177    0.0000 N   0  0  0  0  0  0  0  0  0
    6.4387    0.6052    0.0000 C   0  0  0  0  0  0  0  0  0
    6.4387   -0.2198    0.0000 C   0  0  0  0  0  0  0  0  0
    7.1532   -0.6323    0.0000 O   0  0  0  0  0  0  0  0  0
    5.7242   -0.6323    0.0000 N   0  0  0  0  0  0  0  0  0
    5.0097   -0.2198    0.0000 C   0  0  0  0  0  0  0  0  0
    5.0097    0.6052    0.0000 C   0  0  0  0  0  0  0  0  0
    5.7242   -1.4573    0.0000 C   0  0  0  0  0  0  0  0  0
    6.4387   -1.8698    0.0000 C   0  0  0  0  0  0  0  0  0
    6.4387   -2.6948    0.0000 C   0  0  0  0  0  0  0  0  0
    5.7242   -3.1073    0.0000 C   0  0  0  0  0  0  0  0  0
    5.7242   -3.9323    0.0000 O   0  0  0  0  0  0  0  0  0
    6.4387   -4.3448    0.0000 C   0  0  0  0  0  0  0  0  0
    6.4387   -5.1698    0.0000 C   0  0  0  0  0  0  0  0  0
    7.1532   -5.5823    0.0000 C   0  0  0  0  0  0  0  0  0
    7.1532   -6.4073    0.0000 N   0  0  0  0  0  0  0  0  0
    7.8965   -6.7652    0.0000 C   0  0  0  0  0  0  0  0  0
    8.0800   -7.5696    0.0000 C   0  0  0  0  0  0  0  0  0
    7.5657   -8.2146    0.0000 C   0  0  0  0  0  0  0  0  0
    6.7407   -8.2146    0.0000 C   0  0  0  0  0  0  0  0  0
    6.2263   -7.5696    0.0000 C   0  0  0  0  0  0  0  0  0
    6.4099   -6.7652    0.0000 C   0  0  0  0  0  0  0  0  0
    5.0097   -2.6948    0.0000 C   0  0  0  0  0  0  0  0  0
    5.0097   -1.8698    0.0000 C   0  0  0  0  0  0  0  0  0
  1  2  1  0  0  0  0
  2  3  4  0  0  0  0
  2  8  4  0  0  0  0
  3  4  4  0  0  0  0
  4  5  4  0  0  0  0
  4  9  1  0  0  0  0
  5  6  4  0  0  0  0
  6  7  1  0  0  0  0
  6  8  4  0  0  0  0
  9 10  2  0  0  0  0
  9 11  1  0  0  0  0
 11 12  1  0  0  0  0
 11 17  1  0  0  0  0
 12 13  1  0  0  0  0
 13 14  2  0  0  0  0
 13 15  1  0  0  0  0
 15 16  1  0  0  0  0
 15 18  1  0  0  0  0
 16 17  1  0  0  0  0
 18 19  4  0  0  0  0
 18 34  4  0  0  0  0
 19 20  4  0  0  0  0
 20 21  4  0  0  0  0
 21 22  1  0  0  0  0
 21 33  4  0  0  0  0
 22 23  1  0  0  0  0
 23 24  1  0  0  0  0
 24 25  1  0  0  0  0
 25 26  1  0  0  0  0
 26 27  1  0  0  0  0
 26 32  1  0  0  0  0
 27 28  1  0  0  0  0
 28 29  1  0  0  0  0
 29 30  1  0  0  0  0
 30 31  1  0  0  0  0
 31 32  1  0  0  0  0
 33 34  4  0  0  0  0
M  END
>  <Name_Molregno>
405725

>  <HISTAMINE H1>
5.6

>  <HISTAMINE H3>
8.3

$$$$
405726
  Marvin  02231216192D 0   1.00000     0.00000     0

 34 37  0  0  0  0  0  0  0  0999 V2000
    6.5151   -2.6216    0.0000 F   0  0  0  0  0  0  0  0  0
    6.5151   -3.4466    0.0000 C   0  0  0  0  0  0  0  0  0
    7.2296   -3.8591    0.0000 C   0  0  0  0  0  0  0  0  0
    7.2296   -4.6841    0.0000 C   0  0  0  0  0  0  0  0  0
    7.9441   -5.0966    0.0000 F   0  0  0  0  0  0  0  0  0
    6.5151   -5.0966    0.0000 C   0  0  0  0  0  0  0  0  0
    5.8006   -4.6841    0.0000 C   0  0  0  0  0  0  0  0  0
    5.8006   -3.8591    0.0000 C   0  0  0  0  0  0  0  0  0
    5.0862   -3.4466    0.0000 C   0  0  0  0  0  0  0  0  0
    4.3717   -3.8591    0.0000 O   0  0  0  0  0  0  0  0  0
    5.0862   -2.6216    0.0000 N   0  0  0  0  0  0  0  0  0
    4.3717   -2.2091    0.0000 C   0  0  0  0  0  0  0  0  0
    4.3717   -1.3841    0.0000 C   0  0  0  0  0  0  0  0  0
    3.6572   -0.9716    0.0000 O   0  0  0  0  0  0  0  0  0
    5.0862   -0.9716    0.0000 N   0  0  0  0  0  0  0  0  0
    5.8006   -1.3841    0.0000 C   0  0  0  0  0  0  0  0  0
    5.8006   -2.2091    0.0000 C   0  0  0  0  0  0  0  0  0
    5.0862   -0.1466    0.0000 C   0  0  0  0  0  0  0  0  0
    4.3717    0.2659    0.0000 C   0  0  0  0  0  0  0  0  0
    4.3717    1.0909    0.0000 C   0  0  0  0  0  0  0  0  0
    5.0862    1.5034    0.0000 C   0  0  0  0  0  0  0  0  0
    5.0862    2.3284    0.0000 O   0  0  0  0  0  0  0  0  0
    4.3717    2.7409    0.0000 C   0  0  0  0  0  0  0  0  0
    4.3717    3.5659    0.0000 C   0  0  0  0  0  0  0  0  0
    3.6572    3.9784    0.0000 C   0  0  0  0  0  0  0  0  0
    3.6572    4.8034    0.0000 N   0  0  0  0  0  0  0  0  0
    2.9139    5.1613    0.0000 C   0  0  0  0  0  0  0  0  0
    2.7303    5.9656    0.0000 C   0  0  0  0  0  0  0  0  0
    3.2447    6.6107    0.0000 C   0  0  0  0  0  0  0  0  0
    4.0697    6.6107    0.0000 C   0  0  0  0  0  0  0  0  0
    4.5841    5.9656    0.0000 C   0  0  0  0  0  0  0  0  0
    4.4005    5.1613    0.0000 C   0  0  0  0  0  0  0  0  0
    5.8006    1.0909    0.0000 C   0  0  0  0  0  0  0  0  0
    5.8006    0.2659    0.0000 C   0  0  0  0  0  0  0  0  0
  1  2  1  0  0  0  0
  2  3  4  0  0  0  0
  2  8  4  0  0  0  0
  3  4  4  0  0  0  0
  4  5  1  0  0  0  0
  4  6  4  0  0  0  0
  6  7  4  0  0  0  0
  7  8  4  0  0  0  0
  8  9  1  0  0  0  0
  9 10  2  0  0  0  0
  9 11  1  0  0  0  0
 11 12  1  0  0  0  0
 11 17  1  0  0  0  0
 12 13  1  0  0  0  0
 13 14  2  0  0  0  0
 13 15  1  0  0  0  0
 15 16  1  0  0  0  0
 15 18  1  0  0  0  0
 16 17  1  0  0  0  0
 18 19  4  0  0  0  0
 18 34  4  0  0  0  0
 19 20  4  0  0  0  0
 20 21  4  0  0  0  0
 21 22  1  0  0  0  0
 21 33  4  0  0  0  0
 22 23  1  0  0  0  0
 23 24  1  0  0  0  0
 24 25  1  0  0  0  0
 25 26  1  0  0  0  0
 26 27  1  0  0  0  0
 26 32  1  0  0  0  0
 27 28  1  0  0  0  0
 28 29  1  0  0  0  0
 29 30  1  0  0  0  0
 30 31  1  0  0  0  0
 31 32  1  0  0  0  0
 33 34  4  0  0  0  0
M  END
>  <Name_Molregno>
405726

>  <HISTAMINE H1>
5.6

>  <HISTAMINE H3>
8.1

$$$$
405732
  Marvin  02231216192D 0   1.00000     0.00000     0

 32 35  0  0  1  0  0  0  0  0999 V2000
    2.8519    5.0344    0.0000 F   0  0  0  0  0  0  0  0  0
    3.5663    4.6219    0.0000 C   0  0  0  0  0  0  0  0  0
    4.2808    5.0344    0.0000 C   0  0  0  0  0  0  0  0  0
    4.9953    4.6219    0.0000 C   0  0  0  0  0  0  0  0  0
    4.9953    3.7969    0.0000 C   0  0  0  0  0  0  0  0  0
    4.2808    3.3844    0.0000 C   0  0  0  0  0  0  0  0  0
    3.5663    3.7969    0.0000 C   0  0  0  0  0  0  0  0  0
    5.7098    3.3844    0.0000 C   0  0  0  0  0  0  0  0  0
    6.4242    3.7969    0.0000 O   0  0  0  0  0  0  0  0  0
    5.7098    2.5594    0.0000 N   0  0  0  0  0  0  0  0  0
    6.4242    2.1469    0.0000 C   0  0  0  0  0  0  0  0  0
    6.4242    1.3219    0.0000 C   0  0  0  0  0  0  0  0  0
    7.1387    0.9094    0.0000 O   0  0  0  0  0  0  0  0  0
    5.7098    0.9094    0.0000 N   0  0  0  0  0  0  0  0  0
    4.9953    1.3219    0.0000 C   0  0  0  0  0  0  0  0  0
    4.9953    2.1469    0.0000 C   0  0  0  0  0  0  0  0  0
    5.7098    0.0844    0.0000 C   0  0  0  0  0  0  0  0  0
    6.4242   -0.3281    0.0000 C   0  0  0  0  0  0  0  0  0
    6.4242   -1.1531    0.0000 C   0  0  0  0  0  0  0  0  0
    5.7098   -1.5656    0.0000 C   0  0  0  0  0  0  0  0  0
    5.7098   -2.3906    0.0000 O   0  0  0  0  0  0  0  0  0
    6.4242   -2.8031    0.0000 C   0  0  0  0  0  0  0  0  0
    6.4242   -3.6281    0.0000 C   0  0  0  0  0  0  0  0  0
    7.1387   -4.0406    0.0000 C   0  0  0  0  0  0  0  0  0
    7.1387   -4.8656    0.0000 N   0  0  0  0  0  0  0  0  0
    7.8061   -5.3505    0.0000 C   0  0  0  0  0  0  0  0  0
    7.5512   -6.1351    0.0000 C   0  0  0  0  0  0  0  0  0
    6.7262   -6.1351    0.0000 C   0  0  0  0  0  0  0  0  0
    6.4713   -5.3505    0.0000 C   0  0  0  0  0  0  0  0  0
    5.6866   -5.0956    0.0000 C   0  0  0  0  0  0  0  0  0
    4.9953   -1.1531    0.0000 C   0  0  0  0  0  0  0  0  0
    4.9953   -0.3281    0.0000 C   0  0  0  0  0  0  0  0  0
  1  2  1  0  0  0  0
  2  3  4  0  0  0  0
  2  7  4  0  0  0  0
  3  4  4  0  0  0  0
  4  5  4  0  0  0  0
  5  6  4  0  0  0  0
  5  8  1  0  0  0  0
  6  7  4  0  0  0  0
  8  9  2  0  0  0  0
  8 10  1  0  0  0  0
 10 11  1  0  0  0  0
 10 16  1  0  0  0  0
 11 12  1  0  0  0  0
 12 13  2  0  0  0  0
 12 14  1  0  0  0  0
 14 15  1  0  0  0  0
 14 17  1  0  0  0  0
 15 16  1  0  0  0  0
 17 18  4  0  0  0  0
 17 32  4  0  0  0  0
 18 19  4  0  0  0  0
 19 20  4  0  0  0  0
 20 21  1  0  0  0  0
 20 31  4  0  0  0  0
 21 22  1  0  0  0  0
 22 23  1  0  0  0  0
 23 24  1  0  0  0  0
 24 25  1  0  0  0  0
 25 26  1  0  0  0  0
 25 29  1  0  0  0  0
 26 27  1  0  0  0  0
 27 28  1  0  0  0  0
 28 29  1  0  0  0  0
 29 30  1  0  0  0  0
 31 32  4  0  0  0  0
M  END
>  <Name_Molregno>
405732

>  <Alpha-1A>
5.8

>  <Alpha-1B>
5.8

>  <HISTAMINE H1>
5.7

>  <HISTAMINE H3>
8.85

$$$$
405733
  Marvin  02231216192D 0   1.00000     0.00000     0

 33 36  0  0  1  0  0  0  0  0999 V2000
   -2.3591   -2.5305    0.0000 O   0  0  0  0  0  0  0  0  0
   -1.6446   -2.9430    0.0000 C   0  0  0  0  0  0  0  0  0
   -1.6446   -3.7680    0.0000 C   0  0  0  0  0  0  0  0  0
   -0.9301   -4.1805    0.0000 C   0  0  0  0  0  0  0  0  0
   -0.9301   -5.0055    0.0000 N   0  0  0  0  0  0  0  0  0
   -0.2627   -5.4904    0.0000 C   0  0  0  0  0  0  0  0  0
   -0.5176   -6.2750    0.0000 C   0  0  0  0  0  0  0  0  0
   -1.3426   -6.2750    0.0000 C   0  0  0  0  0  0  0  0  0
   -1.5976   -5.4904    0.0000 C   0  0  0  0  0  0  0  0  0
   -2.3822   -5.2355    0.0000 C   0  0  0  0  0  0  0  0  0
   -2.3591   -1.7055    0.0000 C   0  0  0  0  0  0  0  0  0
   -3.0735   -1.2930    0.0000 C   0  0  0  0  0  0  0  0  0
   -3.0735   -0.4680    0.0000 C   0  0  0  0  0  0  0  0  0
   -2.3591   -0.0555    0.0000 C   0  0  0  0  0  0  0  0  0
   -2.3591    0.7695    0.0000 N   0  0  0  0  0  0  0  0  0
   -3.0735    1.1820    0.0000 C   0  0  0  0  0  0  0  0  0
   -3.0735    2.0070    0.0000 C   0  0  0  0  0  0  0  0  0
   -2.3591    2.4195    0.0000 N   0  0  0  0  0  0  0  0  0
   -1.6446    2.0070    0.0000 C   0  0  0  0  0  0  0  0  0
   -1.6446    1.1820    0.0000 C   0  0  0  0  0  0  0  0  0
   -0.9301    0.7695    0.0000 O   0  0  0  0  0  0  0  0  0
   -2.3591    3.2445    0.0000 C   0  0  0  0  0  0  0  0  0
   -1.6446    3.6570    0.0000 O   0  0  0  0  0  0  0  0  0
   -3.0735    3.6570    0.0000 C   0  0  0  0  0  0  0  0  0
   -3.7880    3.2445    0.0000 C   0  0  0  0  0  0  0  0  0
   -4.5025    3.6570    0.0000 C   0  0  0  0  0  0  0  0  0
   -4.5025    4.4820    0.0000 C   0  0  0  0  0  0  0  0  0
   -3.7880    4.8945    0.0000 C   0  0  0  0  0  0  0  0  0
   -3.0735    4.4820    0.0000 C   0  0  0  0  0  0  0  0  0
   -5.2169    4.8945    0.0000 C   0  0  0  0  0  0  0  0  0
   -5.9314    5.3070    0.0000 N   0  0  0  0  0  0  0  0  0
   -1.6446   -0.4680    0.0000 C   0  0  0  0  0  0  0  0  0
   -1.6446   -1.2930    0.0000 C   0  0  0  0  0  0  0  0  0
  1  2  1  0  0  0  0
  1 11  1  0  0  0  0
  2  3  1  0  0  0  0
  3  4  1  0  0  0  0
  4  5  1  0  0  0  0
  5  6  1  0  0  0  0
  5  9  1  0  0  0  0
  6  7  1  0  0  0  0
  7  8  1  0  0  0  0
  8  9  1  0  0  0  0
  9 10  1  0  0  0  0
 11 12  4  0  0  0  0
 11 33  4  0  0  0  0
 12 13  4  0  0  0  0
 13 14  4  0  0  0  0
 14 15  1  0  0  0  0
 14 32  4  0  0  0  0
 15 16  1  0  0  0  0
 15 20  1  0  0  0  0
 16 17  1  0  0  0  0
 17 18  1  0  0  0  0
 18 19  1  0  0  0  0
 18 22  1  0  0  0  0
 19 20  1  0  0  0  0
 20 21  2  0  0  0  0
 22 23  2  0  0  0  0
 22 24  1  0  0  0  0
 24 25  4  0  0  0  0
 24 29  4  0  0  0  0
 25 26  4  0  0  0  0
 26 27  4  0  0  0  0
 27 28  4  0  0  0  0
 27 30  1  0  0  0  0
 28 29  4  0  0  0  0
 30 31  3  0  0  0  0
 32 33  4  0  0  0  0
M  END
>  <Name_Molregno>
405733

>  <Alpha-1A>
5.7

>  <Alpha-1B>
6.1

>  <HISTAMINE H1>
5.65

>  <HISTAMINE H3>
9.05

$$$$
405735
  Marvin  02231216192D 0   1.00000     0.00000     0

 33 36  0  0  1  0  0  0  0  0999 V2000
    4.2015    7.2978    0.0000 F   0  0  0  0  0  0  0  0  0
    4.2015    6.4728    0.0000 C   0  0  0  0  0  0  0  0  0
    4.9160    6.0603    0.0000 C   0  0  0  0  0  0  0  0  0
    4.9160    5.2353    0.0000 C   0  0  0  0  0  0  0  0  0
    4.2015    4.8228    0.0000 C   0  0  0  0  0  0  0  0  0
    3.4871    5.2353    0.0000 C   0  0  0  0  0  0  0  0  0
    2.7726    4.8228    0.0000 F   0  0  0  0  0  0  0  0  0
    3.4871    6.0603    0.0000 C   0  0  0  0  0  0  0  0  0
    5.6305    4.8228    0.0000 C   0  0  0  0  0  0  0  0  0
    6.3450    5.2353    0.0000 O   0  0  0  0  0  0  0  0  0
    5.6305    3.9978    0.0000 N   0  0  0  0  0  0  0  0  0
    6.3450    3.5853    0.0000 C   0  0  0  0  0  0  0  0  0
    6.3450    2.7603    0.0000 C   0  0  0  0  0  0  0  0  0
    7.0594    2.3478    0.0000 O   0  0  0  0  0  0  0  0  0
    5.6305    2.3478    0.0000 N   0  0  0  0  0  0  0  0  0
    4.9160    2.7603    0.0000 C   0  0  0  0  0  0  0  0  0
    4.9160    3.5853    0.0000 C   0  0  0  0  0  0  0  0  0
    5.6305    1.5228    0.0000 C   0  0  0  0  0  0  0  0  0
    6.3450    1.1103    0.0000 C   0  0  0  0  0  0  0  0  0
    6.3450    0.2853    0.0000 C   0  0  0  0  0  0  0  0  0
    5.6305   -0.1272    0.0000 C   0  0  0  0  0  0  0  0  0
    5.6305   -0.9522    0.0000 O   0  0  0  0  0  0  0  0  0
    6.3450   -1.3647    0.0000 C   0  0  0  0  0  0  0  0  0
    6.3450   -2.1897    0.0000 C   0  0  0  0  0  0  0  0  0
    7.0594   -2.6022    0.0000 C   0  0  0  0  0  0  0  0  0
    7.0594   -3.4272    0.0000 N   0  0  0  0  0  0  0  0  0
    7.7269   -3.9121    0.0000 C   0  0  0  0  0  0  0  0  0
    7.4719   -4.6967    0.0000 C   0  0  0  0  0  0  0  0  0
    6.6469   -4.6967    0.0000 C   0  0  0  0  0  0  0  0  0
    6.3920   -3.9121    0.0000 C   0  0  0  0  0  0  0  0  0
    5.6074   -3.6572    0.0000 C   0  0  0  0  0  0  0  0  0
    4.9160    0.2853    0.0000 C   0  0  0  0  0  0  0  0  0
    4.9160    1.1103    0.0000 C   0  0  0  0  0  0  0  0  0
  1  2  1  0  0  0  0
  2  3  4  0  0  0  0
  2  8  4  0  0  0  0
  3  4  4  0  0  0  0
  4  5  4  0  0  0  0
  4  9  1  0  0  0  0
  5  6  4  0  0  0  0
  6  7  1  0  0  0  0
  6  8  4  0  0  0  0
  9 10  2  0  0  0  0
  9 11  1  0  0  0  0
 11 12  1  0  0  0  0
 11 17  1  0  0  0  0
 12 13  1  0  0  0  0
 13 14  2  0  0  0  0
 13 15  1  0  0  0  0
 15 16  1  0  0  0  0
 15 18  1  0  0  0  0
 16 17  1  0  0  0  0
 18 19  4  0  0  0  0
 18 33  4  0  0  0  0
 19 20  4  0  0  0  0
 20 21  4  0  0  0  0
 21 22  1  0  0  0  0
 21 32  4  0  0  0  0
 22 23  1  0  0  0  0
 23 24  1  0  0  0  0
 24 25  1  0  0  0  0
 25 26  1  0  0  0  0
 26 27  1  0  0  0  0
 26 30  1  0  0  0  0
 27 28  1  0  0  0  0
 28 29  1  0  0  0  0
 29 30  1  0  0  0  0
 30 31  1  0  0  0  0
 32 33  4  0  0  0  0
M  END
>  <Name_Molregno>
405735

>  <Alpha-1A>
5

>  <Alpha-1B>
5.8

>  <HISTAMINE H1>
5.65

>  <HISTAMINE H3>
8.75

$$$$
405736
  Marvin  02231216192D 0   1.00000     0.00000     0

 33 36  0  0  1  0  0  0  0  0999 V2000
    3.3914    2.6255    0.0000 F   0  0  0  0  0  0  0  0  0
    3.3914    3.4505    0.0000 C   0  0  0  0  0  0  0  0  0
    2.6770    3.8630    0.0000 C   0  0  0  0  0  0  0  0  0
    2.6770    4.6880    0.0000 C   0  0  0  0  0  0  0  0  0
    1.9625    5.1005    0.0000 F   0  0  0  0  0  0  0  0  0
    3.3914    5.1005    0.0000 C   0  0  0  0  0  0  0  0  0
    4.1059    4.6880    0.0000 C   0  0  0  0  0  0  0  0  0
    4.1059    3.8630    0.0000 C   0  0  0  0  0  0  0  0  0
    4.8204    3.4505    0.0000 C   0  0  0  0  0  0  0  0  0
    5.5348    3.8630    0.0000 O   0  0  0  0  0  0  0  0  0
    4.8204    2.6255    0.0000 N   0  0  0  0  0  0  0  0  0
    5.5348    2.2130    0.0000 C   0  0  0  0  0  0  0  0  0
    5.5348    1.3880    0.0000 C   0  0  0  0  0  0  0  0  0
    6.2493    0.9755    0.0000 O   0  0  0  0  0  0  0  0  0
    4.8204    0.9755    0.0000 N   0  0  0  0  0  0  0  0  0
    4.1059    1.3880    0.0000 C   0  0  0  0  0  0  0  0  0
    4.1059    2.2130    0.0000 C   0  0  0  0  0  0  0  0  0
    4.8204    0.1505    0.0000 C   0  0  0  0  0  0  0  0  0
    5.5348   -0.2620    0.0000 C   0  0  0  0  0  0  0  0  0
    5.5348   -1.0870    0.0000 C   0  0  0  0  0  0  0  0  0
    4.8204   -1.4995    0.0000 C   0  0  0  0  0  0  0  0  0
    4.8204   -2.3245    0.0000 O   0  0  0  0  0  0  0  0  0
    5.5348   -2.7370    0.0000 C   0  0  0  0  0  0  0  0  0
    5.5348   -3.5620    0.0000 C   0  0  0  0  0  0  0  0  0
    6.2493   -3.9745    0.0000 C   0  0  0  0  0  0  0  0  0
    6.2493   -4.7995    0.0000 N   0  0  0  0  0  0  0  0  0
    6.9168   -5.2844    0.0000 C   0  0  0  0  0  0  0  0  0
    6.6618   -6.0690    0.0000 C   0  0  0  0  0  0  0  0  0
    5.8368   -6.0690    0.0000 C   0  0  0  0  0  0  0  0  0
    5.5819   -5.2844    0.0000 C   0  0  0  0  0  0  0  0  0
    4.7973   -5.0295    0.0000 C   0  0  0  0  0  0  0  0  0
    4.1059   -1.0870    0.0000 C   0  0  0  0  0  0  0  0  0
    4.1059   -0.2620    0.0000 C   0  0  0  0  0  0  0  0  0
  1  2  1  0  0  0  0
  2  3  4  0  0  0  0
  2  8  4  0  0  0  0
  3  4  4  0  0  0  0
  4  5  1  0  0  0  0
  4  6  4  0  0  0  0
  6  7  4  0  0  0  0
  7  8  4  0  0  0  0
  8  9  1  0  0  0  0
  9 10  2  0  0  0  0
  9 11  1  0  0  0  0
 11 12  1  0  0  0  0
 11 17  1  0  0  0  0
 12 13  1  0  0  0  0
 13 14  2  0  0  0  0
 13 15  1  0  0  0  0
 15 16  1  0  0  0  0
 15 18  1  0  0  0  0
 16 17  1  0  0  0  0
 18 19  4  0  0  0  0
 18 33  4  0  0  0  0
 19 20  4  0  0  0  0
 20 21  4  0  0  0  0
 21 22  1  0  0  0  0
 21 32  4  0  0  0  0
 22 23  1  0  0  0  0
 23 24  1  0  0  0  0
 24 25  1  0  0  0  0
 25 26  1  0  0  0  0
 26 27  1  0  0  0  0
 26 30  1  0  0  0  0
 27 28  1  0  0  0  0
 28 29  1  0  0  0  0
 29 30  1  0  0  0  0
 30 31  1  0  0  0  0
 32 33  4  0  0  0  0
M  END
>  <Name_Molregno>
405736

>  <Alpha-1A>
5.7

>  <Alpha-1B>
6.1

>  <HISTAMINE H1>
5.65

>  <HISTAMINE H3>
8.85

$$$$
405749
  Marvin  02231216192D 0   1.00000     0.00000     0

 33 36  0  0  0  0  0  0  0  0999 V2000
   -5.7766   -0.6840    0.0000 O   0  0  0  0  0  0  0  0  0
   -5.7766   -1.5090    0.0000 C   0  0  0  0  0  0  0  0  0
   -5.0622   -1.9215    0.0000 C   0  0  0  0  0  0  0  0  0
   -5.0622   -2.7465    0.0000 C   0  0  0  0  0  0  0  0  0
   -5.7766   -3.1590    0.0000 N   0  0  0  0  0  0  0  0  0
   -6.4911   -2.7465    0.0000 C   0  0  0  0  0  0  0  0  0
   -6.4911   -1.9215    0.0000 C   0  0  0  0  0  0  0  0  0
   -5.7766   -3.9840    0.0000 C   0  0  0  0  0  0  0  0  0
   -6.4911   -4.3965    0.0000 C   0  0  0  0  0  0  0  0  0
   -5.0622   -4.3965    0.0000 C   0  0  0  0  0  0  0  0  0
   -5.0622   -0.2715    0.0000 C   0  0  0  0  0  0  0  0  0
   -5.0622    0.5535    0.0000 C   0  0  0  0  0  0  0  0  0
   -4.3477    0.9660    0.0000 C   0  0  0  0  0  0  0  0  0
   -3.6332    0.5535    0.0000 C   0  0  0  0  0  0  0  0  0
   -2.9188    0.9660    0.0000 N   0  0  0  0  0  0  0  0  0
   -2.9188    1.7910    0.0000 C   0  0  0  0  0  0  0  0  0
   -2.2043    2.2035    0.0000 C   0  0  0  0  0  0  0  0  0
   -1.4898    1.7910    0.0000 N   0  0  0  0  0  0  0  0  0
   -1.4898    0.9660    0.0000 C   0  0  0  0  0  0  0  0  0
   -2.2043    0.5535    0.0000 C   0  0  0  0  0  0  0  0  0
   -2.2043   -0.2715    0.0000 O   0  0  0  0  0  0  0  0  0
   -0.7753    2.2035    0.0000 C   0  0  0  0  0  0  0  0  0
   -0.7753    3.0285    0.0000 O   0  0  0  0  0  0  0  0  0
   -0.0609    1.7910    0.0000 C   0  0  0  0  0  0  0  0  0
    0.6536    2.2035    0.0000 C   0  0  0  0  0  0  0  0  0
    1.3681    1.7910    0.0000 C   0  0  0  0  0  0  0  0  0
    1.3681    0.9660    0.0000 C   0  0  0  0  0  0  0  0  0
    0.6536    0.5535    0.0000 C   0  0  0  0  0  0  0  0  0
   -0.0609    0.9660    0.0000 C   0  0  0  0  0  0  0  0  0
    2.0825    0.5535    0.0000 C   0  0  0  0  0  0  0  0  0
    2.7970    0.1410    0.0000 N   0  0  0  0  0  0  0  0  0
   -3.6332   -0.2715    0.0000 C   0  0  0  0  0  0  0  0  0
   -4.3477   -0.6840    0.0000 C   0  0  0  0  0  0  0  0  0
  1  2  1  0  0  0  0
  1 11  1  0  0  0  0
  2  3  1  0  0  0  0
  2  7  1  0  0  0  0
  3  4  1  0  0  0  0
  4  5  1  0  0  0  0
  5  6  1  0  0  0  0
  5  8  1  0  0  0  0
  6  7  1  0  0  0  0
  8  9  1  0  0  0  0
  8 10  1  0  0  0  0
 11 12  4  0  0  0  0
 11 33  4  0  0  0  0
 12 13  4  0  0  0  0
 13 14  4  0  0  0  0
 14 15  1  0  0  0  0
 14 32  4  0  0  0  0
 15 16  1  0  0  0  0
 15 20  1  0  0  0  0
 16 17  1  0  0  0  0
 17 18  1  0  0  0  0
 18 19  1  0  0  0  0
 18 22  1  0  0  0  0
 19 20  1  0  0  0  0
 20 21  2  0  0  0  0
 22 23  2  0  0  0  0
 22 24  1  0  0  0  0
 24 25  4  0  0  0  0
 24 29  4  0  0  0  0
 25 26  4  0  0  0  0
 26 27  4  0  0  0  0
 27 28  4  0  0  0  0
 27 30  1  0  0  0  0
 28 29  4  0  0  0  0
 30 31  3  0  0  0  0
 32 33  4  0  0  0  0
M  END
>  <Name_Molregno>
405749

>  <HISTAMINE H1>
5.5

>  <HISTAMINE H3>
9.1

$$$$
405750
  Marvin  02231216192D 0   1.00000     0.00000     0

 33 36  0  0  0  0  0  0  0  0999 V2000
    4.8185    4.1878    0.0000 F   0  0  0  0  0  0  0  0  0
    4.8185    3.3628    0.0000 C   0  0  0  0  0  0  0  0  0
    5.5330    2.9503    0.0000 C   0  0  0  0  0  0  0  0  0
    5.5330    2.1253    0.0000 C   0  0  0  0  0  0  0  0  0
    4.8185    1.7128    0.0000 C   0  0  0  0  0  0  0  0  0
    4.1040    2.1253    0.0000 C   0  0  0  0  0  0  0  0  0
    3.3896    1.7128    0.0000 F   0  0  0  0  0  0  0  0  0
    4.1040    2.9503    0.0000 C   0  0  0  0  0  0  0  0  0
    6.2474    1.7128    0.0000 C   0  0  0  0  0  0  0  0  0
    6.9619    2.1253    0.0000 O   0  0  0  0  0  0  0  0  0
    6.2474    0.8878    0.0000 N   0  0  0  0  0  0  0  0  0
    6.9619    0.4753    0.0000 C   0  0  0  0  0  0  0  0  0
    6.9619   -0.3497    0.0000 C   0  0  0  0  0  0  0  0  0
    7.6764   -0.7622    0.0000 O   0  0  0  0  0  0  0  0  0
    6.2474   -0.7622    0.0000 N   0  0  0  0  0  0  0  0  0
    5.5330   -0.3497    0.0000 C   0  0  0  0  0  0  0  0  0
    5.5330    0.4753    0.0000 C   0  0  0  0  0  0  0  0  0
    6.2474   -1.5872    0.0000 C   0  0  0  0  0  0  0  0  0
    6.9619   -1.9997    0.0000 C   0  0  0  0  0  0  0  0  0
    6.9619   -2.8247    0.0000 C   0  0  0  0  0  0  0  0  0
    6.2474   -3.2372    0.0000 C   0  0  0  0  0  0  0  0  0
    6.2474   -4.0622    0.0000 O   0  0  0  0  0  0  0  0  0
    5.5330   -4.4747    0.0000 C   0  0  0  0  0  0  0  0  0
    5.5330   -5.2997    0.0000 C   0  0  0  0  0  0  0  0  0
    4.8185   -5.7122    0.0000 C   0  0  0  0  0  0  0  0  0
    4.1040   -5.2997    0.0000 N   0  0  0  0  0  0  0  0  0
    4.1040   -4.4747    0.0000 C   0  0  0  0  0  0  0  0  0
    4.8185   -4.0622    0.0000 C   0  0  0  0  0  0  0  0  0
    3.3896   -5.7122    0.0000 C   0  0  0  0  0  0  0  0  0
    3.3896   -6.5372    0.0000 C   0  0  0  0  0  0  0  0  0
    2.6751   -5.2997    0.0000 C   0  0  0  0  0  0  0  0  0
    5.5330   -2.8247    0.0000 C   0  0  0  0  0  0  0  0  0
    5.5330   -1.9997    0.0000 C   0  0  0  0  0  0  0  0  0
  1  2  1  0  0  0  0
  2  3  4  0  0  0  0
  2  8  4  0  0  0  0
  3  4  4  0  0  0  0
  4  5  4  0  0  0  0
  4  9  1  0  0  0  0
  5  6  4  0  0  0  0
  6  7  1  0  0  0  0
  6  8  4  0  0  0  0
  9 10  2  0  0  0  0
  9 11  1  0  0  0  0
 11 12  1  0  0  0  0
 11 17  1  0  0  0  0
 12 13  1  0  0  0  0
 13 14  2  0  0  0  0
 13 15  1  0  0  0  0
 15 16  1  0  0  0  0
 15 18  1  0  0  0  0
 16 17  1  0  0  0  0
 18 19  4  0  0  0  0
 18 33  4  0  0  0  0
 19 20  4  0  0  0  0
 20 21  4  0  0  0  0
 21 22  1  0  0  0  0
 21 32  4  0  0  0  0
 22 23  1  0  0  0  0
 23 24  1  0  0  0  0
 23 28  1  0  0  0  0
 24 25  1  0  0  0  0
 25 26  1  0  0  0  0
 26 27  1  0  0  0  0
 26 29  1  0  0  0  0
 27 28  1  0  0  0  0
 29 30  1  0  0  0  0
 29 31  1  0  0  0  0
 32 33  4  0  0  0  0
M  END
>  <Name_Molregno>
405750

>  <HISTAMINE H1>
5.6

>  <HISTAMINE H3>
8.7

$$$$
405751
  Marvin  02231216192D 0   1.00000     0.00000     0

 33 36  0  0  0  0  0  0  0  0999 V2000
   -3.8861   -3.0150    0.0000 F   0  0  0  0  0  0  0  0  0
   -3.8861   -3.8400    0.0000 C   0  0  0  0  0  0  0  0  0
   -3.1717   -4.2525    0.0000 C   0  0  0  0  0  0  0  0  0
   -3.1717   -5.0775    0.0000 C   0  0  0  0  0  0  0  0  0
   -2.4572   -5.4900    0.0000 F   0  0  0  0  0  0  0  0  0
   -3.8861   -5.4900    0.0000 C   0  0  0  0  0  0  0  0  0
   -4.6006   -5.0775    0.0000 C   0  0  0  0  0  0  0  0  0
   -4.6006   -4.2525    0.0000 C   0  0  0  0  0  0  0  0  0
   -5.3151   -3.8400    0.0000 C   0  0  0  0  0  0  0  0  0
   -6.0295   -4.2525    0.0000 O   0  0  0  0  0  0  0  0  0
   -5.3151   -3.0150    0.0000 N   0  0  0  0  0  0  0  0  0
   -6.0295   -2.6025    0.0000 C   0  0  0  0  0  0  0  0  0
   -6.0295   -1.7775    0.0000 C   0  0  0  0  0  0  0  0  0
   -6.7440   -1.3650    0.0000 O   0  0  0  0  0  0  0  0  0
   -5.3151   -1.3650    0.0000 N   0  0  0  0  0  0  0  0  0
   -4.6006   -1.7775    0.0000 C   0  0  0  0  0  0  0  0  0
   -4.6006   -2.6025    0.0000 C   0  0  0  0  0  0  0  0  0
   -5.3151   -0.5400    0.0000 C   0  0  0  0  0  0  0  0  0
   -6.0295   -0.1275    0.0000 C   0  0  0  0  0  0  0  0  0
   -6.0295    0.6975    0.0000 C   0  0  0  0  0  0  0  0  0
   -5.3151    1.1100    0.0000 C   0  0  0  0  0  0  0  0  0
   -5.3151    1.9350    0.0000 O   0  0  0  0  0  0  0  0  0
   -4.6006    2.3475    0.0000 C   0  0  0  0  0  0  0  0  0
   -4.6006    3.1725    0.0000 C   0  0  0  0  0  0  0  0  0
   -3.8861    3.5850    0.0000 C   0  0  0  0  0  0  0  0  0
   -3.1717    3.1725    0.0000 N   0  0  0  0  0  0  0  0  0
   -3.1717    2.3475    0.0000 C   0  0  0  0  0  0  0  0  0
   -3.8861    1.9350    0.0000 C   0  0  0  0  0  0  0  0  0
   -2.4572    3.5850    0.0000 C   0  0  0  0  0  0  0  0  0
   -2.4572    4.4100    0.0000 C   0  0  0  0  0  0  0  0  0
   -1.7427    3.1725    0.0000 C   0  0  0  0  0  0  0  0  0
   -4.6006    0.6975    0.0000 C   0  0  0  0  0  0  0  0  0
   -4.6006   -0.1275    0.0000 C   0  0  0  0  0  0  0  0  0
  1  2  1  0  0  0  0
  2  3  4  0  0  0  0
  2  8  4  0  0  0  0
  3  4  4  0  0  0  0
  4  5  1  0  0  0  0
  4  6  4  0  0  0  0
  6  7  4  0  0  0  0
  7  8  4  0  0  0  0
  8  9  1  0  0  0  0
  9 10  2  0  0  0  0
  9 11  1  0  0  0  0
 11 12  1  0  0  0  0
 11 17  1  0  0  0  0
 12 13  1  0  0  0  0
 13 14  2  0  0  0  0
 13 15  1  0  0  0  0
 15 16  1  0  0  0  0
 15 18  1  0  0  0  0
 16 17  1  0  0  0  0
 18 19  4  0  0  0  0
 18 33  4  0  0  0  0
 19 20  4  0  0  0  0
 20 21  4  0  0  0  0
 21 22  1  0  0  0  0
 21 32  4  0  0  0  0
 22 23  1  0  0  0  0
 23 24  1  0  0  0  0
 23 28  1  0  0  0  0
 24 25  1  0  0  0  0
 25 26  1  0  0  0  0
 26 27  1  0  0  0  0
 26 29  1  0  0  0  0
 27 28  1  0  0  0  0
 29 30  1  0  0  0  0
 29 31  1  0  0  0  0
 32 33  4  0  0  0  0
M  END
>  <Name_Molregno>
405751

>  <HISTAMINE H1>
5.6

>  <HISTAMINE H3>
8.4

$$$$
405758
  Marvin  02231216192D 0   1.00000     0.00000     0

 34 38  0  0  0  0  0  0  0  0999 V2000
   -5.5368   -0.1259    0.0000 O   0  0  0  0  0  0  0  0  0
   -5.5368   -0.9509    0.0000 C   0  0  0  0  0  0  0  0  0
   -4.8223   -1.3634    0.0000 C   0  0  0  0  0  0  0  0  0
   -4.8223   -2.1884    0.0000 C   0  0  0  0  0  0  0  0  0
   -5.5368   -2.6009    0.0000 N   0  0  0  0  0  0  0  0  0
   -6.2513   -2.1884    0.0000 C   0  0  0  0  0  0  0  0  0
   -6.2513   -1.3634    0.0000 C   0  0  0  0  0  0  0  0  0
   -5.5368   -3.4259    0.0000 C   0  0  0  0  0  0  0  0  0
   -4.9534   -4.0092    0.0000 C   0  0  0  0  0  0  0  0  0
   -5.5368   -4.5926    0.0000 C   0  0  0  0  0  0  0  0  0
   -6.1202   -4.0092    0.0000 C   0  0  0  0  0  0  0  0  0
   -4.8223    0.2866    0.0000 C   0  0  0  0  0  0  0  0  0
   -4.8223    1.1116    0.0000 C   0  0  0  0  0  0  0  0  0
   -4.1078    1.5241    0.0000 C   0  0  0  0  0  0  0  0  0
   -3.3934    1.1116    0.0000 C   0  0  0  0  0  0  0  0  0
   -2.6789    1.5241    0.0000 N   0  0  0  0  0  0  0  0  0
   -2.6789    2.3491    0.0000 C   0  0  0  0  0  0  0  0  0
   -1.9644    2.7616    0.0000 C   0  0  0  0  0  0  0  0  0
   -1.2500    2.3491    0.0000 N   0  0  0  0  0  0  0  0  0
   -1.2500    1.5241    0.0000 C   0  0  0  0  0  0  0  0  0
   -1.9644    1.1116    0.0000 C   0  0  0  0  0  0  0  0  0
   -1.9644    0.2866    0.0000 O   0  0  0  0  0  0  0  0  0
   -0.5355    2.7616    0.0000 C   0  0  0  0  0  0  0  0  0
   -0.5355    3.5866    0.0000 O   0  0  0  0  0  0  0  0  0
    0.1790    2.3491    0.0000 C   0  0  0  0  0  0  0  0  0
    0.8934    2.7616    0.0000 C   0  0  0  0  0  0  0  0  0
    1.6079    2.3491    0.0000 C   0  0  0  0  0  0  0  0  0
    1.6079    1.5241    0.0000 C   0  0  0  0  0  0  0  0  0
    0.8934    1.1116    0.0000 C   0  0  0  0  0  0  0  0  0
    0.1790    1.5241    0.0000 C   0  0  0  0  0  0  0  0  0
    2.3224    1.1116    0.0000 C   0  0  0  0  0  0  0  0  0
    3.0369    0.6991    0.0000 N   0  0  0  0  0  0  0  0  0
   -3.3934    0.2866    0.0000 C   0  0  0  0  0  0  0  0  0
   -4.1078   -0.1259    0.0000 C   0  0  0  0  0  0  0  0  0
  1  2  1  0  0  0  0
  1 12  1  0  0  0  0
  2  3  1  0  0  0  0
  2  7  1  0  0  0  0
  3  4  1  0  0  0  0
  4  5  1  0  0  0  0
  5  6  1  0  0  0  0
  5  8  1  0  0  0  0
  6  7  1  0  0  0  0
  8  9  1  0  0  0  0
  8 11  1  0  0  0  0
  9 10  1  0  0  0  0
 10 11  1  0  0  0  0
 12 13  4  0  0  0  0
 12 34  4  0  0  0  0
 13 14  4  0  0  0  0
 14 15  4  0  0  0  0
 15 16  1  0  0  0  0
 15 33  4  0  0  0  0
 16 17  1  0  0  0  0
 16 21  1  0  0  0  0
 17 18  1  0  0  0  0
 18 19  1  0  0  0  0
 19 20  1  0  0  0  0
 19 23  1  0  0  0  0
 20 21  1  0  0  0  0
 21 22  2  0  0  0  0
 23 24  2  0  0  0  0
 23 25  1  0  0  0  0
 25 26  4  0  0  0  0
 25 30  4  0  0  0  0
 26 27  4  0  0  0  0
 27 28  4  0  0  0  0
 28 29  4  0  0  0  0
 28 31  1  0  0  0  0
 29 30  4  0  0  0  0
 31 32  3  0  0  0  0
 33 34  4  0  0  0  0
M  END
>  <Name_Molregno>
405758

>  <Alpha-1A>
5.7

>  <Alpha-1B>
6.1

>  <HISTAMINE H1>
5.6

>  <HISTAMINE H3>
9

$$$$
405759
  Marvin  02231216192D 0   1.00000     0.00000     0

 36 40  0  0  0  0  0  0  0  0999 V2000
    0.4738    1.0420    0.0000 S   0  0  0  0  0  0  0  0  0
   -0.2407    0.6295    0.0000 O   0  0  0  0  0  0  0  0  0
    0.8863    0.3275    0.0000 O   0  0  0  0  0  0  0  0  0
    0.0613    1.7565    0.0000 C   0  0  0  0  0  0  0  0  0
    1.1883    1.4545    0.0000 C   0  0  0  0  0  0  0  0  0
    1.1883    2.2795    0.0000 C   0  0  0  0  0  0  0  0  0
    1.9027    2.6920    0.0000 C   0  0  0  0  0  0  0  0  0
    2.6172    2.2795    0.0000 C   0  0  0  0  0  0  0  0  0
    2.6172    1.4545    0.0000 C   0  0  0  0  0  0  0  0  0
    1.9027    1.0420    0.0000 C   0  0  0  0  0  0  0  0  0
    3.3317    2.6920    0.0000 C   0  0  0  0  0  0  0  0  0
    3.3317    3.5170    0.0000 O   0  0  0  0  0  0  0  0  0
    4.0462    2.2795    0.0000 N   0  0  0  0  0  0  0  0  0
    4.7606    2.6920    0.0000 C   0  0  0  0  0  0  0  0  0
    5.4751    2.2795    0.0000 C   0  0  0  0  0  0  0  0  0
    6.1896    2.6920    0.0000 O   0  0  0  0  0  0  0  0  0
    5.4751    1.4545    0.0000 N   0  0  0  0  0  0  0  0  0
    4.7606    1.0420    0.0000 C   0  0  0  0  0  0  0  0  0
    4.0462    1.4545    0.0000 C   0  0  0  0  0  0  0  0  0
    6.1896    1.0420    0.0000 C   0  0  0  0  0  0  0  0  0
    6.9040    1.4545    0.0000 C   0  0  0  0  0  0  0  0  0
    7.6185    1.0420    0.0000 C   0  0  0  0  0  0  0  0  0
    7.6185    0.2170    0.0000 C   0  0  0  0  0  0  0  0  0
    8.3330   -0.1955    0.0000 O   0  0  0  0  0  0  0  0  0
    8.3330   -1.0205    0.0000 C   0  0  0  0  0  0  0  0  0
    9.0475   -1.4330    0.0000 C   0  0  0  0  0  0  0  0  0
    9.0475   -2.2580    0.0000 C   0  0  0  0  0  0  0  0  0
    8.3330   -2.6705    0.0000 N   0  0  0  0  0  0  0  0  0
    7.6185   -2.2580    0.0000 C   0  0  0  0  0  0  0  0  0
    7.6185   -1.4330    0.0000 C   0  0  0  0  0  0  0  0  0
    8.3330   -3.4955    0.0000 C   0  0  0  0  0  0  0  0  0
    8.9163   -4.0789    0.0000 C   0  0  0  0  0  0  0  0  0
    8.3330   -4.6622    0.0000 C   0  0  0  0  0  0  0  0  0
    7.7496   -4.0789    0.0000 C   0  0  0  0  0  0  0  0  0
    6.9040   -0.1955    0.0000 C   0  0  0  0  0  0  0  0  0
    6.1896    0.2170    0.0000 C   0  0  0  0  0  0  0  0  0
  1  2  2  0  0  0  0
  1  3  2  0  0  0  0
  1  4  1  0  0  0  0
  1  5  1  0  0  0  0
  5  6  4  0  0  0  0
  5 10  4  0  0  0  0
  6  7  4  0  0  0  0
  7  8  4  0  0  0  0
  8  9  4  0  0  0  0
  8 11  1  0  0  0  0
  9 10  4  0  0  0  0
 11 12  2  0  0  0  0
 11 13  1  0  0  0  0
 13 14  1  0  0  0  0
 13 19  1  0  0  0  0
 14 15  1  0  0  0  0
 15 16  2  0  0  0  0
 15 17  1  0  0  0  0
 17 18  1  0  0  0  0
 17 20  1  0  0  0  0
 18 19  1  0  0  0  0
 20 21  4  0  0  0  0
 20 36  4  0  0  0  0
 21 22  4  0  0  0  0
 22 23  4  0  0  0  0
 23 24  1  0  0  0  0
 23 35  4  0  0  0  0
 24 25  1  0  0  0  0
 25 26  1  0  0  0  0
 25 30  1  0  0  0  0
 26 27  1  0  0  0  0
 27 28  1  0  0  0  0
 28 29  1  0  0  0  0
 28 31  1  0  0  0  0
 29 30  1  0  0  0  0
 31 32  1  0  0  0  0
 31 34  1  0  0  0  0
 32 33  1  0  0  0  0
 33 34  1  0  0  0  0
 35 36  4  0  0  0  0
M  END
>  <Name_Molregno>
405759

>  <HISTAMINE H1>
5.6

>  <HISTAMINE H3>
8.9

$$$$
405761
  Marvin  02231216192D 0   1.00000     0.00000     0

 34 38  0  0  0  0  0  0  0  0999 V2000
    0.4911    3.6546    0.0000 F   0  0  0  0  0  0  0  0  0
    1.2056    3.2421    0.0000 C   0  0  0  0  0  0  0  0  0
    1.9200    3.6546    0.0000 C   0  0  0  0  0  0  0  0  0
    2.6345    3.2421    0.0000 C   0  0  0  0  0  0  0  0  0
    2.6345    2.4171    0.0000 C   0  0  0  0  0  0  0  0  0
    1.9200    2.0046    0.0000 C   0  0  0  0  0  0  0  0  0
    1.9200    1.1796    0.0000 F   0  0  0  0  0  0  0  0  0
    1.2056    2.4171    0.0000 C   0  0  0  0  0  0  0  0  0
    3.3490    3.6546    0.0000 C   0  0  0  0  0  0  0  0  0
    3.3490    4.4796    0.0000 O   0  0  0  0  0  0  0  0  0
    4.0634    3.2421    0.0000 N   0  0  0  0  0  0  0  0  0
    4.7779    3.6546    0.0000 C   0  0  0  0  0  0  0  0  0
    5.4924    3.2421    0.0000 C   0  0  0  0  0  0  0  0  0
    6.2068    3.6546    0.0000 O   0  0  0  0  0  0  0  0  0
    5.4924    2.4171    0.0000 N   0  0  0  0  0  0  0  0  0
    4.7779    2.0046    0.0000 C   0  0  0  0  0  0  0  0  0
    4.0634    2.4171    0.0000 C   0  0  0  0  0  0  0  0  0
    6.2068    2.0046    0.0000 C   0  0  0  0  0  0  0  0  0
    6.9213    2.4171    0.0000 C   0  0  0  0  0  0  0  0  0
    7.6358    2.0046    0.0000 C   0  0  0  0  0  0  0  0  0
    7.6358    1.1796    0.0000 C   0  0  0  0  0  0  0  0  0
    8.3503    0.7671    0.0000 O   0  0  0  0  0  0  0  0  0
    8.3503   -0.0579    0.0000 C   0  0  0  0  0  0  0  0  0
    9.0647   -0.4704    0.0000 C   0  0  0  0  0  0  0  0  0
    9.0647   -1.2954    0.0000 C   0  0  0  0  0  0  0  0  0
    8.3503   -1.7079    0.0000 N   0  0  0  0  0  0  0  0  0
    7.6358   -1.2954    0.0000 C   0  0  0  0  0  0  0  0  0
    7.6358   -0.4704    0.0000 C   0  0  0  0  0  0  0  0  0
    8.3503   -2.5329    0.0000 C   0  0  0  0  0  0  0  0  0
    8.9336   -3.1163    0.0000 C   0  0  0  0  0  0  0  0  0
    8.3503   -3.6996    0.0000 C   0  0  0  0  0  0  0  0  0
    7.7669   -3.1163    0.0000 C   0  0  0  0  0  0  0  0  0
    6.9213    0.7671    0.0000 C   0  0  0  0  0  0  0  0  0
    6.2068    1.1796    0.0000 C   0  0  0  0  0  0  0  0  0
  1  2  1  0  0  0  0
  2  3  4  0  0  0  0
  2  8  4  0  0  0  0
  3  4  4  0  0  0  0
  4  5  4  0  0  0  0
  4  9  1  0  0  0  0
  5  6  4  0  0  0  0
  6  7  1  0  0  0  0
  6  8  4  0  0  0  0
  9 10  2  0  0  0  0
  9 11  1  0  0  0  0
 11 12  1  0  0  0  0
 11 17  1  0  0  0  0
 12 13  1  0  0  0  0
 13 14  2  0  0  0  0
 13 15  1  0  0  0  0
 15 16  1  0  0  0  0
 15 18  1  0  0  0  0
 16 17  1  0  0  0  0
 18 19  4  0  0  0  0
 18 34  4  0  0  0  0
 19 20  4  0  0  0  0
 20 21  4  0  0  0  0
 21 22  1  0  0  0  0
 21 33  4  0  0  0  0
 22 23  1  0  0  0  0
 23 24  1  0  0  0  0
 23 28  1  0  0  0  0
 24 25  1  0  0  0  0
 25 26  1  0  0  0  0
 26 27  1  0  0  0  0
 26 29  1  0  0  0  0
 27 28  1  0  0  0  0
 29 30  1  0  0  0  0
 29 32  1  0  0  0  0
 30 31  1  0  0  0  0
 31 32  1  0  0  0  0
 33 34  4  0  0  0  0
M  END
>  <Name_Molregno>
405761

>  <Alpha-1A>
5.7

>  <Alpha-1B>
6.1

>  <HISTAMINE H1>
5.8

>  <HISTAMINE H3>
9.1

$$$$
405765
  Marvin  02231216192D 0   1.00000     0.00000     0

 34 38  0  0  0  0  0  0  0  0999 V2000
   -6.8588   -0.1183    0.0000 F   0  0  0  0  0  0  0  0  0
   -7.5732    0.2942    0.0000 C   0  0  0  0  0  0  0  0  0
   -8.2877   -0.1183    0.0000 C   0  0  0  0  0  0  0  0  0
   -9.0022    0.2942    0.0000 C   0  0  0  0  0  0  0  0  0
   -9.7167   -0.1183    0.0000 F   0  0  0  0  0  0  0  0  0
   -9.0022    1.1192    0.0000 C   0  0  0  0  0  0  0  0  0
   -8.2877    1.5317    0.0000 C   0  0  0  0  0  0  0  0  0
   -7.5732    1.1192    0.0000 C   0  0  0  0  0  0  0  0  0
   -6.8588    1.5317    0.0000 C   0  0  0  0  0  0  0  0  0
   -6.8588    2.3567    0.0000 O   0  0  0  0  0  0  0  0  0
   -6.1443    1.1192    0.0000 N   0  0  0  0  0  0  0  0  0
   -5.4298    1.5317    0.0000 C   0  0  0  0  0  0  0  0  0
   -4.7154    1.1192    0.0000 C   0  0  0  0  0  0  0  0  0
   -4.0009    1.5317    0.0000 O   0  0  0  0  0  0  0  0  0
   -4.7154    0.2942    0.0000 N   0  0  0  0  0  0  0  0  0
   -5.4298   -0.1183    0.0000 C   0  0  0  0  0  0  0  0  0
   -6.1443    0.2942    0.0000 C   0  0  0  0  0  0  0  0  0
   -4.0009   -0.1183    0.0000 C   0  0  0  0  0  0  0  0  0
   -3.2864    0.2942    0.0000 C   0  0  0  0  0  0  0  0  0
   -2.5720   -0.1183    0.0000 C   0  0  0  0  0  0  0  0  0
   -2.5720   -0.9433    0.0000 C   0  0  0  0  0  0  0  0  0
   -1.8575   -1.3558    0.0000 O   0  0  0  0  0  0  0  0  0
   -1.8575   -2.1808    0.0000 C   0  0  0  0  0  0  0  0  0
   -1.1430   -2.5933    0.0000 C   0  0  0  0  0  0  0  0  0
   -1.1430   -3.4183    0.0000 C   0  0  0  0  0  0  0  0  0
   -1.8575   -3.8308    0.0000 N   0  0  0  0  0  0  0  0  0
   -2.5720   -3.4183    0.0000 C   0  0  0  0  0  0  0  0  0
   -2.5720   -2.5933    0.0000 C   0  0  0  0  0  0  0  0  0
   -1.8575   -4.6558    0.0000 C   0  0  0  0  0  0  0  0  0
   -1.2741   -5.2391    0.0000 C   0  0  0  0  0  0  0  0  0
   -1.8575   -5.8225    0.0000 C   0  0  0  0  0  0  0  0  0
   -2.4408   -5.2391    0.0000 C   0  0  0  0  0  0  0  0  0
   -3.2864   -1.3558    0.0000 C   0  0  0  0  0  0  0  0  0
   -4.0009   -0.9433    0.0000 C   0  0  0  0  0  0  0  0  0
  1  2  1  0  0  0  0
  2  3  4  0  0  0  0
  2  8  4  0  0  0  0
  3  4  4  0  0  0  0
  4  5  1  0  0  0  0
  4  6  4  0  0  0  0
  6  7  4  0  0  0  0
  7  8  4  0  0  0  0
  8  9  1  0  0  0  0
  9 10  2  0  0  0  0
  9 11  1  0  0  0  0
 11 12  1  0  0  0  0
 11 17  1  0  0  0  0
 12 13  1  0  0  0  0
 13 14  2  0  0  0  0
 13 15  1  0  0  0  0
 15 16  1  0  0  0  0
 15 18  1  0  0  0  0
 16 17  1  0  0  0  0
 18 19  4  0  0  0  0
 18 34  4  0  0  0  0
 19 20  4  0  0  0  0
 20 21  4  0  0  0  0
 21 22  1  0  0  0  0
 21 33  4  0  0  0  0
 22 23  1  0  0  0  0
 23 24  1  0  0  0  0
 23 28  1  0  0  0  0
 24 25  1  0  0  0  0
 25 26  1  0  0  0  0
 26 27  1  0  0  0  0
 26 29  1  0  0  0  0
 27 28  1  0  0  0  0
 29 30  1  0  0  0  0
 29 32  1  0  0  0  0
 30 31  1  0  0  0  0
 31 32  1  0  0  0  0
 33 34  4  0  0  0  0
M  END
>  <Name_Molregno>
405765

>  <HISTAMINE H1>
5.6

>  <HISTAMINE H3>
8.8

$$$$
405767
  Marvin  02231216192D 0   1.00000     0.00000     0

 38 43  0  0  0  0  0  0  0  0999 V2000
   -6.6658   -0.2825    0.0000 O   0  0  0  0  0  0  0  0  0
   -6.6658   -1.1075    0.0000 C   0  0  0  0  0  0  0  0  0
   -5.9513   -1.5200    0.0000 C   0  0  0  0  0  0  0  0  0
   -5.9513   -2.3450    0.0000 C   0  0  0  0  0  0  0  0  0
   -6.6658   -2.7575    0.0000 N   0  0  0  0  0  0  0  0  0
   -7.3803   -2.3450    0.0000 C   0  0  0  0  0  0  0  0  0
   -7.3803   -1.5200    0.0000 C   0  0  0  0  0  0  0  0  0
   -6.6658   -3.5825    0.0000 C   0  0  0  0  0  0  0  0  0
   -6.0825   -4.1659    0.0000 C   0  0  0  0  0  0  0  0  0
   -6.6658   -4.7492    0.0000 C   0  0  0  0  0  0  0  0  0
   -7.2492   -4.1659    0.0000 C   0  0  0  0  0  0  0  0  0
   -5.9513    0.1300    0.0000 C   0  0  0  0  0  0  0  0  0
   -5.9513    0.9550    0.0000 C   0  0  0  0  0  0  0  0  0
   -5.2369    1.3675    0.0000 C   0  0  0  0  0  0  0  0  0
   -4.5224    0.9550    0.0000 C   0  0  0  0  0  0  0  0  0
   -3.8079    1.3675    0.0000 N   0  0  0  0  0  0  0  0  0
   -3.8079    2.1925    0.0000 C   0  0  0  0  0  0  0  0  0
   -3.0935    2.6050    0.0000 C   0  0  0  0  0  0  0  0  0
   -2.3790    2.1925    0.0000 N   0  0  0  0  0  0  0  0  0
   -2.3790    1.3675    0.0000 C   0  0  0  0  0  0  0  0  0
   -3.0935    0.9550    0.0000 C   0  0  0  0  0  0  0  0  0
   -3.0935    0.1300    0.0000 O   0  0  0  0  0  0  0  0  0
   -1.6645    2.6050    0.0000 C   0  0  0  0  0  0  0  0  0
   -1.6645    3.4300    0.0000 O   0  0  0  0  0  0  0  0  0
   -0.9500    2.1925    0.0000 C   0  0  0  0  0  0  0  0  0
   -0.2356    2.6050    0.0000 C   0  0  0  0  0  0  0  0  0
    0.4789    2.1925    0.0000 C   0  0  0  0  0  0  0  0  0
    0.4789    1.3675    0.0000 C   0  0  0  0  0  0  0  0  0
   -0.2356    0.9550    0.0000 C   0  0  0  0  0  0  0  0  0
   -0.9500    1.3675    0.0000 C   0  0  0  0  0  0  0  0  0
    1.1934    0.9550    0.0000 C   0  0  0  0  0  0  0  0  0
    1.9078    1.3675    0.0000 O   0  0  0  0  0  0  0  0  0
    1.1934    0.1300    0.0000 N   0  0  0  0  0  0  0  0  0
    1.7767   -0.4534    0.0000 C   0  0  0  0  0  0  0  0  0
    1.1934   -1.0367    0.0000 C   0  0  0  0  0  0  0  0  0
    0.6100   -0.4534    0.0000 C   0  0  0  0  0  0  0  0  0
   -4.5224    0.1300    0.0000 C   0  0  0  0  0  0  0  0  0
   -5.2369   -0.2825    0.0000 C   0  0  0  0  0  0  0  0  0
  1  2  1  0  0  0  0
  1 12  1  0  0  0  0
  2  3  1  0  0  0  0
  2  7  1  0  0  0  0
  3  4  1  0  0  0  0
  4  5  1  0  0  0  0
  5  6  1  0  0  0  0
  5  8  1  0  0  0  0
  6  7  1  0  0  0  0
  8  9  1  0  0  0  0
  8 11  1  0  0  0  0
  9 10  1  0  0  0  0
 10 11  1  0  0  0  0
 12 13  4  0  0  0  0
 12 38  4  0  0  0  0
 13 14  4  0  0  0  0
 14 15  4  0  0  0  0
 15 16  1  0  0  0  0
 15 37  4  0  0  0  0
 16 17  1  0  0  0  0
 16 21  1  0  0  0  0
 17 18  1  0  0  0  0
 18 19  1  0  0  0  0
 19 20  1  0  0  0  0
 19 23  1  0  0  0  0
 20 21  1  0  0  0  0
 21 22  2  0  0  0  0
 23 24  2  0  0  0  0
 23 25  1  0  0  0  0
 25 26  4  0  0  0  0
 25 30  4  0  0  0  0
 26 27  4  0  0  0  0
 27 28  4  0  0  0  0
 28 29  4  0  0  0  0
 28 31  1  0  0  0  0
 29 30  4  0  0  0  0
 31 32  2  0  0  0  0
 31 33  1  0  0  0  0
 33 34  1  0  0  0  0
 33 36  1  0  0  0  0
 34 35  1  0  0  0  0
 35 36  1  0  0  0  0
 37 38  4  0  0  0  0
M  END
>  <Name_Molregno>
405767

>  <HISTAMINE H1>
5.6

>  <HISTAMINE H3>
9.5

$$$$
405771
  Marvin  02231216192D 0   1.00000     0.00000     0

 34 38  0  0  0  0  0  0  0  0999 V2000
    0.6039    1.3331    0.0000 Cl  0  0  0  0  0  0  0  0  0
    1.3184    1.7456    0.0000 C   0  0  0  0  0  0  0  0  0
    1.3184    2.5706    0.0000 C   0  0  0  0  0  0  0  0  0
    2.0328    2.9831    0.0000 C   0  0  0  0  0  0  0  0  0
    2.7473    2.5706    0.0000 C   0  0  0  0  0  0  0  0  0
    2.7473    1.7456    0.0000 C   0  0  0  0  0  0  0  0  0
    2.0328    1.3331    0.0000 C   0  0  0  0  0  0  0  0  0
    3.4618    2.9831    0.0000 C   0  0  0  0  0  0  0  0  0
    3.4618    3.8081    0.0000 O   0  0  0  0  0  0  0  0  0
    4.1763    2.5706    0.0000 N   0  0  0  0  0  0  0  0  0
    4.8907    2.9831    0.0000 C   0  0  0  0  0  0  0  0  0
    5.6052    2.5706    0.0000 C   0  0  0  0  0  0  0  0  0
    6.3197    2.9831    0.0000 O   0  0  0  0  0  0  0  0  0
    5.6052    1.7456    0.0000 N   0  0  0  0  0  0  0  0  0
    4.8907    1.3331    0.0000 C   0  0  0  0  0  0  0  0  0
    4.1763    1.7456    0.0000 C   0  0  0  0  0  0  0  0  0
    6.3197    1.3331    0.0000 C   0  0  0  0  0  0  0  0  0
    7.0341    1.7456    0.0000 C   0  0  0  0  0  0  0  0  0
    7.7486    1.3331    0.0000 C   0  0  0  0  0  0  0  0  0
    7.7486    0.5081    0.0000 C   0  0  0  0  0  0  0  0  0
    8.4631    0.0956    0.0000 O   0  0  0  0  0  0  0  0  0
    8.4631   -0.7294    0.0000 C   0  0  0  0  0  0  0  0  0
    9.1775   -1.1419    0.0000 C   0  0  0  0  0  0  0  0  0
    9.1775   -1.9669    0.0000 C   0  0  0  0  0  0  0  0  0
    8.4631   -2.3794    0.0000 N   0  0  0  0  0  0  0  0  0
    7.7486   -1.9669    0.0000 C   0  0  0  0  0  0  0  0  0
    7.7486   -1.1419    0.0000 C   0  0  0  0  0  0  0  0  0
    8.4631   -3.2044    0.0000 C   0  0  0  0  0  0  0  0  0
    9.1305   -3.6894    0.0000 C   0  0  0  0  0  0  0  0  0
    8.8756   -4.4740    0.0000 C   0  0  0  0  0  0  0  0  0
    8.0506   -4.4740    0.0000 C   0  0  0  0  0  0  0  0  0
    7.7956   -3.6894    0.0000 C   0  0  0  0  0  0  0  0  0
    7.0341    0.0956    0.0000 C   0  0  0  0  0  0  0  0  0
    6.3197    0.5081    0.0000 C   0  0  0  0  0  0  0  0  0
  1  2  1  0  0  0  0
  2  3  4  0  0  0  0
  2  7  4  0  0  0  0
  3  4  4  0  0  0  0
  4  5  4  0  0  0  0
  5  6  4  0  0  0  0
  5  8  1  0  0  0  0
  6  7  4  0  0  0  0
  8  9  2  0  0  0  0
  8 10  1  0  0  0  0
 10 11  1  0  0  0  0
 10 16  1  0  0  0  0
 11 12  1  0  0  0  0
 12 13  2  0  0  0  0
 12 14  1  0  0  0  0
 14 15  1  0  0  0  0
 14 17  1  0  0  0  0
 15 16  1  0  0  0  0
 17 18  4  0  0  0  0
 17 34  4  0  0  0  0
 18 19  4  0  0  0  0
 19 20  4  0  0  0  0
 20 21  1  0  0  0  0
 20 33  4  0  0  0  0
 21 22  1  0  0  0  0
 22 23  1  0  0  0  0
 22 27  1  0  0  0  0
 23 24  1  0  0  0  0
 24 25  1  0  0  0  0
 25 26  1  0  0  0  0
 25 28  1  0  0  0  0
 26 27  1  0  0  0  0
 28 29  1  0  0  0  0
 28 32  1  0  0  0  0
 29 30  1  0  0  0  0
 30 31  1  0  0  0  0
 31 32  1  0  0  0  0
 33 34  4  0  0  0  0
M  END
>  <Name_Molregno>
405771

>  <HISTAMINE H1>
5.8

>  <HISTAMINE H3>
8.5

$$$$
405775
  Marvin  02231216192D 0   1.00000     0.00000     0

 34 38  0  0  0  0  0  0  0  0999 V2000
    0.6039    1.3331    0.0000 F   0  0  0  0  0  0  0  0  0
    1.3184    1.7456    0.0000 C   0  0  0  0  0  0  0  0  0
    1.3184    2.5706    0.0000 C   0  0  0  0  0  0  0  0  0
    2.0328    2.9831    0.0000 C   0  0  0  0  0  0  0  0  0
    2.7473    2.5706    0.0000 C   0  0  0  0  0  0  0  0  0
    2.7473    1.7456    0.0000 C   0  0  0  0  0  0  0  0  0
    2.0328    1.3331    0.0000 C   0  0  0  0  0  0  0  0  0
    3.4618    2.9831    0.0000 C   0  0  0  0  0  0  0  0  0
    3.4618    3.8081    0.0000 O   0  0  0  0  0  0  0  0  0
    4.1763    2.5706    0.0000 N   0  0  0  0  0  0  0  0  0
    4.8907    2.9831    0.0000 C   0  0  0  0  0  0  0  0  0
    5.6052    2.5706    0.0000 C   0  0  0  0  0  0  0  0  0
    6.3197    2.9831    0.0000 O   0  0  0  0  0  0  0  0  0
    5.6052    1.7456    0.0000 N   0  0  0  0  0  0  0  0  0
    4.8907    1.3331    0.0000 C   0  0  0  0  0  0  0  0  0
    4.1763    1.7456    0.0000 C   0  0  0  0  0  0  0  0  0
    6.3197    1.3331    0.0000 C   0  0  0  0  0  0  0  0  0
    7.0341    1.7456    0.0000 C   0  0  0  0  0  0  0  0  0
    7.7486    1.3331    0.0000 C   0  0  0  0  0  0  0  0  0
    7.7486    0.5081    0.0000 C   0  0  0  0  0  0  0  0  0
    8.4631    0.0956    0.0000 O   0  0  0  0  0  0  0  0  0
    8.4631   -0.7294    0.0000 C   0  0  0  0  0  0  0  0  0
    9.1775   -1.1419    0.0000 C   0  0  0  0  0  0  0  0  0
    9.1775   -1.9669    0.0000 C   0  0  0  0  0  0  0  0  0
    8.4631   -2.3794    0.0000 N   0  0  0  0  0  0  0  0  0
    7.7486   -1.9669    0.0000 C   0  0  0  0  0  0  0  0  0
    7.7486   -1.1419    0.0000 C   0  0  0  0  0  0  0  0  0
    8.4631   -3.2044    0.0000 C   0  0  0  0  0  0  0  0  0
    9.1305   -3.6894    0.0000 C   0  0  0  0  0  0  0  0  0
    8.8756   -4.4740    0.0000 C   0  0  0  0  0  0  0  0  0
    8.0506   -4.4740    0.0000 C   0  0  0  0  0  0  0  0  0
    7.7956   -3.6894    0.0000 C   0  0  0  0  0  0  0  0  0
    7.0341    0.0956    0.0000 C   0  0  0  0  0  0  0  0  0
    6.3197    0.5081    0.0000 C   0  0  0  0  0  0  0  0  0
  1  2  1  0  0  0  0
  2  3  4  0  0  0  0
  2  7  4  0  0  0  0
  3  4  4  0  0  0  0
  4  5  4  0  0  0  0
  5  6  4  0  0  0  0
  5  8  1  0  0  0  0
  6  7  4  0  0  0  0
  8  9  2  0  0  0  0
  8 10  1  0  0  0  0
 10 11  1  0  0  0  0
 10 16  1  0  0  0  0
 11 12  1  0  0  0  0
 12 13  2  0  0  0  0
 12 14  1  0  0  0  0
 14 15  1  0  0  0  0
 14 17  1  0  0  0  0
 15 16  1  0  0  0  0
 17 18  4  0  0  0  0
 17 34  4  0  0  0  0
 18 19  4  0  0  0  0
 19 20  4  0  0  0  0
 20 21  1  0  0  0  0
 20 33  4  0  0  0  0
 21 22  1  0  0  0  0
 22 23  1  0  0  0  0
 22 27  1  0  0  0  0
 23 24  1  0  0  0  0
 24 25  1  0  0  0  0
 25 26  1  0  0  0  0
 25 28  1  0  0  0  0
 26 27  1  0  0  0  0
 28 29  1  0  0  0  0
 28 32  1  0  0  0  0
 29 30  1  0  0  0  0
 30 31  1  0  0  0  0
 31 32  1  0  0  0  0
 33 34  4  0  0  0  0
M  END
>  <Name_Molregno>
405775

>  <HISTAMINE H1>
5.6

>  <HISTAMINE H3>
8.6

$$$$
405776
  Marvin  02231216192D 0   1.00000     0.00000     0

 35 39  0  0  0  0  0  0  0  0999 V2000
   -5.3169    0.1081    0.0000 O   0  0  0  0  0  0  0  0  0
   -5.3169   -0.7169    0.0000 C   0  0  0  0  0  0  0  0  0
   -4.6025   -1.1294    0.0000 C   0  0  0  0  0  0  0  0  0
   -4.6025   -1.9544    0.0000 C   0  0  0  0  0  0  0  0  0
   -5.3169   -2.3669    0.0000 N   0  0  0  0  0  0  0  0  0
   -6.0314   -1.9544    0.0000 C   0  0  0  0  0  0  0  0  0
   -6.0314   -1.1294    0.0000 C   0  0  0  0  0  0  0  0  0
   -5.3169   -3.1919    0.0000 C   0  0  0  0  0  0  0  0  0
   -4.6495   -3.6769    0.0000 C   0  0  0  0  0  0  0  0  0
   -4.9044   -4.4615    0.0000 C   0  0  0  0  0  0  0  0  0
   -5.7294   -4.4615    0.0000 C   0  0  0  0  0  0  0  0  0
   -5.9844   -3.6769    0.0000 C   0  0  0  0  0  0  0  0  0
   -4.6025    0.5206    0.0000 C   0  0  0  0  0  0  0  0  0
   -4.6025    1.3456    0.0000 C   0  0  0  0  0  0  0  0  0
   -3.8880    1.7581    0.0000 C   0  0  0  0  0  0  0  0  0
   -3.1735    1.3456    0.0000 C   0  0  0  0  0  0  0  0  0
   -2.4591    1.7581    0.0000 N   0  0  0  0  0  0  0  0  0
   -2.4591    2.5831    0.0000 C   0  0  0  0  0  0  0  0  0
   -1.7446    2.9956    0.0000 C   0  0  0  0  0  0  0  0  0
   -1.0301    2.5831    0.0000 N   0  0  0  0  0  0  0  0  0
   -1.0301    1.7581    0.0000 C   0  0  0  0  0  0  0  0  0
   -1.7446    1.3456    0.0000 C   0  0  0  0  0  0  0  0  0
   -1.7446    0.5206    0.0000 O   0  0  0  0  0  0  0  0  0
   -0.3156    2.9956    0.0000 C   0  0  0  0  0  0  0  0  0
   -0.3156    3.8206    0.0000 O   0  0  0  0  0  0  0  0  0
    0.3988    2.5831    0.0000 C   0  0  0  0  0  0  0  0  0
    1.1133    2.9956    0.0000 C   0  0  0  0  0  0  0  0  0
    1.8278    2.5831    0.0000 C   0  0  0  0  0  0  0  0  0
    1.8278    1.7581    0.0000 C   0  0  0  0  0  0  0  0  0
    1.1133    1.3456    0.0000 C   0  0  0  0  0  0  0  0  0
    0.3988    1.7581    0.0000 C   0  0  0  0  0  0  0  0  0
    2.5422    1.3456    0.0000 C   0  0  0  0  0  0  0  0  0
    3.2567    0.9331    0.0000 N   0  0  0  0  0  0  0  0  0
   -3.1735    0.5206    0.0000 C   0  0  0  0  0  0  0  0  0
   -3.8880    0.1081    0.0000 C   0  0  0  0  0  0  0  0  0
  1  2  1  0  0  0  0
  1 13  1  0  0  0  0
  2  3  1  0  0  0  0
  2  7  1  0  0  0  0
  3  4  1  0  0  0  0
  4  5  1  0  0  0  0
  5  6  1  0  0  0  0
  5  8  1  0  0  0  0
  6  7  1  0  0  0  0
  8  9  1  0  0  0  0
  8 12  1  0  0  0  0
  9 10  1  0  0  0  0
 10 11  1  0  0  0  0
 11 12  1  0  0  0  0
 13 14  4  0  0  0  0
 13 35  4  0  0  0  0
 14 15  4  0  0  0  0
 15 16  4  0  0  0  0
 16 17  1  0  0  0  0
 16 34  4  0  0  0  0
 17 18  1  0  0  0  0
 17 22  1  0  0  0  0
 18 19  1  0  0  0  0
 19 20  1  0  0  0  0
 20 21  1  0  0  0  0
 20 24  1  0  0  0  0
 21 22  1  0  0  0  0
 22 23  2  0  0  0  0
 24 25  2  0  0  0  0
 24 26  1  0  0  0  0
 26 27  4  0  0  0  0
 26 31  4  0  0  0  0
 27 28  4  0  0  0  0
 28 29  4  0  0  0  0
 29 30  4  0  0  0  0
 29 32  1  0  0  0  0
 30 31  4  0  0  0  0
 32 33  3  0  0  0  0
 34 35  4  0  0  0  0
M  END
>  <Name_Molregno>
405776

>  <HISTAMINE H1>
5.6

>  <HISTAMINE H3>
9.1

$$$$
405778
  Marvin  02231216192D 0   1.00000     0.00000     0

 37 41  0  0  0  0  0  0  0  0999 V2000
    0.5562    1.2159    0.0000 S   0  0  0  0  0  0  0  0  0
   -0.1583    0.8034    0.0000 O   0  0  0  0  0  0  0  0  0
    0.9687    0.5014    0.0000 O   0  0  0  0  0  0  0  0  0
    0.1437    1.9303    0.0000 C   0  0  0  0  0  0  0  0  0
    1.2707    1.6284    0.0000 C   0  0  0  0  0  0  0  0  0
    1.2707    2.4534    0.0000 C   0  0  0  0  0  0  0  0  0
    1.9851    2.8659    0.0000 C   0  0  0  0  0  0  0  0  0
    2.6996    2.4534    0.0000 C   0  0  0  0  0  0  0  0  0
    2.6996    1.6284    0.0000 C   0  0  0  0  0  0  0  0  0
    1.9851    1.2159    0.0000 C   0  0  0  0  0  0  0  0  0
    3.4141    2.8659    0.0000 C   0  0  0  0  0  0  0  0  0
    3.4141    3.6909    0.0000 O   0  0  0  0  0  0  0  0  0
    4.1285    2.4534    0.0000 N   0  0  0  0  0  0  0  0  0
    4.8430    2.8659    0.0000 C   0  0  0  0  0  0  0  0  0
    5.5575    2.4534    0.0000 C   0  0  0  0  0  0  0  0  0
    6.2720    2.8659    0.0000 O   0  0  0  0  0  0  0  0  0
    5.5575    1.6284    0.0000 N   0  0  0  0  0  0  0  0  0
    4.8430    1.2159    0.0000 C   0  0  0  0  0  0  0  0  0
    4.1285    1.6284    0.0000 C   0  0  0  0  0  0  0  0  0
    6.2720    1.2159    0.0000 C   0  0  0  0  0  0  0  0  0
    6.9864    1.6284    0.0000 C   0  0  0  0  0  0  0  0  0
    7.7009    1.2159    0.0000 C   0  0  0  0  0  0  0  0  0
    7.7009    0.3909    0.0000 C   0  0  0  0  0  0  0  0  0
    8.4154   -0.0216    0.0000 O   0  0  0  0  0  0  0  0  0
    8.4154   -0.8466    0.0000 C   0  0  0  0  0  0  0  0  0
    9.1298   -1.2591    0.0000 C   0  0  0  0  0  0  0  0  0
    9.1298   -2.0841    0.0000 C   0  0  0  0  0  0  0  0  0
    8.4154   -2.4966    0.0000 N   0  0  0  0  0  0  0  0  0
    7.7009   -2.0841    0.0000 C   0  0  0  0  0  0  0  0  0
    7.7009   -1.2591    0.0000 C   0  0  0  0  0  0  0  0  0
    8.4154   -3.3216    0.0000 C   0  0  0  0  0  0  0  0  0
    9.0828   -3.8066    0.0000 C   0  0  0  0  0  0  0  0  0
    8.8279   -4.5912    0.0000 C   0  0  0  0  0  0  0  0  0
    8.0029   -4.5912    0.0000 C   0  0  0  0  0  0  0  0  0
    7.7479   -3.8066    0.0000 C   0  0  0  0  0  0  0  0  0
    6.9864   -0.0216    0.0000 C   0  0  0  0  0  0  0  0  0
    6.2720    0.3909    0.0000 C   0  0  0  0  0  0  0  0  0
  1  2  2  0  0  0  0
  1  3  2  0  0  0  0
  1  4  1  0  0  0  0
  1  5  1  0  0  0  0
  5  6  4  0  0  0  0
  5 10  4  0  0  0  0
  6  7  4  0  0  0  0
  7  8  4  0  0  0  0
  8  9  4  0  0  0  0
  8 11  1  0  0  0  0
  9 10  4  0  0  0  0
 11 12  2  0  0  0  0
 11 13  1  0  0  0  0
 13 14  1  0  0  0  0
 13 19  1  0  0  0  0
 14 15  1  0  0  0  0
 15 16  2  0  0  0  0
 15 17  1  0  0  0  0
 17 18  1  0  0  0  0
 17 20  1  0  0  0  0
 18 19  1  0  0  0  0
 20 21  4  0  0  0  0
 20 37  4  0  0  0  0
 21 22  4  0  0  0  0
 22 23  4  0  0  0  0
 23 24  1  0  0  0  0
 23 36  4  0  0  0  0
 24 25  1  0  0  0  0
 25 26  1  0  0  0  0
 25 30  1  0  0  0  0
 26 27  1  0  0  0  0
 27 28  1  0  0  0  0
 28 29  1  0  0  0  0
 28 31  1  0  0  0  0
 29 30  1  0  0  0  0
 31 32  1  0  0  0  0
 31 35  1  0  0  0  0
 32 33  1  0  0  0  0
 33 34  1  0  0  0  0
 34 35  1  0  0  0  0
 36 37  4  0  0  0  0
M  END
>  <Name_Molregno>
405778

>  <HISTAMINE H1>
5.6

>  <HISTAMINE H3>
9.1

$$$$
405780
  Marvin  02231216192D 0   1.00000     0.00000     0

 37 41  0  0  0  0  0  0  0  0999 V2000
    0.5538    1.2252    0.0000 S   0  0  0  0  0  0  0  0  0
   -0.1607    1.6377    0.0000 O   0  0  0  0  0  0  0  0  0
    0.1413    0.5108    0.0000 O   0  0  0  0  0  0  0  0  0
    0.9663    1.9397    0.0000 C   0  0  0  0  0  0  0  0  0
    1.2683    0.8127    0.0000 C   0  0  0  0  0  0  0  0  0
    1.9827    1.2252    0.0000 C   0  0  0  0  0  0  0  0  0
    2.6972    0.8127    0.0000 C   0  0  0  0  0  0  0  0  0
    2.6972   -0.0123    0.0000 C   0  0  0  0  0  0  0  0  0
    1.9827   -0.4248    0.0000 C   0  0  0  0  0  0  0  0  0
    1.2683   -0.0123    0.0000 C   0  0  0  0  0  0  0  0  0
    3.4117    1.2252    0.0000 C   0  0  0  0  0  0  0  0  0
    3.4117    2.0502    0.0000 O   0  0  0  0  0  0  0  0  0
    4.1261    0.8127    0.0000 N   0  0  0  0  0  0  0  0  0
    4.8406    1.2252    0.0000 C   0  0  0  0  0  0  0  0  0
    5.5551    0.8127    0.0000 C   0  0  0  0  0  0  0  0  0
    6.2695    1.2252    0.0000 O   0  0  0  0  0  0  0  0  0
    5.5551   -0.0123    0.0000 N   0  0  0  0  0  0  0  0  0
    4.8406   -0.4248    0.0000 C   0  0  0  0  0  0  0  0  0
    4.1261   -0.0123    0.0000 C   0  0  0  0  0  0  0  0  0
    6.2695   -0.4248    0.0000 C   0  0  0  0  0  0  0  0  0
    6.9840   -0.0123    0.0000 C   0  0  0  0  0  0  0  0  0
    7.6985   -0.4248    0.0000 C   0  0  0  0  0  0  0  0  0
    7.6985   -1.2498    0.0000 C   0  0  0  0  0  0  0  0  0
    8.4130   -1.6623    0.0000 O   0  0  0  0  0  0  0  0  0
    8.4130   -2.4873    0.0000 C   0  0  0  0  0  0  0  0  0
    9.1274   -2.8998    0.0000 C   0  0  0  0  0  0  0  0  0
    9.1274   -3.7248    0.0000 C   0  0  0  0  0  0  0  0  0
    8.4130   -4.1373    0.0000 N   0  0  0  0  0  0  0  0  0
    7.6985   -3.7248    0.0000 C   0  0  0  0  0  0  0  0  0
    7.6985   -2.8998    0.0000 C   0  0  0  0  0  0  0  0  0
    8.4130   -4.9623    0.0000 C   0  0  0  0  0  0  0  0  0
    9.0804   -5.4472    0.0000 C   0  0  0  0  0  0  0  0  0
    8.8255   -6.2318    0.0000 C   0  0  0  0  0  0  0  0  0
    8.0005   -6.2318    0.0000 C   0  0  0  0  0  0  0  0  0
    7.7455   -5.4472    0.0000 C   0  0  0  0  0  0  0  0  0
    6.9840   -1.6623    0.0000 C   0  0  0  0  0  0  0  0  0
    6.2695   -1.2498    0.0000 C   0  0  0  0  0  0  0  0  0
  1  2  2  0  0  0  0
  1  3  2  0  0  0  0
  1  4  1  0  0  0  0
  1  5  1  0  0  0  0
  5  6  4  0  0  0  0
  5 10  4  0  0  0  0
  6  7  4  0  0  0  0
  7  8  4  0  0  0  0
  7 11  1  0  0  0  0
  8  9  4  0  0  0  0
  9 10  4  0  0  0  0
 11 12  2  0  0  0  0
 11 13  1  0  0  0  0
 13 14  1  0  0  0  0
 13 19  1  0  0  0  0
 14 15  1  0  0  0  0
 15 16  2  0  0  0  0
 15 17  1  0  0  0  0
 17 18  1  0  0  0  0
 17 20  1  0  0  0  0
 18 19  1  0  0  0  0
 20 21  4  0  0  0  0
 20 37  4  0  0  0  0
 21 22  4  0  0  0  0
 22 23  4  0  0  0  0
 23 24  1  0  0  0  0
 23 36  4  0  0  0  0
 24 25  1  0  0  0  0
 25 26  1  0  0  0  0
 25 30  1  0  0  0  0
 26 27  1  0  0  0  0
 27 28  1  0  0  0  0
 28 29  1  0  0  0  0
 28 31  1  0  0  0  0
 29 30  1  0  0  0  0
 31 32  1  0  0  0  0
 31 35  1  0  0  0  0
 32 33  1  0  0  0  0
 33 34  1  0  0  0  0
 34 35  1  0  0  0  0
 36 37  4  0  0  0  0
M  END
>  <Name_Molregno>
405780

>  <HISTAMINE H1>
5.6

>  <HISTAMINE H3>
8

$$$$
405784
  Marvin  02231216192D 0   1.00000     0.00000     0

 35 39  0  0  0  0  0  0  0  0999 V2000
    0.5785    1.2737    0.0000 F   0  0  0  0  0  0  0  0  0
    1.2930    0.8612    0.0000 C   0  0  0  0  0  0  0  0  0
    2.0074    1.2737    0.0000 C   0  0  0  0  0  0  0  0  0
    2.7219    0.8612    0.0000 C   0  0  0  0  0  0  0  0  0
    2.7219    0.0362    0.0000 C   0  0  0  0  0  0  0  0  0
    2.0074   -0.3763    0.0000 C   0  0  0  0  0  0  0  0  0
    2.0074   -1.2013    0.0000 F   0  0  0  0  0  0  0  0  0
    1.2930    0.0362    0.0000 C   0  0  0  0  0  0  0  0  0
    3.4364    1.2737    0.0000 C   0  0  0  0  0  0  0  0  0
    3.4364    2.0987    0.0000 O   0  0  0  0  0  0  0  0  0
    4.1509    0.8612    0.0000 N   0  0  0  0  0  0  0  0  0
    4.8653    1.2737    0.0000 C   0  0  0  0  0  0  0  0  0
    5.5798    0.8612    0.0000 C   0  0  0  0  0  0  0  0  0
    6.2943    1.2737    0.0000 O   0  0  0  0  0  0  0  0  0
    5.5798    0.0362    0.0000 N   0  0  0  0  0  0  0  0  0
    4.8653   -0.3763    0.0000 C   0  0  0  0  0  0  0  0  0
    4.1509    0.0362    0.0000 C   0  0  0  0  0  0  0  0  0
    6.2943   -0.3763    0.0000 C   0  0  0  0  0  0  0  0  0
    7.0087    0.0362    0.0000 C   0  0  0  0  0  0  0  0  0
    7.7232   -0.3763    0.0000 C   0  0  0  0  0  0  0  0  0
    7.7232   -1.2013    0.0000 C   0  0  0  0  0  0  0  0  0
    8.4377   -1.6138    0.0000 O   0  0  0  0  0  0  0  0  0
    8.4377   -2.4388    0.0000 C   0  0  0  0  0  0  0  0  0
    9.1522   -2.8513    0.0000 C   0  0  0  0  0  0  0  0  0
    9.1522   -3.6763    0.0000 C   0  0  0  0  0  0  0  0  0
    8.4377   -4.0888    0.0000 N   0  0  0  0  0  0  0  0  0
    7.7232   -3.6763    0.0000 C   0  0  0  0  0  0  0  0  0
    7.7232   -2.8513    0.0000 C   0  0  0  0  0  0  0  0  0
    8.4377   -4.9138    0.0000 C   0  0  0  0  0  0  0  0  0
    9.1051   -5.3987    0.0000 C   0  0  0  0  0  0  0  0  0
    8.8502   -6.1833    0.0000 C   0  0  0  0  0  0  0  0  0
    8.0252   -6.1833    0.0000 C   0  0  0  0  0  0  0  0  0
    7.7702   -5.3987    0.0000 C   0  0  0  0  0  0  0  0  0
    7.0087   -1.6138    0.0000 C   0  0  0  0  0  0  0  0  0
    6.2943   -1.2013    0.0000 C   0  0  0  0  0  0  0  0  0
  1  2  1  0  0  0  0
  2  3  4  0  0  0  0
  2  8  4  0  0  0  0
  3  4  4  0  0  0  0
  4  5  4  0  0  0  0
  4  9  1  0  0  0  0
  5  6  4  0  0  0  0
  6  7  1  0  0  0  0
  6  8  4  0  0  0  0
  9 10  2  0  0  0  0
  9 11  1  0  0  0  0
 11 12  1  0  0  0  0
 11 17  1  0  0  0  0
 12 13  1  0  0  0  0
 13 14  2  0  0  0  0
 13 15  1  0  0  0  0
 15 16  1  0  0  0  0
 15 18  1  0  0  0  0
 16 17  1  0  0  0  0
 18 19  4  0  0  0  0
 18 35  4  0  0  0  0
 19 20  4  0  0  0  0
 20 21  4  0  0  0  0
 21 22  1  0  0  0  0
 21 34  4  0  0  0  0
 22 23  1  0  0  0  0
 23 24  1  0  0  0  0
 23 28  1  0  0  0  0
 24 25  1  0  0  0  0
 25 26  1  0  0  0  0
 26 27  1  0  0  0  0
 26 29  1  0  0  0  0
 27 28  1  0  0  0  0
 29 30  1  0  0  0  0
 29 33  1  0  0  0  0
 30 31  1  0  0  0  0
 31 32  1  0  0  0  0
 32 33  1  0  0  0  0
 34 35  4  0  0  0  0
M  END
>  <Name_Molregno>
405784

>  <HISTAMINE H1>
5.6

>  <HISTAMINE H3>
8.6

$$$$
405785
  Marvin  02231216192D 0   1.00000     0.00000     0

 35 39  0  0  0  0  0  0  0  0999 V2000
    2.4144    1.3879    0.0000 F   0  0  0  0  0  0  0  0  0
    1.7000    1.8004    0.0000 C   0  0  0  0  0  0  0  0  0
    0.9855    1.3879    0.0000 C   0  0  0  0  0  0  0  0  0
    0.2710    1.8004    0.0000 C   0  0  0  0  0  0  0  0  0
   -0.4434    1.3879    0.0000 F   0  0  0  0  0  0  0  0  0
    0.2710    2.6254    0.0000 C   0  0  0  0  0  0  0  0  0
    0.9855    3.0379    0.0000 C   0  0  0  0  0  0  0  0  0
    1.7000    2.6254    0.0000 C   0  0  0  0  0  0  0  0  0
    2.4144    3.0379    0.0000 C   0  0  0  0  0  0  0  0  0
    2.4144    3.8629    0.0000 O   0  0  0  0  0  0  0  0  0
    3.1289    2.6254    0.0000 N   0  0  0  0  0  0  0  0  0
    3.8434    3.0379    0.0000 C   0  0  0  0  0  0  0  0  0
    4.5579    2.6254    0.0000 C   0  0  0  0  0  0  0  0  0
    5.2723    3.0379    0.0000 O   0  0  0  0  0  0  0  0  0
    4.5579    1.8004    0.0000 N   0  0  0  0  0  0  0  0  0
    3.8434    1.3879    0.0000 C   0  0  0  0  0  0  0  0  0
    3.1289    1.8004    0.0000 C   0  0  0  0  0  0  0  0  0
    5.2723    1.3879    0.0000 C   0  0  0  0  0  0  0  0  0
    5.9868    1.8004    0.0000 C   0  0  0  0  0  0  0  0  0
    6.7013    1.3879    0.0000 C   0  0  0  0  0  0  0  0  0
    6.7013    0.5629    0.0000 C   0  0  0  0  0  0  0  0  0
    7.4157    0.1504    0.0000 O   0  0  0  0  0  0  0  0  0
    7.4157   -0.6746    0.0000 C   0  0  0  0  0  0  0  0  0
    8.1302   -1.0871    0.0000 C   0  0  0  0  0  0  0  0  0
    8.1302   -1.9121    0.0000 C   0  0  0  0  0  0  0  0  0
    7.4157   -2.3246    0.0000 N   0  0  0  0  0  0  0  0  0
    6.7013   -1.9121    0.0000 C   0  0  0  0  0  0  0  0  0
    6.7013   -1.0871    0.0000 C   0  0  0  0  0  0  0  0  0
    7.4157   -3.1496    0.0000 C   0  0  0  0  0  0  0  0  0
    8.0832   -3.6345    0.0000 C   0  0  0  0  0  0  0  0  0
    7.8282   -4.4191    0.0000 C   0  0  0  0  0  0  0  0  0
    7.0032   -4.4191    0.0000 C   0  0  0  0  0  0  0  0  0
    6.7483   -3.6345    0.0000 C   0  0  0  0  0  0  0  0  0
    5.9868    0.1504    0.0000 C   0  0  0  0  0  0  0  0  0
    5.2723    0.5629    0.0000 C   0  0  0  0  0  0  0  0  0
  1  2  1  0  0  0  0
  2  3  4  0  0  0  0
  2  8  4  0  0  0  0
  3  4  4  0  0  0  0
  4  5  1  0  0  0  0
  4  6  4  0  0  0  0
  6  7  4  0  0  0  0
  7  8  4  0  0  0  0
  8  9  1  0  0  0  0
  9 10  2  0  0  0  0
  9 11  1  0  0  0  0
 11 12  1  0  0  0  0
 11 17  1  0  0  0  0
 12 13  1  0  0  0  0
 13 14  2  0  0  0  0
 13 15  1  0  0  0  0
 15 16  1  0  0  0  0
 15 18  1  0  0  0  0
 16 17  1  0  0  0  0
 18 19  4  0  0  0  0
 18 35  4  0  0  0  0
 19 20  4  0  0  0  0
 20 21  4  0  0  0  0
 21 22  1  0  0  0  0
 21 34  4  0  0  0  0
 22 23  1  0  0  0  0
 23 24  1  0  0  0  0
 23 28  1  0  0  0  0
 24 25  1  0  0  0  0
 25 26  1  0  0  0  0
 26 27  1  0  0  0  0
 26 29  1  0  0  0  0
 27 28  1  0  0  0  0
 29 30  1  0  0  0  0
 29 33  1  0  0  0  0
 30 31  1  0  0  0  0
 31 32  1  0  0  0  0
 32 33  1  0  0  0  0
 34 35  4  0  0  0  0
M  END
>  <Name_Molregno>
405785

>  <HISTAMINE H1>
5.6

>  <HISTAMINE H3>
8.4

$$$$
408450
  Marvin  02231216192D 0   1.00000     0.00000     0

 28 31  0  0  1  0  0  0  0  0999 V2000
    1.4781   -3.4806    0.0000 Cl  0  0  0  0  0  0  0  0  0
    2.1926   -3.0681    0.0000 C   0  0  0  0  0  0  0  0  0
    2.1926   -2.2431    0.0000 C   0  0  0  0  0  0  0  0  0
    2.9070   -1.8306    0.0000 C   0  0  0  0  0  0  0  0  0
    3.6215   -2.2431    0.0000 C   0  0  0  0  0  0  0  0  0
    3.6215   -3.0681    0.0000 C   0  0  0  0  0  0  0  0  0
    2.9070   -3.4806    0.0000 C   0  0  0  0  0  0  0  0  0
    2.9070   -4.3056    0.0000 Cl  0  0  0  0  0  0  0  0  0
    2.9070   -1.0056    0.0000 C   0  0  0  0  0  0  0  0  0
    3.6215   -0.5931    0.0000 C   0  0  0  0  0  0  0  0  0
    3.6215    0.2319    0.0000 C   0  0  0  0  0  0  0  0  0
    4.3360    0.6444    0.0000 C   0  0  0  0  0  0  0  0  0
    5.0504    0.2319    0.0000 C   0  0  0  0  0  0  0  0  0
    5.7649    0.6444    0.0000 O   0  0  0  0  0  0  0  0  0
    5.7649    1.4694    0.0000 C   0  0  0  0  0  0  0  0  0
    6.4794    1.8819    0.0000 C   0  0  0  0  0  0  0  0  0
    6.4794    2.7069    0.0000 C   0  0  0  0  0  0  0  0  0
    7.1939    3.1194    0.0000 N   0  0  0  0  0  0  0  0  0
    7.1939    3.9444    0.0000 C   0  0  0  0  0  0  0  0  0
    7.9083    4.3569    0.0000 C   0  0  0  0  0  0  0  0  0
    8.6228    3.9444    0.0000 C   0  0  0  0  0  0  0  0  0
    8.6228    3.1194    0.0000 C   0  0  0  0  0  0  0  0  0
    7.9083    2.7069    0.0000 C   0  0  0  0  0  0  0  0  0
    5.0504   -0.5931    0.0000 N   0  0  0  0  0  0  0  0  0
    4.3360   -1.0056    0.0000 C   0  0  0  0  0  0  0  0  0
    2.9070    0.6444    0.0000 C   0  0  0  0  0  0  0  0  0
    2.1926    0.2319    0.0000 N   0  0  0  0  0  0  0  0  0
    2.1926   -0.5931    0.0000 C   0  0  0  0  0  0  0  0  0
  1  2  1  0  0  0  0
  2  3  4  0  0  0  0
  2  7  4  0  0  0  0
  3  4  4  0  0  0  0
  4  5  4  0  0  0  0
  4  9  1  0  0  0  0
  5  6  4  0  0  0  0
  6  7  4  0  0  0  0
  7  8  1  0  0  0  0
  9 10  1  0  0  0  0
  9 28  1  0  0  0  0
 10 11  4  0  0  0  0
 10 25  4  0  0  0  0
 11 12  4  0  0  0  0
 11 26  1  0  0  0  0
 12 13  4  0  0  0  0
 13 14  1  0  0  0  0
 13 24  4  0  0  0  0
 14 15  1  0  0  0  0
 15 16  1  0  0  0  0
 16 17  1  0  0  0  0
 17 18  1  0  0  0  0
 18 19  1  0  0  0  0
 18 23  1  0  0  0  0
 19 20  1  0  0  0  0
 20 21  1  0  0  0  0
 21 22  1  0  0  0  0
 22 23  1  0  0  0  0
 24 25  4  0  0  0  0
 26 27  1  0  0  0  0
 27 28  1  0  0  0  0
M  END
>  <Name_Molregno>
408450

>  <HISTAMINE H3>
8.3

>  <Serotonin transporter>
7.49

$$$$
408451
  Marvin  02231216192D 0   1.00000     0.00000     0

 29 32  0  0  1  0  0  0  0  0999 V2000
    1.4494   -2.7160    0.0000 Cl  0  0  0  0  0  0  0  0  0
    2.1639   -2.3035    0.0000 C   0  0  0  0  0  0  0  0  0
    2.1639   -1.4785    0.0000 C   0  0  0  0  0  0  0  0  0
    2.8783   -1.0660    0.0000 C   0  0  0  0  0  0  0  0  0
    3.5928   -1.4785    0.0000 C   0  0  0  0  0  0  0  0  0
    3.5928   -2.3035    0.0000 C   0  0  0  0  0  0  0  0  0
    2.8783   -2.7160    0.0000 C   0  0  0  0  0  0  0  0  0
    2.8783   -3.5410    0.0000 Cl  0  0  0  0  0  0  0  0  0
    2.8783   -0.2410    0.0000 C   0  0  0  0  0  0  0  0  0
    3.5928    0.1715    0.0000 C   0  0  0  0  0  0  0  0  0
    3.5928    0.9965    0.0000 C   0  0  0  0  0  0  0  0  0
    4.3073    1.4090    0.0000 C   0  0  0  0  0  0  0  0  0
    5.0218    0.9965    0.0000 C   0  0  0  0  0  0  0  0  0
    5.7362    1.4090    0.0000 O   0  0  0  0  0  0  0  0  0
    5.7362    2.2340    0.0000 C   0  0  0  0  0  0  0  0  0
    6.4507    2.6465    0.0000 C   0  0  0  0  0  0  0  0  0
    6.4507    3.4715    0.0000 C   0  0  0  0  0  0  0  0  0
    7.1652    3.8840    0.0000 N   0  0  0  0  0  0  0  0  0
    7.1652    4.7090    0.0000 C   0  0  0  0  0  0  0  0  0
    7.8796    5.1215    0.0000 C   0  0  0  0  0  0  0  0  0
    8.5941    4.7090    0.0000 C   0  0  0  0  0  0  0  0  0
    8.5941    3.8840    0.0000 C   0  0  0  0  0  0  0  0  0
    7.8796    3.4715    0.0000 C   0  0  0  0  0  0  0  0  0
    5.0218    0.1715    0.0000 N   0  0  0  0  0  0  0  0  0
    4.3073   -0.2410    0.0000 C   0  0  0  0  0  0  0  0  0
    2.8783    1.4090    0.0000 C   0  0  0  0  0  0  0  0  0
    2.1639    0.9965    0.0000 N   0  0  0  0  0  0  0  0  0
    2.1639    0.1715    0.0000 C   0  0  0  0  0  0  0  0  0
    1.4494    1.4090    0.0000 C   0  0  0  0  0  0  0  0  0
  1  2  1  0  0  0  0
  2  3  4  0  0  0  0
  2  7  4  0  0  0  0
  3  4  4  0  0  0  0
  4  5  4  0  0  0  0
  4  9  1  0  0  0  0
  5  6  4  0  0  0  0
  6  7  4  0  0  0  0
  7  8  1  0  0  0  0
  9 10  1  0  0  0  0
  9 28  1  0  0  0  0
 10 11  4  0  0  0  0
 10 25  4  0  0  0  0
 11 12  4  0  0  0  0
 11 26  1  0  0  0  0
 12 13  4  0  0  0  0
 13 14  1  0  0  0  0
 13 24  4  0  0  0  0
 14 15  1  0  0  0  0
 15 16  1  0  0  0  0
 16 17  1  0  0  0  0
 17 18  1  0  0  0  0
 18 19  1  0  0  0  0
 18 23  1  0  0  0  0
 19 20  1  0  0  0  0
 20 21  1  0  0  0  0
 21 22  1  0  0  0  0
 22 23  1  0  0  0  0
 24 25  4  0  0  0  0
 26 27  1  0  0  0  0
 27 28  1  0  0  0  0
 27 29  1  0  0  0  0
M  END
>  <Name_Molregno>
408451

>  <HISTAMINE H3>
7.74

>  <Serotonin transporter>
6.92

$$$$
408453
  Marvin  02231216192D 0   1.00000     0.00000     0

 27 30  0  0  1  0  0  0  0  0999 V2000
    2.8594   -5.1984    0.0000 Cl  0  0  0  0  0  0  0  0  0
    2.8594   -4.3734    0.0000 C   0  0  0  0  0  0  0  0  0
    2.1449   -3.9609    0.0000 C   0  0  0  0  0  0  0  0  0
    2.1449   -3.1359    0.0000 C   0  0  0  0  0  0  0  0  0
    2.8594   -2.7234    0.0000 C   0  0  0  0  0  0  0  0  0
    3.5738   -3.1359    0.0000 C   0  0  0  0  0  0  0  0  0
    3.5738   -3.9609    0.0000 C   0  0  0  0  0  0  0  0  0
    2.8594   -1.8984    0.0000 C   0  0  0  0  0  0  0  0  0
    3.5738   -1.4859    0.0000 C   0  0  0  0  0  0  0  0  0
    3.5738   -0.6609    0.0000 C   0  0  0  0  0  0  0  0  0
    4.2883   -0.2484    0.0000 C   0  0  0  0  0  0  0  0  0
    5.0028   -0.6609    0.0000 C   0  0  0  0  0  0  0  0  0
    5.7172   -0.2484    0.0000 O   0  0  0  0  0  0  0  0  0
    5.7172    0.5766    0.0000 C   0  0  0  0  0  0  0  0  0
    6.4317    0.9891    0.0000 C   0  0  0  0  0  0  0  0  0
    6.4317    1.8141    0.0000 C   0  0  0  0  0  0  0  0  0
    7.1462    2.2266    0.0000 N   0  0  0  0  0  0  0  0  0
    7.1462    3.0516    0.0000 C   0  0  0  0  0  0  0  0  0
    7.8607    3.4641    0.0000 C   0  0  0  0  0  0  0  0  0
    8.5751    3.0516    0.0000 C   0  0  0  0  0  0  0  0  0
    8.5751    2.2266    0.0000 C   0  0  0  0  0  0  0  0  0
    7.8607    1.8141    0.0000 C   0  0  0  0  0  0  0  0  0
    5.0028   -1.4859    0.0000 N   0  0  0  0  0  0  0  0  0
    4.2883   -1.8984    0.0000 C   0  0  0  0  0  0  0  0  0
    2.8594   -0.2484    0.0000 C   0  0  0  0  0  0  0  0  0
    2.1449   -0.6609    0.0000 N   0  0  0  0  0  0  0  0  0
    2.1449   -1.4859    0.0000 C   0  0  0  0  0  0  0  0  0
  1  2  1  0  0  0  0
  2  3  4  0  0  0  0
  2  7  4  0  0  0  0
  3  4  4  0  0  0  0
  4  5  4  0  0  0  0
  5  6  4  0  0  0  0
  5  8  1  0  0  0  0
  6  7  4  0  0  0  0
  8  9  1  0  0  0  0
  8 27  1  0  0  0  0
  9 10  4  0  0  0  0
  9 24  4  0  0  0  0
 10 11  4  0  0  0  0
 10 25  1  0  0  0  0
 11 12  4  0  0  0  0
 12 13  1  0  0  0  0
 12 23  4  0  0  0  0
 13 14  1  0  0  0  0
 14 15  1  0  0  0  0
 15 16  1  0  0  0  0
 16 17  1  0  0  0  0
 17 18  1  0  0  0  0
 17 22  1  0  0  0  0
 18 19  1  0  0  0  0
 19 20  1  0  0  0  0
 20 21  1  0  0  0  0
 21 22  1  0  0  0  0
 23 24  4  0  0  0  0
 25 26  1  0  0  0  0
 26 27  1  0  0  0  0
M  END
>  <Name_Molregno>
408453

>  <HISTAMINE H3>
8.7

>  <Serotonin transporter>
6.85

$$$$
408455
  Marvin  02231216192D 0   1.00000     0.00000     0

 28 31  0  0  1  0  0  0  0  0999 V2000
   -5.4013   -6.7370    0.0000 Cl  0  0  0  0  0  0  0  0  0
   -5.4013   -5.9120    0.0000 C   0  0  0  0  0  0  0  0  0
   -6.1158   -5.4995    0.0000 C   0  0  0  0  0  0  0  0  0
   -6.1158   -4.6745    0.0000 C   0  0  0  0  0  0  0  0  0
   -5.4013   -4.2620    0.0000 C   0  0  0  0  0  0  0  0  0
   -4.6869   -4.6745    0.0000 C   0  0  0  0  0  0  0  0  0
   -4.6869   -5.4995    0.0000 C   0  0  0  0  0  0  0  0  0
   -5.4013   -3.4370    0.0000 C   0  0  0  0  0  0  0  0  0
   -4.6869   -3.0245    0.0000 C   0  0  0  0  0  0  0  0  0
   -4.6869   -2.1995    0.0000 C   0  0  0  0  0  0  0  0  0
   -3.9724   -1.7870    0.0000 C   0  0  0  0  0  0  0  0  0
   -3.2579   -2.1995    0.0000 C   0  0  0  0  0  0  0  0  0
   -2.5434   -1.7870    0.0000 O   0  0  0  0  0  0  0  0  0
   -2.5434   -0.9620    0.0000 C   0  0  0  0  0  0  0  0  0
   -1.8290   -0.5495    0.0000 C   0  0  0  0  0  0  0  0  0
   -1.8290    0.2755    0.0000 C   0  0  0  0  0  0  0  0  0
   -1.1145    0.6880    0.0000 N   0  0  0  0  0  0  0  0  0
   -1.1145    1.5130    0.0000 C   0  0  0  0  0  0  0  0  0
   -0.4000    1.9255    0.0000 C   0  0  0  0  0  0  0  0  0
    0.3144    1.5130    0.0000 C   0  0  0  0  0  0  0  0  0
    0.3144    0.6880    0.0000 C   0  0  0  0  0  0  0  0  0
   -0.4000    0.2755    0.0000 C   0  0  0  0  0  0  0  0  0
   -3.2579   -3.0245    0.0000 N   0  0  0  0  0  0  0  0  0
   -3.9724   -3.4370    0.0000 C   0  0  0  0  0  0  0  0  0
   -5.4013   -1.7870    0.0000 C   0  0  0  0  0  0  0  0  0
   -6.1158   -2.1995    0.0000 N   0  0  0  0  0  0  0  0  0
   -6.1158   -3.0245    0.0000 C   0  0  0  0  0  0  0  0  0
   -6.8303   -1.7870    0.0000 C   0  0  0  0  0  0  0  0  0
  1  2  1  0  0  0  0
  2  3  4  0  0  0  0
  2  7  4  0  0  0  0
  3  4  4  0  0  0  0
  4  5  4  0  0  0  0
  5  6  4  0  0  0  0
  5  8  1  0  0  0  0
  6  7  4  0  0  0  0
  8  9  1  0  0  0  0
  8 27  1  0  0  0  0
  9 10  4  0  0  0  0
  9 24  4  0  0  0  0
 10 11  4  0  0  0  0
 10 25  1  0  0  0  0
 11 12  4  0  0  0  0
 12 13  1  0  0  0  0
 12 23  4  0  0  0  0
 13 14  1  0  0  0  0
 14 15  1  0  0  0  0
 15 16  1  0  0  0  0
 16 17  1  0  0  0  0
 17 18  1  0  0  0  0
 17 22  1  0  0  0  0
 18 19  1  0  0  0  0
 19 20  1  0  0  0  0
 20 21  1  0  0  0  0
 21 22  1  0  0  0  0
 23 24  4  0  0  0  0
 25 26  1  0  0  0  0
 26 27  1  0  0  0  0
 26 28  1  0  0  0  0
M  END
>  <Name_Molregno>
408455

>  <HISTAMINE H3>
7.82

>  <Serotonin transporter>
6.97

$$$$
408456
  Marvin  02231216192D 0   1.00000     0.00000     0

 27 30  0  0  1  0  0  0  0  0999 V2000
    3.2873   -1.8868    0.0000 Cl  0  0  0  0  0  0  0  0  0
    2.5728   -2.2993    0.0000 C   0  0  0  0  0  0  0  0  0
    2.5728   -3.1243    0.0000 C   0  0  0  0  0  0  0  0  0
    1.8584   -3.5368    0.0000 C   0  0  0  0  0  0  0  0  0
    1.1439   -3.1243    0.0000 C   0  0  0  0  0  0  0  0  0
    1.1439   -2.2993    0.0000 C   0  0  0  0  0  0  0  0  0
    1.8584   -1.8868    0.0000 C   0  0  0  0  0  0  0  0  0
    1.8584   -1.0618    0.0000 C   0  0  0  0  0  0  0  0  0
    2.5728   -0.6493    0.0000 C   0  0  0  0  0  0  0  0  0
    2.5728    0.1757    0.0000 C   0  0  0  0  0  0  0  0  0
    3.2873    0.5882    0.0000 C   0  0  0  0  0  0  0  0  0
    4.0018    0.1757    0.0000 C   0  0  0  0  0  0  0  0  0
    4.7163    0.5882    0.0000 O   0  0  0  0  0  0  0  0  0
    4.7163    1.4132    0.0000 C   0  0  0  0  0  0  0  0  0
    5.4307    1.8257    0.0000 C   0  0  0  0  0  0  0  0  0
    5.4307    2.6507    0.0000 C   0  0  0  0  0  0  0  0  0
    6.1452    3.0632    0.0000 N   0  0  0  0  0  0  0  0  0
    6.1452    3.8882    0.0000 C   0  0  0  0  0  0  0  0  0
    6.8597    4.3007    0.0000 C   0  0  0  0  0  0  0  0  0
    7.5741    3.8882    0.0000 C   0  0  0  0  0  0  0  0  0
    7.5741    3.0632    0.0000 C   0  0  0  0  0  0  0  0  0
    6.8597    2.6507    0.0000 C   0  0  0  0  0  0  0  0  0
    4.0018   -0.6493    0.0000 N   0  0  0  0  0  0  0  0  0
    3.2873   -1.0618    0.0000 C   0  0  0  0  0  0  0  0  0
    1.8584    0.5882    0.0000 C   0  0  0  0  0  0  0  0  0
    1.1439    0.1757    0.0000 N   0  0  0  0  0  0  0  0  0
    1.1439   -0.6493    0.0000 C   0  0  0  0  0  0  0  0  0
  1  2  1  0  0  0  0
  2  3  4  0  0  0  0
  2  7  4  0  0  0  0
  3  4  4  0  0  0  0
  4  5  4  0  0  0  0
  5  6  4  0  0  0  0
  6  7  4  0  0  0  0
  7  8  1  0  0  0  0
  8  9  1  0  0  0  0
  8 27  1  0  0  0  0
  9 10  4  0  0  0  0
  9 24  4  0  0  0  0
 10 11  4  0  0  0  0
 10 25  1  0  0  0  0
 11 12  4  0  0  0  0
 12 13  1  0  0  0  0
 12 23  4  0  0  0  0
 13 14  1  0  0  0  0
 14 15  1  0  0  0  0
 15 16  1  0  0  0  0
 16 17  1  0  0  0  0
 17 18  1  0  0  0  0
 17 22  1  0  0  0  0
 18 19  1  0  0  0  0
 19 20  1  0  0  0  0
 20 21  1  0  0  0  0
 21 22  1  0  0  0  0
 23 24  4  0  0  0  0
 25 26  1  0  0  0  0
 26 27  1  0  0  0  0
M  END
>  <Name_Molregno>
408456

>  <HISTAMINE H3>
9

>  <Serotonin transporter>
5.88

$$$$
408457
  Marvin  02231216192D 0   1.00000     0.00000     0

 28 31  0  0  1  0  0  0  0  0999 V2000
    1.3339   -4.5943    0.0000 Cl  0  0  0  0  0  0  0  0  0
    2.0484   -4.1818    0.0000 C   0  0  0  0  0  0  0  0  0
    2.0484   -3.3568    0.0000 C   0  0  0  0  0  0  0  0  0
    2.7629   -2.9443    0.0000 C   0  0  0  0  0  0  0  0  0
    3.4773   -3.3568    0.0000 C   0  0  0  0  0  0  0  0  0
    3.4773   -4.1818    0.0000 C   0  0  0  0  0  0  0  0  0
    2.7629   -4.5943    0.0000 C   0  0  0  0  0  0  0  0  0
    2.7629   -2.1193    0.0000 C   0  0  0  0  0  0  0  0  0
    3.4773   -1.7068    0.0000 C   0  0  0  0  0  0  0  0  0
    3.4773   -0.8818    0.0000 C   0  0  0  0  0  0  0  0  0
    4.1918   -0.4693    0.0000 C   0  0  0  0  0  0  0  0  0
    4.9063   -0.8818    0.0000 C   0  0  0  0  0  0  0  0  0
    5.6208   -0.4693    0.0000 O   0  0  0  0  0  0  0  0  0
    5.6208    0.3557    0.0000 C   0  0  0  0  0  0  0  0  0
    6.3352    0.7682    0.0000 C   0  0  0  0  0  0  0  0  0
    6.3352    1.5932    0.0000 C   0  0  0  0  0  0  0  0  0
    7.0497    2.0057    0.0000 N   0  0  0  0  0  0  0  0  0
    7.0497    2.8307    0.0000 C   0  0  0  0  0  0  0  0  0
    7.7642    3.2432    0.0000 C   0  0  0  0  0  0  0  0  0
    8.4786    2.8307    0.0000 C   0  0  0  0  0  0  0  0  0
    8.4786    2.0057    0.0000 C   0  0  0  0  0  0  0  0  0
    7.7642    1.5932    0.0000 C   0  0  0  0  0  0  0  0  0
    4.9063   -1.7068    0.0000 N   0  0  0  0  0  0  0  0  0
    4.1918   -2.1193    0.0000 C   0  0  0  0  0  0  0  0  0
    2.7629   -0.4693    0.0000 C   0  0  0  0  0  0  0  0  0
    2.0484   -0.8818    0.0000 N   0  0  0  0  0  0  0  0  0
    2.0484   -1.7068    0.0000 C   0  0  0  0  0  0  0  0  0
    1.3339   -0.4693    0.0000 C   0  0  0  0  0  0  0  0  0
  1  2  1  0  0  0  0
  2  3  4  0  0  0  0
  2  7  4  0  0  0  0
  3  4  4  0  0  0  0
  4  5  4  0  0  0  0
  4  8  1  0  0  0  0
  5  6  4  0  0  0  0
  6  7  4  0  0  0  0
  8  9  1  0  0  0  0
  8 27  1  0  0  0  0
  9 10  4  0  0  0  0
  9 24  4  0  0  0  0
 10 11  4  0  0  0  0
 10 25  1  0  0  0  0
 11 12  4  0  0  0  0
 12 13  1  0  0  0  0
 12 23  4  0  0  0  0
 13 14  1  0  0  0  0
 14 15  1  0  0  0  0
 15 16  1  0  0  0  0
 16 17  1  0  0  0  0
 17 18  1  0  0  0  0
 17 22  1  0  0  0  0
 18 19  1  0  0  0  0
 19 20  1  0  0  0  0
 20 21  1  0  0  0  0
 21 22  1  0  0  0  0
 23 24  4  0  0  0  0
 25 26  1  0  0  0  0
 26 27  1  0  0  0  0
 26 28  1  0  0  0  0
M  END
>  <Name_Molregno>
408457

>  <HISTAMINE H3>
8.15

>  <Serotonin transporter>
6.08

$$$$
408478
  Marvin  02231216192D 0   1.00000     0.00000     0

 29 32  0  0  1  0  0  0  0  0999 V2000
    2.7931   -3.6709    0.0000 Cl  0  0  0  0  0  0  0  0  0
    2.7931   -2.8459    0.0000 C   0  0  0  0  0  0  0  0  0
    2.0787   -2.4334    0.0000 C   0  0  0  0  0  0  0  0  0
    2.0787   -1.6084    0.0000 C   0  0  0  0  0  0  0  0  0
    2.7931   -1.1959    0.0000 C   0  0  0  0  0  0  0  0  0
    3.5076   -1.6084    0.0000 C   0  0  0  0  0  0  0  0  0
    3.5076   -2.4334    0.0000 C   0  0  0  0  0  0  0  0  0
    4.2221   -2.8459    0.0000 F   0  0  0  0  0  0  0  0  0
    2.7931   -0.3709    0.0000 C   0  0  0  0  0  0  0  0  0
    3.5076    0.0416    0.0000 C   0  0  0  0  0  0  0  0  0
    3.5076    0.8666    0.0000 C   0  0  0  0  0  0  0  0  0
    4.2221    1.2791    0.0000 C   0  0  0  0  0  0  0  0  0
    4.9366    0.8666    0.0000 C   0  0  0  0  0  0  0  0  0
    5.6510    1.2791    0.0000 O   0  0  0  0  0  0  0  0  0
    5.6510    2.1041    0.0000 C   0  0  0  0  0  0  0  0  0
    6.3655    2.5166    0.0000 C   0  0  0  0  0  0  0  0  0
    6.3655    3.3416    0.0000 C   0  0  0  0  0  0  0  0  0
    7.0800    3.7541    0.0000 N   0  0  0  0  0  0  0  0  0
    7.0800    4.5791    0.0000 C   0  0  0  0  0  0  0  0  0
    7.7944    4.9916    0.0000 C   0  0  0  0  0  0  0  0  0
    8.5089    4.5791    0.0000 C   0  0  0  0  0  0  0  0  0
    8.5089    3.7541    0.0000 C   0  0  0  0  0  0  0  0  0
    7.7944    3.3416    0.0000 C   0  0  0  0  0  0  0  0  0
    4.9366    0.0416    0.0000 N   0  0  0  0  0  0  0  0  0
    4.2221   -0.3709    0.0000 C   0  0  0  0  0  0  0  0  0
    2.7931    1.2791    0.0000 C   0  0  0  0  0  0  0  0  0
    2.0787    0.8666    0.0000 N   0  0  0  0  0  0  0  0  0
    2.0787    0.0416    0.0000 C   0  0  0  0  0  0  0  0  0
    1.3642    1.2791    0.0000 C   0  0  0  0  0  0  0  0  0
  1  2  1  0  0  0  0
  2  3  4  0  0  0  0
  2  7  4  0  0  0  0
  3  4  4  0  0  0  0
  4  5  4  0  0  0  0
  5  6  4  0  0  0  0
  5  9  1  0  0  0  0
  6  7  4  0  0  0  0
  7  8  1  0  0  0  0
  9 10  1  0  0  0  0
  9 28  1  0  0  0  0
 10 11  4  0  0  0  0
 10 25  4  0  0  0  0
 11 12  4  0  0  0  0
 11 26  1  0  0  0  0
 12 13  4  0  0  0  0
 13 14  1  0  0  0  0
 13 24  4  0  0  0  0
 14 15  1  0  0  0  0
 15 16  1  0  0  0  0
 16 17  1  0  0  0  0
 17 18  1  0  0  0  0
 18 19  1  0  0  0  0
 18 23  1  0  0  0  0
 19 20  1  0  0  0  0
 20 21  1  0  0  0  0
 21 22  1  0  0  0  0
 22 23  1  0  0  0  0
 24 25  4  0  0  0  0
 26 27  1  0  0  0  0
 27 28  1  0  0  0  0
 27 29  1  0  0  0  0
M  END
>  <Name_Molregno>
408478

>  <HISTAMINE H3>
8.15

>  <Serotonin transporter>
6.83

$$$$
408481
  Marvin  02231216192D 0   1.00000     0.00000     0

 29 32  0  0  1  0  0  0  0  0999 V2000
    1.2809   -2.8222    0.0000 O   0  0  0  0  0  0  0  0  0
    1.2809   -3.6472    0.0000 C   0  0  0  0  0  0  0  0  0
    1.9953   -2.4097    0.0000 C   0  0  0  0  0  0  0  0  0
    1.9953   -1.5847    0.0000 C   0  0  0  0  0  0  0  0  0
    2.7098   -1.1722    0.0000 C   0  0  0  0  0  0  0  0  0
    3.4243   -1.5847    0.0000 C   0  0  0  0  0  0  0  0  0
    3.4243   -2.4097    0.0000 C   0  0  0  0  0  0  0  0  0
    2.7098   -2.8222    0.0000 C   0  0  0  0  0  0  0  0  0
    2.7098   -0.3472    0.0000 C   0  0  0  0  0  0  0  0  0
    3.4243    0.0653    0.0000 C   0  0  0  0  0  0  0  0  0
    3.4243    0.8903    0.0000 C   0  0  0  0  0  0  0  0  0
    4.1388    1.3028    0.0000 C   0  0  0  0  0  0  0  0  0
    4.8532    0.8903    0.0000 C   0  0  0  0  0  0  0  0  0
    5.5677    1.3028    0.0000 O   0  0  0  0  0  0  0  0  0
    5.5677    2.1278    0.0000 C   0  0  0  0  0  0  0  0  0
    6.2822    2.5403    0.0000 C   0  0  0  0  0  0  0  0  0
    6.2822    3.3653    0.0000 C   0  0  0  0  0  0  0  0  0
    6.9966    3.7778    0.0000 N   0  0  0  0  0  0  0  0  0
    6.9966    4.6028    0.0000 C   0  0  0  0  0  0  0  0  0
    7.7111    5.0153    0.0000 C   0  0  0  0  0  0  0  0  0
    8.4256    4.6028    0.0000 C   0  0  0  0  0  0  0  0  0
    8.4256    3.7778    0.0000 C   0  0  0  0  0  0  0  0  0
    7.7111    3.3653    0.0000 C   0  0  0  0  0  0  0  0  0
    4.8532    0.0653    0.0000 N   0  0  0  0  0  0  0  0  0
    4.1388   -0.3472    0.0000 C   0  0  0  0  0  0  0  0  0
    2.7098    1.3028    0.0000 C   0  0  0  0  0  0  0  0  0
    1.9953    0.8903    0.0000 N   0  0  0  0  0  0  0  0  0
    1.9953    0.0653    0.0000 C   0  0  0  0  0  0  0  0  0
    1.2809    1.3028    0.0000 C   0  0  0  0  0  0  0  0  0
  1  2  1  0  0  0  0
  1  3  1  0  0  0  0
  3  4  4  0  0  0  0
  3  8  4  0  0  0  0
  4  5  4  0  0  0  0
  5  6  4  0  0  0  0
  5  9  1  0  0  0  0
  6  7  4  0  0  0  0
  7  8  4  0  0  0  0
  9 10  1  0  0  0  0
  9 28  1  0  0  0  0
 10 11  4  0  0  0  0
 10 25  4  0  0  0  0
 11 12  4  0  0  0  0
 11 26  1  0  0  0  0
 12 13  4  0  0  0  0
 13 14  1  0  0  0  0
 13 24  4  0  0  0  0
 14 15  1  0  0  0  0
 15 16  1  0  0  0  0
 16 17  1  0  0  0  0
 17 18  1  0  0  0  0
 18 19  1  0  0  0  0
 18 23  1  0  0  0  0
 19 20  1  0  0  0  0
 20 21  1  0  0  0  0
 21 22  1  0  0  0  0
 22 23  1  0  0  0  0
 24 25  4  0  0  0  0
 26 27  1  0  0  0  0
 27 28  1  0  0  0  0
 27 29  1  0  0  0  0
M  END
>  <Name_Molregno>
408481

>  <HISTAMINE H3>
8.1

>  <Serotonin transporter>
6.52

$$$$
408482
  Marvin  02231216192D 0   1.00000     0.00000     0

 28 31  0  0  1  0  0  0  0  0999 V2000
   -6.3349   -3.7132    0.0000 O   0  0  0  0  0  0  0  0  0
   -5.6204   -4.1257    0.0000 C   0  0  0  0  0  0  0  0  0
   -6.3349   -2.8882    0.0000 C   0  0  0  0  0  0  0  0  0
   -7.0494   -2.4757    0.0000 C   0  0  0  0  0  0  0  0  0
   -7.0494   -1.6507    0.0000 C   0  0  0  0  0  0  0  0  0
   -6.3349   -1.2382    0.0000 C   0  0  0  0  0  0  0  0  0
   -5.6204   -1.6507    0.0000 C   0  0  0  0  0  0  0  0  0
   -5.6204   -2.4757    0.0000 C   0  0  0  0  0  0  0  0  0
   -6.3349   -0.4132    0.0000 C   0  0  0  0  0  0  0  0  0
   -5.6204   -0.0007    0.0000 C   0  0  0  0  0  0  0  0  0
   -5.6204    0.8243    0.0000 C   0  0  0  0  0  0  0  0  0
   -4.9060    1.2368    0.0000 C   0  0  0  0  0  0  0  0  0
   -4.1915    0.8243    0.0000 C   0  0  0  0  0  0  0  0  0
   -3.4770    1.2368    0.0000 O   0  0  0  0  0  0  0  0  0
   -3.4770    2.0618    0.0000 C   0  0  0  0  0  0  0  0  0
   -2.7625    2.4743    0.0000 C   0  0  0  0  0  0  0  0  0
   -2.7625    3.2993    0.0000 C   0  0  0  0  0  0  0  0  0
   -2.0481    3.7118    0.0000 N   0  0  0  0  0  0  0  0  0
   -2.0481    4.5368    0.0000 C   0  0  0  0  0  0  0  0  0
   -1.3336    4.9493    0.0000 C   0  0  0  0  0  0  0  0  0
   -0.6191    4.5368    0.0000 C   0  0  0  0  0  0  0  0  0
   -0.6191    3.7118    0.0000 C   0  0  0  0  0  0  0  0  0
   -1.3336    3.2993    0.0000 C   0  0  0  0  0  0  0  0  0
   -4.1915   -0.0007    0.0000 N   0  0  0  0  0  0  0  0  0
   -4.9060   -0.4132    0.0000 C   0  0  0  0  0  0  0  0  0
   -6.3349    1.2368    0.0000 C   0  0  0  0  0  0  0  0  0
   -7.0494    0.8243    0.0000 N   0  0  0  0  0  0  0  0  0
   -7.0494   -0.0007    0.0000 C   0  0  0  0  0  0  0  0  0
  1  2  1  0  0  0  0
  1  3  1  0  0  0  0
  3  4  4  0  0  0  0
  3  8  4  0  0  0  0
  4  5  4  0  0  0  0
  5  6  4  0  0  0  0
  6  7  4  0  0  0  0
  6  9  1  0  0  0  0
  7  8  4  0  0  0  0
  9 10  1  0  0  0  0
  9 28  1  0  0  0  0
 10 11  4  0  0  0  0
 10 25  4  0  0  0  0
 11 12  4  0  0  0  0
 11 26  1  0  0  0  0
 12 13  4  0  0  0  0
 13 14  1  0  0  0  0
 13 24  4  0  0  0  0
 14 15  1  0  0  0  0
 15 16  1  0  0  0  0
 16 17  1  0  0  0  0
 17 18  1  0  0  0  0
 18 19  1  0  0  0  0
 18 23  1  0  0  0  0
 19 20  1  0  0  0  0
 20 21  1  0  0  0  0
 21 22  1  0  0  0  0
 22 23  1  0  0  0  0
 24 25  4  0  0  0  0
 26 27  1  0  0  0  0
 27 28  1  0  0  0  0
M  END
>  <Name_Molregno>
408482

>  <HISTAMINE H3>
8.4

>  <Serotonin transporter>
6.83

$$$$
408491
  Marvin  02231216192D 0   1.00000     0.00000     0

 28 31  0  0  1  0  0  0  0  0999 V2000
   -5.4013   -6.7370    0.0000 F   0  0  0  0  0  0  0  0  0
   -5.4013   -5.9120    0.0000 C   0  0  0  0  0  0  0  0  0
   -6.1158   -5.4995    0.0000 C   0  0  0  0  0  0  0  0  0
   -6.1158   -4.6745    0.0000 C   0  0  0  0  0  0  0  0  0
   -5.4013   -4.2620    0.0000 C   0  0  0  0  0  0  0  0  0
   -4.6869   -4.6745    0.0000 C   0  0  0  0  0  0  0  0  0
   -4.6869   -5.4995    0.0000 C   0  0  0  0  0  0  0  0  0
   -5.4013   -3.4370    0.0000 C   0  0  0  0  0  0  0  0  0
   -4.6869   -3.0245    0.0000 C   0  0  0  0  0  0  0  0  0
   -4.6869   -2.1995    0.0000 C   0  0  0  0  0  0  0  0  0
   -3.9724   -1.7870    0.0000 C   0  0  0  0  0  0  0  0  0
   -3.2579   -2.1995    0.0000 C   0  0  0  0  0  0  0  0  0
   -2.5434   -1.7870    0.0000 O   0  0  0  0  0  0  0  0  0
   -2.5434   -0.9620    0.0000 C   0  0  0  0  0  0  0  0  0
   -1.8290   -0.5495    0.0000 C   0  0  0  0  0  0  0  0  0
   -1.8290    0.2755    0.0000 C   0  0  0  0  0  0  0  0  0
   -1.1145    0.6880    0.0000 N   0  0  0  0  0  0  0  0  0
   -1.1145    1.5130    0.0000 C   0  0  0  0  0  0  0  0  0
   -0.4000    1.9255    0.0000 C   0  0  0  0  0  0  0  0  0
    0.3144    1.5130    0.0000 C   0  0  0  0  0  0  0  0  0
    0.3144    0.6880    0.0000 C   0  0  0  0  0  0  0  0  0
   -0.4000    0.2755    0.0000 C   0  0  0  0  0  0  0  0  0
   -3.2579   -3.0245    0.0000 N   0  0  0  0  0  0  0  0  0
   -3.9724   -3.4370    0.0000 C   0  0  0  0  0  0  0  0  0
   -5.4013   -1.7870    0.0000 C   0  0  0  0  0  0  0  0  0
   -6.1158   -2.1995    0.0000 N   0  0  0  0  0  0  0  0  0
   -6.1158   -3.0245    0.0000 C   0  0  0  0  0  0  0  0  0
   -6.8303   -1.7870    0.0000 C   0  0  0  0  0  0  0  0  0
  1  2  1  0  0  0  0
  2  3  4  0  0  0  0
  2  7  4  0  0  0  0
  3  4  4  0  0  0  0
  4  5  4  0  0  0  0
  5  6  4  0  0  0  0
  5  8  1  0  0  0  0
  6  7  4  0  0  0  0
  8  9  1  0  0  0  0
  8 27  1  0  0  0  0
  9 10  4  0  0  0  0
  9 24  4  0  0  0  0
 10 11  4  0  0  0  0
 10 25  1  0  0  0  0
 11 12  4  0  0  0  0
 12 13  1  0  0  0  0
 12 23  4  0  0  0  0
 13 14  1  0  0  0  0
 14 15  1  0  0  0  0
 15 16  1  0  0  0  0
 16 17  1  0  0  0  0
 17 18  1  0  0  0  0
 17 22  1  0  0  0  0
 18 19  1  0  0  0  0
 19 20  1  0  0  0  0
 20 21  1  0  0  0  0
 21 22  1  0  0  0  0
 23 24  4  0  0  0  0
 25 26  1  0  0  0  0
 26 27  1  0  0  0  0
 26 28  1  0  0  0  0
M  END
>  <Name_Molregno>
408491

>  <HISTAMINE H3>
8.05

>  <Serotonin transporter>
6.44

$$$$
408529
  Marvin  02231216192D 0   1.00000     0.00000     0

 27 30  0  0  1  0  0  0  0  0999 V2000
   -1.6768   -0.7081    0.0000 O   0  0  0  0  0  0  0  0  0
   -1.6768    0.1169    0.0000 C   0  0  0  0  0  0  0  0  0
   -2.3913    0.5294    0.0000 C   0  0  0  0  0  0  0  0  0
   -2.3913    1.3544    0.0000 C   0  0  0  0  0  0  0  0  0
   -3.1057    1.7669    0.0000 N   0  0  0  0  0  0  0  0  0
   -3.8202    1.3544    0.0000 C   0  0  0  0  0  0  0  0  0
   -4.5347    1.7669    0.0000 C   0  0  0  0  0  0  0  0  0
   -4.5347    2.5919    0.0000 C   0  0  0  0  0  0  0  0  0
   -3.8202    3.0044    0.0000 C   0  0  0  0  0  0  0  0  0
   -3.1057    2.5919    0.0000 C   0  0  0  0  0  0  0  0  0
   -0.9623   -1.1206    0.0000 C   0  0  0  0  0  0  0  0  0
   -0.9623   -1.9456    0.0000 N   0  0  0  0  0  0  0  0  0
   -0.2478   -2.3581    0.0000 C   0  0  0  0  0  0  0  0  0
    0.4666   -1.9456    0.0000 C   0  0  0  0  0  0  0  0  0
    0.4666   -1.1206    0.0000 C   0  0  0  0  0  0  0  0  0
   -0.2478   -0.7081    0.0000 C   0  0  0  0  0  0  0  0  0
    1.1811   -0.7081    0.0000 C   0  0  0  0  0  0  0  0  0
    1.8956   -1.1206    0.0000 N   0  0  0  0  0  0  0  0  0
    1.8956   -1.9456    0.0000 C   0  0  0  0  0  0  0  0  0
    1.1811   -2.3581    0.0000 C   0  0  0  0  0  0  0  0  0
    1.1811   -3.1831    0.0000 C   0  0  0  0  0  0  0  0  0
    1.8956   -3.5956    0.0000 C   0  0  0  0  0  0  0  0  0
    1.8956   -4.4206    0.0000 C   0  0  0  0  0  0  0  0  0
    1.1811   -4.8331    0.0000 C   0  0  0  0  0  0  0  0  0
    0.4666   -4.4206    0.0000 C   0  0  0  0  0  0  0  0  0
    0.4666   -3.5956    0.0000 C   0  0  0  0  0  0  0  0  0
    2.6100   -0.7081    0.0000 C   0  0  0  0  0  0  0  0  0
  1  2  1  0  0  0  0
  1 11  1  0  0  0  0
  2  3  1  0  0  0  0
  3  4  1  0  0  0  0
  4  5  1  0  0  0  0
  5  6  1  0  0  0  0
  5 10  1  0  0  0  0
  6  7  1  0  0  0  0
  7  8  1  0  0  0  0
  8  9  1  0  0  0  0
  9 10  1  0  0  0  0
 11 12  4  0  0  0  0
 11 16  4  0  0  0  0
 12 13  4  0  0  0  0
 13 14  4  0  0  0  0
 14 15  4  0  0  0  0
 14 20  1  0  0  0  0
 15 16  4  0  0  0  0
 15 17  1  0  0  0  0
 17 18  1  0  0  0  0
 18 19  1  0  0  0  0
 18 27  1  0  0  0  0
 19 20  1  0  0  0  0
 20 21  1  0  0  0  0
 21 22  4  0  0  0  0
 21 26  4  0  0  0  0
 22 23  4  0  0  0  0
 23 24  4  0  0  0  0
 24 25  4  0  0  0  0
 25 26  4  0  0  0  0
M  END
>  <Name_Molregno>
408529

>  <HISTAMINE H3>
8.3

>  <Serotonin transporter>
5.94

$$$$
408530
  Marvin  02231216192D 0   1.00000     0.00000     0

 26 29  0  0  1  0  0  0  0  0999 V2000
   -1.6079    0.9137    0.0000 O   0  0  0  0  0  0  0  0  0
   -1.6079    1.7387    0.0000 C   0  0  0  0  0  0  0  0  0
   -2.3224    2.1512    0.0000 C   0  0  0  0  0  0  0  0  0
   -2.3224    2.9762    0.0000 C   0  0  0  0  0  0  0  0  0
   -3.0369    3.3887    0.0000 N   0  0  0  0  0  0  0  0  0
   -3.7513    2.9762    0.0000 C   0  0  0  0  0  0  0  0  0
   -4.4658    3.3887    0.0000 C   0  0  0  0  0  0  0  0  0
   -4.4658    4.2137    0.0000 C   0  0  0  0  0  0  0  0  0
   -3.7513    4.6262    0.0000 C   0  0  0  0  0  0  0  0  0
   -3.0369    4.2137    0.0000 C   0  0  0  0  0  0  0  0  0
   -0.8935    0.5012    0.0000 C   0  0  0  0  0  0  0  0  0
   -0.8935   -0.3238    0.0000 N   0  0  0  0  0  0  0  0  0
   -0.1790   -0.7363    0.0000 C   0  0  0  0  0  0  0  0  0
    0.5355   -0.3238    0.0000 C   0  0  0  0  0  0  0  0  0
    0.5355    0.5012    0.0000 C   0  0  0  0  0  0  0  0  0
   -0.1790    0.9137    0.0000 C   0  0  0  0  0  0  0  0  0
    1.2500    0.9137    0.0000 C   0  0  0  0  0  0  0  0  0
    1.9644    0.5012    0.0000 N   0  0  0  0  0  0  0  0  0
    1.9644   -0.3238    0.0000 C   0  0  0  0  0  0  0  0  0
    1.2500   -0.7363    0.0000 C   0  0  0  0  0  0  0  0  0
    1.2500   -1.5613    0.0000 C   0  0  0  0  0  0  0  0  0
    1.9644   -1.9738    0.0000 C   0  0  0  0  0  0  0  0  0
    1.9644   -2.7988    0.0000 C   0  0  0  0  0  0  0  0  0
    1.2500   -3.2113    0.0000 C   0  0  0  0  0  0  0  0  0
    0.5355   -2.7988    0.0000 C   0  0  0  0  0  0  0  0  0
    0.5355   -1.9738    0.0000 C   0  0  0  0  0  0  0  0  0
  1  2  1  0  0  0  0
  1 11  1  0  0  0  0
  2  3  1  0  0  0  0
  3  4  1  0  0  0  0
  4  5  1  0  0  0  0
  5  6  1  0  0  0  0
  5 10  1  0  0  0  0
  6  7  1  0  0  0  0
  7  8  1  0  0  0  0
  8  9  1  0  0  0  0
  9 10  1  0  0  0  0
 11 12  4  0  0  0  0
 11 16  4  0  0  0  0
 12 13  4  0  0  0  0
 13 14  4  0  0  0  0
 14 15  4  0  0  0  0
 14 20  1  0  0  0  0
 15 16  4  0  0  0  0
 15 17  1  0  0  0  0
 17 18  1  0  0  0  0
 18 19  1  0  0  0  0
 19 20  1  0  0  0  0
 20 21  1  0  0  0  0
 21 22  4  0  0  0  0
 21 26  4  0  0  0  0
 22 23  4  0  0  0  0
 23 24  4  0  0  0  0
 24 25  4  0  0  0  0
 25 26  4  0  0  0  0
M  END
>  <Name_Molregno>
408530

>  <HISTAMINE H3>
9

>  <Serotonin transporter>
5.63

$$$$
408531
  Marvin  02231216192D 0   1.00000     0.00000     0

 28 31  0  0  1  0  0  0  0  0999 V2000
    3.3156   -2.6529    0.0000 F   0  0  0  0  0  0  0  0  0
    2.6011   -3.0654    0.0000 C   0  0  0  0  0  0  0  0  0
    2.6011   -3.8904    0.0000 C   0  0  0  0  0  0  0  0  0
    1.8866   -4.3029    0.0000 C   0  0  0  0  0  0  0  0  0
    1.1722   -3.8904    0.0000 C   0  0  0  0  0  0  0  0  0
    1.1722   -3.0654    0.0000 C   0  0  0  0  0  0  0  0  0
    1.8866   -2.6529    0.0000 C   0  0  0  0  0  0  0  0  0
    1.8866   -1.8279    0.0000 C   0  0  0  0  0  0  0  0  0
    2.6011   -1.4154    0.0000 C   0  0  0  0  0  0  0  0  0
    2.6011   -0.5904    0.0000 C   0  0  0  0  0  0  0  0  0
    3.3156   -0.1779    0.0000 C   0  0  0  0  0  0  0  0  0
    4.0301   -0.5904    0.0000 C   0  0  0  0  0  0  0  0  0
    4.7445   -0.1779    0.0000 O   0  0  0  0  0  0  0  0  0
    4.7445    0.6471    0.0000 C   0  0  0  0  0  0  0  0  0
    5.4590    1.0596    0.0000 C   0  0  0  0  0  0  0  0  0
    5.4590    1.8846    0.0000 C   0  0  0  0  0  0  0  0  0
    6.1735    2.2971    0.0000 N   0  0  0  0  0  0  0  0  0
    6.1735    3.1221    0.0000 C   0  0  0  0  0  0  0  0  0
    6.8879    3.5346    0.0000 C   0  0  0  0  0  0  0  0  0
    7.6024    3.1221    0.0000 C   0  0  0  0  0  0  0  0  0
    7.6024    2.2971    0.0000 C   0  0  0  0  0  0  0  0  0
    6.8879    1.8846    0.0000 C   0  0  0  0  0  0  0  0  0
    4.0301   -1.4154    0.0000 N   0  0  0  0  0  0  0  0  0
    3.3156   -1.8279    0.0000 C   0  0  0  0  0  0  0  0  0
    1.8866   -0.1779    0.0000 C   0  0  0  0  0  0  0  0  0
    1.1722   -0.5904    0.0000 N   0  0  0  0  0  0  0  0  0
    1.1722   -1.4154    0.0000 C   0  0  0  0  0  0  0  0  0
    0.4577   -0.1779    0.0000 C   0  0  0  0  0  0  0  0  0
  1  2  1  0  0  0  0
  2  3  4  0  0  0  0
  2  7  4  0  0  0  0
  3  4  4  0  0  0  0
  4  5  4  0  0  0  0
  5  6  4  0  0  0  0
  6  7  4  0  0  0  0
  7  8  1  0  0  0  0
  8  9  1  0  0  0  0
  8 27  1  0  0  0  0
  9 10  4  0  0  0  0
  9 24  4  0  0  0  0
 10 11  4  0  0  0  0
 10 25  1  0  0  0  0
 11 12  4  0  0  0  0
 12 13  1  0  0  0  0
 12 23  4  0  0  0  0
 13 14  1  0  0  0  0
 14 15  1  0  0  0  0
 15 16  1  0  0  0  0
 16 17  1  0  0  0  0
 17 18  1  0  0  0  0
 17 22  1  0  0  0  0
 18 19  1  0  0  0  0
 19 20  1  0  0  0  0
 20 21  1  0  0  0  0
 21 22  1  0  0  0  0
 23 24  4  0  0  0  0
 25 26  1  0  0  0  0
 26 27  1  0  0  0  0
 26 28  1  0  0  0  0
M  END
>  <Name_Molregno>
408531

>  <HISTAMINE H3>
8.7

>  <Serotonin transporter>
6.11

$$$$
408532
  Marvin  02231216192D 0   1.00000     0.00000     0

 27 29  0  0  1  0  0  0  0  0999 V2000
    0.0135    0.0818    0.0000 Cl  0  0  0  0  0  0  0  0  0
    0.8385    0.0818    0.0000 C   0  0  0  0  0  0  0  0  0
    1.2510    0.7963    0.0000 C   0  0  0  0  0  0  0  0  0
    2.0760    0.7963    0.0000 C   0  0  0  0  0  0  0  0  0
    2.4885    0.0818    0.0000 C   0  0  0  0  0  0  0  0  0
    2.0760   -0.6327    0.0000 C   0  0  0  0  0  0  0  0  0
    1.2510   -0.6327    0.0000 C   0  0  0  0  0  0  0  0  0
    0.8385   -1.3471    0.0000 Cl  0  0  0  0  0  0  0  0  0
    2.4885    1.5107    0.0000 C   0  0  0  0  0  0  0  0  0
    3.3135    1.5107    0.0000 C   0  0  0  0  0  0  0  0  0
    3.7260    2.2252    0.0000 C   0  0  0  0  0  0  0  0  0
    4.5510    2.2252    0.0000 C   0  0  0  0  0  0  0  0  0
    4.9635    1.5107    0.0000 C   0  0  0  0  0  0  0  0  0
    5.7885    1.5107    0.0000 O   0  0  0  0  0  0  0  0  0
    6.2010    0.7963    0.0000 C   0  0  0  0  0  0  0  0  0
    7.0260    0.7963    0.0000 C   0  0  0  0  0  0  0  0  0
    7.4385    0.0818    0.0000 C   0  0  0  0  0  0  0  0  0
    8.2635    0.0818    0.0000 N   0  0  0  0  0  0  0  0  0
    8.6760   -0.6327    0.0000 C   0  0  0  0  0  0  0  0  0
    9.5010   -0.6327    0.0000 C   0  0  0  0  0  0  0  0  0
    8.6760    0.7963    0.0000 C   0  0  0  0  0  0  0  0  0
    9.5010    0.7963    0.0000 C   0  0  0  0  0  0  0  0  0
    4.5510    0.7963    0.0000 N   0  0  0  0  0  0  0  0  0
    3.7260    0.7963    0.0000 C   0  0  0  0  0  0  0  0  0
    3.3135    2.9397    0.0000 C   0  0  0  0  0  0  0  0  0
    2.4885    2.9397    0.0000 N   0  0  0  0  0  0  0  0  0
    2.0760    2.2252    0.0000 C   0  0  0  0  0  0  0  0  0
  1  2  1  0  0  0  0
  2  3  4  0  0  0  0
  2  7  4  0  0  0  0
  3  4  4  0  0  0  0
  4  5  4  0  0  0  0
  4  9  1  0  0  0  0
  5  6  4  0  0  0  0
  6  7  4  0  0  0  0
  7  8  1  0  0  0  0
  9 10  1  0  0  0  0
  9 27  1  0  0  0  0
 10 11  4  0  0  0  0
 10 24  4  0  0  0  0
 11 12  4  0  0  0  0
 11 25  1  0  0  0  0
 12 13  4  0  0  0  0
 13 14  1  0  0  0  0
 13 23  4  0  0  0  0
 14 15  1  0  0  0  0
 15 16  1  0  0  0  0
 16 17  1  0  0  0  0
 17 18  1  0  0  0  0
 18 19  1  0  0  0  0
 18 21  1  0  0  0  0
 19 20  1  0  0  0  0
 21 22  1  0  0  0  0
 23 24  4  0  0  0  0
 25 26  1  0  0  0  0
 26 27  1  0  0  0  0
M  END
>  <Name_Molregno>
408532

>  <HISTAMINE H3>
8.15

>  <Serotonin transporter>
7.59

$$$$
408534
  Marvin  02231216192D 0   1.00000     0.00000     0

 27 29  0  0  1  0  0  0  0  0999 V2000
   -7.8515   -2.7770    0.0000 O   0  0  0  0  0  0  0  0  0
   -7.4390   -3.4914    0.0000 C   0  0  0  0  0  0  0  0  0
   -7.4390   -2.0625    0.0000 C   0  0  0  0  0  0  0  0  0
   -7.8515   -1.3480    0.0000 C   0  0  0  0  0  0  0  0  0
   -7.4390   -0.6336    0.0000 C   0  0  0  0  0  0  0  0  0
   -6.6140   -0.6336    0.0000 C   0  0  0  0  0  0  0  0  0
   -6.2015   -1.3480    0.0000 C   0  0  0  0  0  0  0  0  0
   -6.6140   -2.0625    0.0000 C   0  0  0  0  0  0  0  0  0
   -6.2015    0.0809    0.0000 C   0  0  0  0  0  0  0  0  0
   -5.3765    0.0809    0.0000 C   0  0  0  0  0  0  0  0  0
   -4.9640    0.7954    0.0000 C   0  0  0  0  0  0  0  0  0
   -4.1390    0.7954    0.0000 C   0  0  0  0  0  0  0  0  0
   -3.7265    0.0809    0.0000 C   0  0  0  0  0  0  0  0  0
   -2.9015    0.0809    0.0000 O   0  0  0  0  0  0  0  0  0
   -2.4890   -0.6336    0.0000 C   0  0  0  0  0  0  0  0  0
   -1.6640   -0.6336    0.0000 C   0  0  0  0  0  0  0  0  0
   -1.2515   -1.3480    0.0000 C   0  0  0  0  0  0  0  0  0
   -0.4265   -1.3480    0.0000 N   0  0  0  0  0  0  0  0  0
   -0.0140   -2.0625    0.0000 C   0  0  0  0  0  0  0  0  0
    0.8110   -2.0625    0.0000 C   0  0  0  0  0  0  0  0  0
   -0.0140   -0.6336    0.0000 C   0  0  0  0  0  0  0  0  0
    0.8110   -0.6336    0.0000 C   0  0  0  0  0  0  0  0  0
   -4.1390   -0.6336    0.0000 N   0  0  0  0  0  0  0  0  0
   -4.9640   -0.6336    0.0000 C   0  0  0  0  0  0  0  0  0
   -5.3765    1.5099    0.0000 C   0  0  0  0  0  0  0  0  0
   -6.2015    1.5099    0.0000 N   0  0  0  0  0  0  0  0  0
   -6.6140    0.7954    0.0000 C   0  0  0  0  0  0  0  0  0
  1  2  1  0  0  0  0
  1  3  1  0  0  0  0
  3  4  4  0  0  0  0
  3  8  4  0  0  0  0
  4  5  4  0  0  0  0
  5  6  4  0  0  0  0
  6  7  4  0  0  0  0
  6  9  1  0  0  0  0
  7  8  4  0  0  0  0
  9 10  1  0  0  0  0
  9 27  1  0  0  0  0
 10 11  4  0  0  0  0
 10 24  4  0  0  0  0
 11 12  4  0  0  0  0
 11 25  1  0  0  0  0
 12 13  4  0  0  0  0
 13 14  1  0  0  0  0
 13 23  4  0  0  0  0
 14 15  1  0  0  0  0
 15 16  1  0  0  0  0
 16 17  1  0  0  0  0
 17 18  1  0  0  0  0
 18 19  1  0  0  0  0
 18 21  1  0  0  0  0
 19 20  1  0  0  0  0
 21 22  1  0  0  0  0
 23 24  4  0  0  0  0
 25 26  1  0  0  0  0
 26 27  1  0  0  0  0
M  END
>  <Name_Molregno>
408534

>  <HISTAMINE H3>
7.64

>  <Serotonin transporter>
6.65

$$$$
408535
  Marvin  02231216192D 0   1.00000     0.00000     0

 28 30  0  0  1  0  0  0  0  0999 V2000
   -7.7420   -2.9754    0.0000 O   0  0  0  0  0  0  0  0  0
   -7.3295   -3.6899    0.0000 C   0  0  0  0  0  0  0  0  0
   -7.3295   -2.2610    0.0000 C   0  0  0  0  0  0  0  0  0
   -7.7420   -1.5465    0.0000 C   0  0  0  0  0  0  0  0  0
   -7.3295   -0.8320    0.0000 C   0  0  0  0  0  0  0  0  0
   -6.5045   -0.8320    0.0000 C   0  0  0  0  0  0  0  0  0
   -6.0920   -1.5465    0.0000 C   0  0  0  0  0  0  0  0  0
   -6.5045   -2.2610    0.0000 C   0  0  0  0  0  0  0  0  0
   -6.0920   -0.1175    0.0000 C   0  0  0  0  0  0  0  0  0
   -5.2670   -0.1175    0.0000 C   0  0  0  0  0  0  0  0  0
   -4.8545    0.5969    0.0000 C   0  0  0  0  0  0  0  0  0
   -4.0295    0.5969    0.0000 C   0  0  0  0  0  0  0  0  0
   -3.6170   -0.1175    0.0000 C   0  0  0  0  0  0  0  0  0
   -2.7920   -0.1175    0.0000 O   0  0  0  0  0  0  0  0  0
   -2.3795   -0.8320    0.0000 C   0  0  0  0  0  0  0  0  0
   -1.5545   -0.8320    0.0000 C   0  0  0  0  0  0  0  0  0
   -1.1420   -1.5465    0.0000 C   0  0  0  0  0  0  0  0  0
   -0.3170   -1.5465    0.0000 N   0  0  0  0  0  0  0  0  0
    0.0955   -2.2610    0.0000 C   0  0  0  0  0  0  0  0  0
    0.9205   -2.2610    0.0000 C   0  0  0  0  0  0  0  0  0
    0.0955   -0.8320    0.0000 C   0  0  0  0  0  0  0  0  0
    0.9205   -0.8320    0.0000 C   0  0  0  0  0  0  0  0  0
   -4.0295   -0.8320    0.0000 N   0  0  0  0  0  0  0  0  0
   -4.8545   -0.8320    0.0000 C   0  0  0  0  0  0  0  0  0
   -5.2670    1.3114    0.0000 C   0  0  0  0  0  0  0  0  0
   -6.0920    1.3114    0.0000 N   0  0  0  0  0  0  0  0  0
   -6.5045    0.5969    0.0000 C   0  0  0  0  0  0  0  0  0
   -6.5045    2.0259    0.0000 C   0  0  0  0  0  0  0  0  0
  1  2  1  0  0  0  0
  1  3  1  0  0  0  0
  3  4  4  0  0  0  0
  3  8  4  0  0  0  0
  4  5  4  0  0  0  0
  5  6  4  0  0  0  0
  6  7  4  0  0  0  0
  6  9  1  0  0  0  0
  7  8  4  0  0  0  0
  9 10  1  0  0  0  0
  9 27  1  0  0  0  0
 10 11  4  0  0  0  0
 10 24  4  0  0  0  0
 11 12  4  0  0  0  0
 11 25  1  0  0  0  0
 12 13  4  0  0  0  0
 13 14  1  0  0  0  0
 13 23  4  0  0  0  0
 14 15  1  0  0  0  0
 15 16  1  0  0  0  0
 16 17  1  0  0  0  0
 17 18  1  0  0  0  0
 18 19  1  0  0  0  0
 18 21  1  0  0  0  0
 19 20  1  0  0  0  0
 21 22  1  0  0  0  0
 23 24  4  0  0  0  0
 25 26  1  0  0  0  0
 26 27  1  0  0  0  0
 26 28  1  0  0  0  0
M  END
>  <Name_Molregno>
408535

>  <HISTAMINE H3>
7.89

>  <Serotonin transporter>
7.18

$$$$
408536
  Marvin  02231216192D 0   1.00000     0.00000     0

 26 28  0  0  1  0  0  0  0  0999 V2000
    0.4054   -0.7896    0.0000 O   0  0  0  0  0  0  0  0  0
    0.8179   -1.5040    0.0000 C   0  0  0  0  0  0  0  0  0
    1.6429   -1.5040    0.0000 C   0  0  0  0  0  0  0  0  0
    2.0554   -2.2185    0.0000 C   0  0  0  0  0  0  0  0  0
    2.8804   -2.2185    0.0000 N   0  0  0  0  0  0  0  0  0
    3.2929   -2.9330    0.0000 C   0  0  0  0  0  0  0  0  0
    4.1179   -2.9330    0.0000 C   0  0  0  0  0  0  0  0  0
    3.2929   -1.5040    0.0000 C   0  0  0  0  0  0  0  0  0
    4.1179   -1.5040    0.0000 C   0  0  0  0  0  0  0  0  0
   -0.4196   -0.7896    0.0000 C   0  0  0  0  0  0  0  0  0
   -0.8321   -0.0751    0.0000 N   0  0  0  0  0  0  0  0  0
   -1.6571   -0.0751    0.0000 C   0  0  0  0  0  0  0  0  0
   -2.0696   -0.7896    0.0000 C   0  0  0  0  0  0  0  0  0
   -1.6571   -1.5040    0.0000 C   0  0  0  0  0  0  0  0  0
   -0.8321   -1.5040    0.0000 C   0  0  0  0  0  0  0  0  0
   -2.0696   -2.2185    0.0000 C   0  0  0  0  0  0  0  0  0
   -2.8946   -2.2185    0.0000 N   0  0  0  0  0  0  0  0  0
   -3.3071   -1.5040    0.0000 C   0  0  0  0  0  0  0  0  0
   -2.8946   -0.7896    0.0000 C   0  0  0  0  0  0  0  0  0
   -3.3071   -0.0751    0.0000 C   0  0  0  0  0  0  0  0  0
   -4.1321   -0.0751    0.0000 C   0  0  0  0  0  0  0  0  0
   -4.5446    0.6394    0.0000 C   0  0  0  0  0  0  0  0  0
   -4.1321    1.3538    0.0000 C   0  0  0  0  0  0  0  0  0
   -3.3071    1.3538    0.0000 C   0  0  0  0  0  0  0  0  0
   -2.8946    0.6394    0.0000 C   0  0  0  0  0  0  0  0  0
   -3.3071   -2.9330    0.0000 C   0  0  0  0  0  0  0  0  0
  1  2  1  0  0  0  0
  1 10  1  0  0  0  0
  2  3  1  0  0  0  0
  3  4  1  0  0  0  0
  4  5  1  0  0  0  0
  5  6  1  0  0  0  0
  5  8  1  0  0  0  0
  6  7  1  0  0  0  0
  8  9  1  0  0  0  0
 10 11  4  0  0  0  0
 10 15  4  0  0  0  0
 11 12  4  0  0  0  0
 12 13  4  0  0  0  0
 13 14  4  0  0  0  0
 13 19  1  0  0  0  0
 14 15  4  0  0  0  0
 14 16  1  0  0  0  0
 16 17  1  0  0  0  0
 17 18  1  0  0  0  0
 17 26  1  0  0  0  0
 18 19  1  0  0  0  0
 19 20  1  0  0  0  0
 20 21  4  0  0  0  0
 20 25  4  0  0  0  0
 21 22  4  0  0  0  0
 22 23  4  0  0  0  0
 23 24  4  0  0  0  0
 24 25  4  0  0  0  0
M  END
>  <Name_Molregno>
408536

>  <HISTAMINE H3>
8.4

>  <Serotonin transporter>
5.7

$$$$
408537
  Marvin  02231216192D 0   1.00000     0.00000     0

 28 31  0  0  1  0  0  0  0  0999 V2000
   -9.1923    2.5354    0.0000 O   0  0  0  0  0  0  0  0  0
   -8.4778    2.9479    0.0000 C   0  0  0  0  0  0  0  0  0
   -7.7633    2.5354    0.0000 C   0  0  0  0  0  0  0  0  0
   -7.7633    1.7104    0.0000 N   0  0  0  0  0  0  0  0  0
   -8.4778    1.2979    0.0000 C   0  0  0  0  0  0  0  0  0
   -9.1923    1.7104    0.0000 C   0  0  0  0  0  0  0  0  0
   -7.0489    1.2979    0.0000 C   0  0  0  0  0  0  0  0  0
   -7.0489    0.4729    0.0000 C   0  0  0  0  0  0  0  0  0
   -6.3344    0.0604    0.0000 C   0  0  0  0  0  0  0  0  0
   -6.3344   -0.7646    0.0000 O   0  0  0  0  0  0  0  0  0
   -5.6199   -1.1771    0.0000 C   0  0  0  0  0  0  0  0  0
   -5.6199   -2.0021    0.0000 N   0  0  0  0  0  0  0  0  0
   -4.9055   -2.4146    0.0000 C   0  0  0  0  0  0  0  0  0
   -4.1910   -2.0021    0.0000 C   0  0  0  0  0  0  0  0  0
   -4.1910   -1.1771    0.0000 C   0  0  0  0  0  0  0  0  0
   -4.9055   -0.7646    0.0000 C   0  0  0  0  0  0  0  0  0
   -3.4765   -0.7646    0.0000 C   0  0  0  0  0  0  0  0  0
   -2.7620   -1.1771    0.0000 N   0  0  0  0  0  0  0  0  0
   -2.7620   -2.0021    0.0000 C   0  0  0  0  0  0  0  0  0
   -3.4765   -2.4146    0.0000 C   0  0  0  0  0  0  0  0  0
   -3.4765   -3.2396    0.0000 C   0  0  0  0  0  0  0  0  0
   -2.7620   -3.6521    0.0000 C   0  0  0  0  0  0  0  0  0
   -2.7620   -4.4771    0.0000 C   0  0  0  0  0  0  0  0  0
   -3.4765   -4.8896    0.0000 C   0  0  0  0  0  0  0  0  0
   -3.4765   -5.7146    0.0000 O   0  0  0  0  0  0  0  0  0
   -2.7620   -6.1271    0.0000 C   0  0  0  0  0  0  0  0  0
   -4.1910   -4.4771    0.0000 C   0  0  0  0  0  0  0  0  0
   -4.1910   -3.6521    0.0000 C   0  0  0  0  0  0  0  0  0
  1  2  1  0  0  0  0
  1  6  1  0  0  0  0
  2  3  1  0  0  0  0
  3  4  1  0  0  0  0
  4  5  1  0  0  0  0
  4  7  1  0  0  0  0
  5  6  1  0  0  0  0
  7  8  1  0  0  0  0
  8  9  1  0  0  0  0
  9 10  1  0  0  0  0
 10 11  1  0  0  0  0
 11 12  4  0  0  0  0
 11 16  4  0  0  0  0
 12 13  4  0  0  0  0
 13 14  4  0  0  0  0
 14 15  4  0  0  0  0
 14 20  1  0  0  0  0
 15 16  4  0  0  0  0
 15 17  1  0  0  0  0
 17 18  1  0  0  0  0
 18 19  1  0  0  0  0
 19 20  1  0  0  0  0
 20 21  1  0  0  0  0
 21 22  4  0  0  0  0
 21 28  4  0  0  0  0
 22 23  4  0  0  0  0
 23 24  4  0  0  0  0
 24 25  1  0  0  0  0
 24 27  4  0  0  0  0
 25 26  1  0  0  0  0
 27 28  4  0  0  0  0
M  END
>  <Name_Molregno>
408537

>  <HISTAMINE H3>
7.37

>  <Serotonin transporter>
6.72

$$$$
408539
  Marvin  02231216192D 0   1.00000     0.00000     0

 29 32  0  0  1  0  0  0  0  0999 V2000
   -9.3861    2.5907    0.0000 O   0  0  0  0  0  0  0  0  0
   -8.6716    3.0032    0.0000 C   0  0  0  0  0  0  0  0  0
   -7.9572    2.5907    0.0000 C   0  0  0  0  0  0  0  0  0
   -7.9572    1.7657    0.0000 N   0  0  0  0  0  0  0  0  0
   -8.6716    1.3532    0.0000 C   0  0  0  0  0  0  0  0  0
   -9.3861    1.7657    0.0000 C   0  0  0  0  0  0  0  0  0
   -7.2427    1.3532    0.0000 C   0  0  0  0  0  0  0  0  0
   -7.2427    0.5282    0.0000 C   0  0  0  0  0  0  0  0  0
   -6.5282    0.1157    0.0000 C   0  0  0  0  0  0  0  0  0
   -6.5282   -0.7093    0.0000 O   0  0  0  0  0  0  0  0  0
   -5.8137   -1.1218    0.0000 C   0  0  0  0  0  0  0  0  0
   -5.8137   -1.9468    0.0000 N   0  0  0  0  0  0  0  0  0
   -5.0993   -2.3593    0.0000 C   0  0  0  0  0  0  0  0  0
   -4.3848   -1.9468    0.0000 C   0  0  0  0  0  0  0  0  0
   -4.3848   -1.1218    0.0000 C   0  0  0  0  0  0  0  0  0
   -5.0993   -0.7093    0.0000 C   0  0  0  0  0  0  0  0  0
   -3.6703   -0.7093    0.0000 C   0  0  0  0  0  0  0  0  0
   -2.9559   -1.1218    0.0000 N   0  0  0  0  0  0  0  0  0
   -2.9559   -1.9468    0.0000 C   0  0  0  0  0  0  0  0  0
   -3.6703   -2.3593    0.0000 C   0  0  0  0  0  0  0  0  0
   -3.6703   -3.1843    0.0000 C   0  0  0  0  0  0  0  0  0
   -2.9559   -3.5968    0.0000 C   0  0  0  0  0  0  0  0  0
   -2.9559   -4.4218    0.0000 C   0  0  0  0  0  0  0  0  0
   -3.6703   -4.8343    0.0000 C   0  0  0  0  0  0  0  0  0
   -3.6703   -5.6593    0.0000 O   0  0  0  0  0  0  0  0  0
   -2.9559   -6.0718    0.0000 C   0  0  0  0  0  0  0  0  0
   -4.3848   -4.4218    0.0000 C   0  0  0  0  0  0  0  0  0
   -4.3848   -3.5968    0.0000 C   0  0  0  0  0  0  0  0  0
   -2.2414   -0.7093    0.0000 C   0  0  0  0  0  0  0  0  0
  1  2  1  0  0  0  0
  1  6  1  0  0  0  0
  2  3  1  0  0  0  0
  3  4  1  0  0  0  0
  4  5  1  0  0  0  0
  4  7  1  0  0  0  0
  5  6  1  0  0  0  0
  7  8  1  0  0  0  0
  8  9  1  0  0  0  0
  9 10  1  0  0  0  0
 10 11  1  0  0  0  0
 11 12  4  0  0  0  0
 11 16  4  0  0  0  0
 12 13  4  0  0  0  0
 13 14  4  0  0  0  0
 14 15  4  0  0  0  0
 14 20  1  0  0  0  0
 15 16  4  0  0  0  0
 15 17  1  0  0  0  0
 17 18  1  0  0  0  0
 18 19  1  0  0  0  0
 18 29  1  0  0  0  0
 19 20  1  0  0  0  0
 20 21  1  0  0  0  0
 21 22  4  0  0  0  0
 21 28  4  0  0  0  0
 22 23  4  0  0  0  0
 23 24  4  0  0  0  0
 24 25  1  0  0  0  0
 24 27  4  0  0  0  0
 25 26  1  0  0  0  0
 27 28  4  0  0  0  0
M  END
>  <Name_Molregno>
408539

>  <HISTAMINE H3>
7.05

>  <Serotonin transporter>
7.15

$$$$
408540
  Marvin  02231216192D 0   1.00000     0.00000     0

 26 29  0  0  1  0  0  0  0  0999 V2000
   -8.7138    2.3694    0.0000 O   0  0  0  0  0  0  0  0  0
   -7.9993    2.7819    0.0000 C   0  0  0  0  0  0  0  0  0
   -7.2849    2.3694    0.0000 C   0  0  0  0  0  0  0  0  0
   -7.2849    1.5444    0.0000 N   0  0  0  0  0  0  0  0  0
   -7.9993    1.1319    0.0000 C   0  0  0  0  0  0  0  0  0
   -8.7138    1.5444    0.0000 C   0  0  0  0  0  0  0  0  0
   -6.5704    1.1319    0.0000 C   0  0  0  0  0  0  0  0  0
   -6.5704    0.3069    0.0000 C   0  0  0  0  0  0  0  0  0
   -5.8559   -0.1056    0.0000 C   0  0  0  0  0  0  0  0  0
   -5.8559   -0.9306    0.0000 O   0  0  0  0  0  0  0  0  0
   -5.1415   -1.3431    0.0000 C   0  0  0  0  0  0  0  0  0
   -5.1415   -2.1681    0.0000 N   0  0  0  0  0  0  0  0  0
   -4.4270   -2.5806    0.0000 C   0  0  0  0  0  0  0  0  0
   -3.7125   -2.1681    0.0000 C   0  0  0  0  0  0  0  0  0
   -3.7125   -1.3431    0.0000 C   0  0  0  0  0  0  0  0  0
   -4.4270   -0.9306    0.0000 C   0  0  0  0  0  0  0  0  0
   -2.9981   -0.9306    0.0000 C   0  0  0  0  0  0  0  0  0
   -2.2836   -1.3431    0.0000 N   0  0  0  0  0  0  0  0  0
   -2.2836   -2.1681    0.0000 C   0  0  0  0  0  0  0  0  0
   -2.9981   -2.5806    0.0000 C   0  0  0  0  0  0  0  0  0
   -2.9981   -3.4056    0.0000 C   0  0  0  0  0  0  0  0  0
   -2.2836   -3.8181    0.0000 C   0  0  0  0  0  0  0  0  0
   -2.2836   -4.6431    0.0000 C   0  0  0  0  0  0  0  0  0
   -2.9981   -5.0556    0.0000 C   0  0  0  0  0  0  0  0  0
   -3.7125   -4.6431    0.0000 C   0  0  0  0  0  0  0  0  0
   -3.7125   -3.8181    0.0000 C   0  0  0  0  0  0  0  0  0
  1  2  1  0  0  0  0
  1  6  1  0  0  0  0
  2  3  1  0  0  0  0
  3  4  1  0  0  0  0
  4  5  1  0  0  0  0
  4  7  1  0  0  0  0
  5  6  1  0  0  0  0
  7  8  1  0  0  0  0
  8  9  1  0  0  0  0
  9 10  1  0  0  0  0
 10 11  1  0  0  0  0
 11 12  4  0  0  0  0
 11 16  4  0  0  0  0
 12 13  4  0  0  0  0
 13 14  4  0  0  0  0
 14 15  4  0  0  0  0
 14 20  1  0  0  0  0
 15 16  4  0  0  0  0
 15 17  1  0  0  0  0
 17 18  1  0  0  0  0
 18 19  1  0  0  0  0
 19 20  1  0  0  0  0
 20 21  1  0  0  0  0
 21 22  4  0  0  0  0
 21 26  4  0  0  0  0
 22 23  4  0  0  0  0
 23 24  4  0  0  0  0
 24 25  4  0  0  0  0
 25 26  4  0  0  0  0
M  END
>  <Name_Molregno>
408540

>  <HISTAMINE H3>
7.89

>  <Serotonin transporter>
5.32

$$$$
408541
  Marvin  02231216192D 0   1.00000     0.00000     0

 29 32  0  0  1  0  0  0  0  0999 V2000
    1.2388   -2.3988    0.0000 Cl  0  0  0  0  0  0  0  0  0
    1.9533   -1.9863    0.0000 C   0  0  0  0  0  0  0  0  0
    1.9533   -1.1613    0.0000 C   0  0  0  0  0  0  0  0  0
    2.6678   -0.7488    0.0000 C   0  0  0  0  0  0  0  0  0
    3.3822   -1.1613    0.0000 C   0  0  0  0  0  0  0  0  0
    3.3822   -1.9863    0.0000 C   0  0  0  0  0  0  0  0  0
    2.6678   -2.3988    0.0000 C   0  0  0  0  0  0  0  0  0
    2.6678   -3.2238    0.0000 Cl  0  0  0  0  0  0  0  0  0
    2.6678    0.0762    0.0000 C   0  0  0  0  0  0  0  0  0
    3.3822    0.4887    0.0000 C   0  0  0  0  0  0  0  0  0
    3.3822    1.3137    0.0000 C   0  0  0  0  0  0  0  0  0
    4.0967    1.7262    0.0000 C   0  0  0  0  0  0  0  0  0
    4.8112    1.3137    0.0000 C   0  0  0  0  0  0  0  0  0
    5.5256    1.7262    0.0000 O   0  0  0  0  0  0  0  0  0
    5.5256    2.5512    0.0000 C   0  0  0  0  0  0  0  0  0
    6.2401    2.9637    0.0000 C   0  0  0  0  0  0  0  0  0
    6.2401    3.7887    0.0000 C   0  0  0  0  0  0  0  0  0
    6.9546    4.2012    0.0000 C   0  0  0  0  0  0  0  0  0
    7.6691    3.7887    0.0000 N   0  0  0  0  0  0  0  0  0
    7.6691    2.9637    0.0000 C   0  0  0  0  0  0  0  0  0
    6.9546    2.5512    0.0000 C   0  0  0  0  0  0  0  0  0
    8.3835    4.2012    0.0000 C   0  0  0  0  0  0  0  0  0
    8.3835    5.0262    0.0000 C   0  0  0  0  0  0  0  0  0
    9.0980    3.7887    0.0000 C   0  0  0  0  0  0  0  0  0
    4.8112    0.4887    0.0000 N   0  0  0  0  0  0  0  0  0
    4.0967    0.0762    0.0000 C   0  0  0  0  0  0  0  0  0
    2.6678    1.7262    0.0000 C   0  0  0  0  0  0  0  0  0
    1.9533    1.3137    0.0000 N   0  0  0  0  0  0  0  0  0
    1.9533    0.4887    0.0000 C   0  0  0  0  0  0  0  0  0
  1  2  1  0  0  0  0
  2  3  4  0  0  0  0
  2  7  4  0  0  0  0
  3  4  4  0  0  0  0
  4  5  4  0  0  0  0
  4  9  1  0  0  0  0
  5  6  4  0  0  0  0
  6  7  4  0  0  0  0
  7  8  1  0  0  0  0
  9 10  1  0  0  0  0
  9 29  1  0  0  0  0
 10 11  4  0  0  0  0
 10 26  4  0  0  0  0
 11 12  4  0  0  0  0
 11 27  1  0  0  0  0
 12 13  4  0  0  0  0
 13 14  1  0  0  0  0
 13 25  4  0  0  0  0
 14 15  1  0  0  0  0
 15 16  1  0  0  0  0
 16 17  1  0  0  0  0
 16 21  1  0  0  0  0
 17 18  1  0  0  0  0
 18 19  1  0  0  0  0
 19 20  1  0  0  0  0
 19 22  1  0  0  0  0
 20 21  1  0  0  0  0
 22 23  1  0  0  0  0
 22 24  1  0  0  0  0
 25 26  4  0  0  0  0
 27 28  1  0  0  0  0
 28 29  1  0  0  0  0
M  END
>  <Name_Molregno>
408541

>  <HISTAMINE H3>
7.89

>  <Serotonin transporter>
7.43

$$$$
408542
  Marvin  02231216192D 0   1.00000     0.00000     0

 30 33  0  0  1  0  0  0  0  0999 V2000
    1.2026   -4.4428    0.0000 Cl  0  0  0  0  0  0  0  0  0
    1.9171   -4.0303    0.0000 C   0  0  0  0  0  0  0  0  0
    1.9171   -3.2053    0.0000 C   0  0  0  0  0  0  0  0  0
    2.6316   -2.7928    0.0000 C   0  0  0  0  0  0  0  0  0
    3.3461   -3.2053    0.0000 C   0  0  0  0  0  0  0  0  0
    3.3461   -4.0303    0.0000 C   0  0  0  0  0  0  0  0  0
    2.6316   -4.4428    0.0000 C   0  0  0  0  0  0  0  0  0
    2.6316   -5.2678    0.0000 Cl  0  0  0  0  0  0  0  0  0
    2.6316   -1.9678    0.0000 C   0  0  0  0  0  0  0  0  0
    3.3461   -1.5553    0.0000 C   0  0  0  0  0  0  0  0  0
    3.3461   -0.7303    0.0000 C   0  0  0  0  0  0  0  0  0
    4.0605   -0.3178    0.0000 C   0  0  0  0  0  0  0  0  0
    4.7750   -0.7303    0.0000 C   0  0  0  0  0  0  0  0  0
    5.4895   -0.3178    0.0000 O   0  0  0  0  0  0  0  0  0
    5.4895    0.5072    0.0000 C   0  0  0  0  0  0  0  0  0
    6.2039    0.9197    0.0000 C   0  0  0  0  0  0  0  0  0
    6.2039    1.7447    0.0000 C   0  0  0  0  0  0  0  0  0
    6.9184    2.1572    0.0000 C   0  0  0  0  0  0  0  0  0
    7.6329    1.7447    0.0000 N   0  0  0  0  0  0  0  0  0
    7.6329    0.9197    0.0000 C   0  0  0  0  0  0  0  0  0
    6.9184    0.5072    0.0000 C   0  0  0  0  0  0  0  0  0
    8.3474    2.1572    0.0000 C   0  0  0  0  0  0  0  0  0
    8.3474    2.9822    0.0000 C   0  0  0  0  0  0  0  0  0
    9.0618    1.7447    0.0000 C   0  0  0  0  0  0  0  0  0
    4.7750   -1.5553    0.0000 N   0  0  0  0  0  0  0  0  0
    4.0605   -1.9678    0.0000 C   0  0  0  0  0  0  0  0  0
    2.6316   -0.3178    0.0000 C   0  0  0  0  0  0  0  0  0
    1.9171   -0.7303    0.0000 N   0  0  0  0  0  0  0  0  0
    1.9171   -1.5553    0.0000 C   0  0  0  0  0  0  0  0  0
    1.2026   -0.3178    0.0000 C   0  0  0  0  0  0  0  0  0
  1  2  1  0  0  0  0
  2  3  4  0  0  0  0
  2  7  4  0  0  0  0
  3  4  4  0  0  0  0
  4  5  4  0  0  0  0
  4  9  1  0  0  0  0
  5  6  4  0  0  0  0
  6  7  4  0  0  0  0
  7  8  1  0  0  0  0
  9 10  1  0  0  0  0
  9 29  1  0  0  0  0
 10 11  4  0  0  0  0
 10 26  4  0  0  0  0
 11 12  4  0  0  0  0
 11 27  1  0  0  0  0
 12 13  4  0  0  0  0
 13 14  1  0  0  0  0
 13 25  4  0  0  0  0
 14 15  1  0  0  0  0
 15 16  1  0  0  0  0
 16 17  1  0  0  0  0
 16 21  1  0  0  0  0
 17 18  1  0  0  0  0
 18 19  1  0  0  0  0
 19 20  1  0  0  0  0
 19 22  1  0  0  0  0
 20 21  1  0  0  0  0
 22 23  1  0  0  0  0
 22 24  1  0  0  0  0
 25 26  4  0  0  0  0
 27 28  1  0  0  0  0
 28 29  1  0  0  0  0
 28 30  1  0  0  0  0
M  END
>  <Name_Molregno>
408542

>  <HISTAMINE H3>
7.89

>  <Serotonin transporter>
7.51

$$$$
408543
  Marvin  02231216192D 0   1.00000     0.00000     0

 29 32  0  0  1  0  0  0  0  0999 V2000
   -6.5090   -3.8370    0.0000 O   0  0  0  0  0  0  0  0  0
   -5.7945   -4.2495    0.0000 C   0  0  0  0  0  0  0  0  0
   -6.5090   -3.0120    0.0000 C   0  0  0  0  0  0  0  0  0
   -7.2235   -2.5995    0.0000 C   0  0  0  0  0  0  0  0  0
   -7.2235   -1.7745    0.0000 C   0  0  0  0  0  0  0  0  0
   -6.5090   -1.3620    0.0000 C   0  0  0  0  0  0  0  0  0
   -5.7945   -1.7745    0.0000 C   0  0  0  0  0  0  0  0  0
   -5.7945   -2.5995    0.0000 C   0  0  0  0  0  0  0  0  0
   -6.5090   -0.5370    0.0000 C   0  0  0  0  0  0  0  0  0
   -5.7945   -0.1245    0.0000 C   0  0  0  0  0  0  0  0  0
   -5.7945    0.7005    0.0000 C   0  0  0  0  0  0  0  0  0
   -5.0801    1.1130    0.0000 C   0  0  0  0  0  0  0  0  0
   -4.3656    0.7005    0.0000 C   0  0  0  0  0  0  0  0  0
   -3.6511    1.1130    0.0000 O   0  0  0  0  0  0  0  0  0
   -3.6511    1.9380    0.0000 C   0  0  0  0  0  0  0  0  0
   -2.9367    2.3505    0.0000 C   0  0  0  0  0  0  0  0  0
   -2.9367    3.1755    0.0000 C   0  0  0  0  0  0  0  0  0
   -2.2222    3.5880    0.0000 C   0  0  0  0  0  0  0  0  0
   -1.5077    3.1755    0.0000 N   0  0  0  0  0  0  0  0  0
   -1.5077    2.3505    0.0000 C   0  0  0  0  0  0  0  0  0
   -2.2222    1.9380    0.0000 C   0  0  0  0  0  0  0  0  0
   -0.7932    3.5880    0.0000 C   0  0  0  0  0  0  0  0  0
   -0.7932    4.4130    0.0000 C   0  0  0  0  0  0  0  0  0
   -0.0788    3.1755    0.0000 C   0  0  0  0  0  0  0  0  0
   -4.3656   -0.1245    0.0000 N   0  0  0  0  0  0  0  0  0
   -5.0801   -0.5370    0.0000 C   0  0  0  0  0  0  0  0  0
   -6.5090    1.1130    0.0000 C   0  0  0  0  0  0  0  0  0
   -7.2235    0.7005    0.0000 N   0  0  0  0  0  0  0  0  0
   -7.2235   -0.1245    0.0000 C   0  0  0  0  0  0  0  0  0
  1  2  1  0  0  0  0
  1  3  1  0  0  0  0
  3  4  4  0  0  0  0
  3  8  4  0  0  0  0
  4  5  4  0  0  0  0
  5  6  4  0  0  0  0
  6  7  4  0  0  0  0
  6  9  1  0  0  0  0
  7  8  4  0  0  0  0
  9 10  1  0  0  0  0
  9 29  1  0  0  0  0
 10 11  4  0  0  0  0
 10 26  4  0  0  0  0
 11 12  4  0  0  0  0
 11 27  1  0  0  0  0
 12 13  4  0  0  0  0
 13 14  1  0  0  0  0
 13 25  4  0  0  0  0
 14 15  1  0  0  0  0
 15 16  1  0  0  0  0
 16 17  1  0  0  0  0
 16 21  1  0  0  0  0
 17 18  1  0  0  0  0
 18 19  1  0  0  0  0
 19 20  1  0  0  0  0
 19 22  1  0  0  0  0
 20 21  1  0  0  0  0
 22 23  1  0  0  0  0
 22 24  1  0  0  0  0
 25 26  4  0  0  0  0
 27 28  1  0  0  0  0
 28 29  1  0  0  0  0
M  END
>  <Name_Molregno>
408543

>  <HISTAMINE H3>
8.4

>  <Serotonin transporter>
7.03

$$$$
408544
  Marvin  02231216192D 0   1.00000     0.00000     0

 30 33  0  0  1  0  0  0  0  0999 V2000
   -6.3595   -3.7410    0.0000 O   0  0  0  0  0  0  0  0  0
   -5.6450   -4.1535    0.0000 C   0  0  0  0  0  0  0  0  0
   -6.3595   -2.9160    0.0000 C   0  0  0  0  0  0  0  0  0
   -7.0740   -2.5035    0.0000 C   0  0  0  0  0  0  0  0  0
   -7.0740   -1.6785    0.0000 C   0  0  0  0  0  0  0  0  0
   -6.3595   -1.2660    0.0000 C   0  0  0  0  0  0  0  0  0
   -5.6450   -1.6785    0.0000 C   0  0  0  0  0  0  0  0  0
   -5.6450   -2.5035    0.0000 C   0  0  0  0  0  0  0  0  0
   -6.3595   -0.4410    0.0000 C   0  0  0  0  0  0  0  0  0
   -5.6450   -0.0285    0.0000 C   0  0  0  0  0  0  0  0  0
   -5.6450    0.7965    0.0000 C   0  0  0  0  0  0  0  0  0
   -4.9306    1.2090    0.0000 C   0  0  0  0  0  0  0  0  0
   -4.2161    0.7965    0.0000 C   0  0  0  0  0  0  0  0  0
   -3.5016    1.2090    0.0000 O   0  0  0  0  0  0  0  0  0
   -3.5016    2.0340    0.0000 C   0  0  0  0  0  0  0  0  0
   -2.7872    2.4465    0.0000 C   0  0  0  0  0  0  0  0  0
   -2.7872    3.2715    0.0000 C   0  0  0  0  0  0  0  0  0
   -2.0727    3.6840    0.0000 C   0  0  0  0  0  0  0  0  0
   -1.3582    3.2715    0.0000 N   0  0  0  0  0  0  0  0  0
   -1.3582    2.4465    0.0000 C   0  0  0  0  0  0  0  0  0
   -2.0727    2.0340    0.0000 C   0  0  0  0  0  0  0  0  0
   -0.6437    3.6840    0.0000 C   0  0  0  0  0  0  0  0  0
   -0.6437    4.5090    0.0000 C   0  0  0  0  0  0  0  0  0
    0.0707    3.2715    0.0000 C   0  0  0  0  0  0  0  0  0
   -4.2161   -0.0285    0.0000 N   0  0  0  0  0  0  0  0  0
   -4.9306   -0.4410    0.0000 C   0  0  0  0  0  0  0  0  0
   -6.3595    1.2090    0.0000 C   0  0  0  0  0  0  0  0  0
   -7.0740    0.7965    0.0000 N   0  0  0  0  0  0  0  0  0
   -7.0740   -0.0285    0.0000 C   0  0  0  0  0  0  0  0  0
   -7.7885    1.2090    0.0000 C   0  0  0  0  0  0  0  0  0
  1  2  1  0  0  0  0
  1  3  1  0  0  0  0
  3  4  4  0  0  0  0
  3  8  4  0  0  0  0
  4  5  4  0  0  0  0
  5  6  4  0  0  0  0
  6  7  4  0  0  0  0
  6  9  1  0  0  0  0
  7  8  4  0  0  0  0
  9 10  1  0  0  0  0
  9 29  1  0  0  0  0
 10 11  4  0  0  0  0
 10 26  4  0  0  0  0
 11 12  4  0  0  0  0
 11 27  1  0  0  0  0
 12 13  4  0  0  0  0
 13 14  1  0  0  0  0
 13 25  4  0  0  0  0
 14 15  1  0  0  0  0
 15 16  1  0  0  0  0
 16 17  1  0  0  0  0
 16 21  1  0  0  0  0
 17 18  1  0  0  0  0
 18 19  1  0  0  0  0
 19 20  1  0  0  0  0
 19 22  1  0  0  0  0
 20 21  1  0  0  0  0
 22 23  1  0  0  0  0
 22 24  1  0  0  0  0
 25 26  4  0  0  0  0
 27 28  1  0  0  0  0
 28 29  1  0  0  0  0
 28 30  1  0  0  0  0
M  END
>  <Name_Molregno>
408544

>  <HISTAMINE H3>
7.89

>  <Serotonin transporter>
7.21

$$$$
408843
  Marvin  02231216192D 0   1.00000     0.00000     0

 29 33  0  0  1  0  0  0  0  0999 V2000
   -0.4759    0.3104    0.0000 O   0  0  0  0  0  0  0  0  0
    0.3487    0.2846    0.0000 C   0  0  0  0  0  0  0  0  0
    0.7833    0.9859    0.0000 C   0  0  0  0  0  0  0  0  0
    1.6079    0.9601    0.0000 C   0  0  0  0  0  0  0  0  0
    2.0425    1.6614    0.0000 N   0  0  0  0  0  0  0  0  0
    1.6525    2.3884    0.0000 C   0  0  0  0  0  0  0  0  0
    2.0871    3.0896    0.0000 C   0  0  0  0  0  0  0  0  0
    2.9117    3.0639    0.0000 C   0  0  0  0  0  0  0  0  0
    3.3017    2.3368    0.0000 C   0  0  0  0  0  0  0  0  0
    2.8671    1.6356    0.0000 C   0  0  0  0  0  0  0  0  0
   -0.9105   -0.3908    0.0000 C   0  0  0  0  0  0  0  0  0
   -1.7351   -0.3651    0.0000 C   0  0  0  0  0  0  0  0  0
   -2.1697   -1.0663    0.0000 C   0  0  0  0  0  0  0  0  0
   -1.7798   -1.7933    0.0000 C   0  0  0  0  0  0  0  0  0
   -0.9552   -1.8191    0.0000 C   0  0  0  0  0  0  0  0  0
   -0.5205   -1.1178    0.0000 C   0  0  0  0  0  0  0  0  0
   -2.2144   -2.4946    0.0000 C   0  0  0  0  0  0  0  0  0
   -3.0390   -2.4688    0.0000 C   0  0  0  0  0  0  0  0  0
   -3.4290   -1.7418    0.0000 N   0  0  0  0  0  0  0  0  0
   -2.9943   -1.0405    0.0000 C   0  0  0  0  0  0  0  0  0
   -3.5270   -0.4105    0.0000 C   0  0  0  0  0  0  0  0  0
   -4.2907   -0.7224    0.0000 C   0  0  0  0  0  0  0  0  0
   -4.2302   -1.5451    0.0000 C   0  0  0  0  0  0  0  0  0
   -1.8244   -3.2216    0.0000 C   0  0  0  0  0  0  0  0  0
   -0.9998   -3.2473    0.0000 C   0  0  0  0  0  0  0  0  0
   -0.6098   -3.9743    0.0000 C   0  0  0  0  0  0  0  0  0
   -1.0444   -4.6756    0.0000 C   0  0  0  0  0  0  0  0  0
   -1.8690   -4.6498    0.0000 C   0  0  0  0  0  0  0  0  0
   -2.2590   -3.9228    0.0000 C   0  0  0  0  0  0  0  0  0
  1  2  1  0  0  0  0
  1 11  1  0  0  0  0
  2  3  1  0  0  0  0
  3  4  1  0  0  0  0
  4  5  1  0  0  0  0
  5  6  1  0  0  0  0
  5 10  1  0  0  0  0
  6  7  1  0  0  0  0
  7  8  1  0  0  0  0
  8  9  1  0  0  0  0
  9 10  1  0  0  0  0
 11 12  4  0  0  0  0
 11 16  4  0  0  0  0
 12 13  4  0  0  0  0
 13 14  4  0  0  0  0
 13 20  1  0  0  0  0
 14 15  4  0  0  0  0
 14 17  1  0  0  0  0
 15 16  4  0  0  0  0
 17 18  1  0  0  0  0
 17 24  1  0  0  0  0
 18 19  1  0  0  0  0
 19 20  1  0  0  0  0
 19 23  1  0  0  0  0
 20 21  1  0  0  0  0
 21 22  1  0  0  0  0
 22 23  1  0  0  0  0
 24 25  4  0  0  0  0
 24 29  4  0  0  0  0
 25 26  4  0  0  0  0
 26 27  4  0  0  0  0
 27 28  4  0  0  0  0
 28 29  4  0  0  0  0
M  END
>  <Name_Molregno>
408843

>  <HISTAMINE H3>
8.72

$$$$
408845
  Marvin  02231216192D 0   1.00000     0.00000     0

 30 34  0  0  1  0  0  0  0  0999 V2000
   -0.5480    0.3309    0.0000 O   0  0  0  0  0  0  0  0  0
    0.2766    0.3051    0.0000 C   0  0  0  0  0  0  0  0  0
    0.7112    1.0064    0.0000 C   0  0  0  0  0  0  0  0  0
    1.5358    0.9806    0.0000 C   0  0  0  0  0  0  0  0  0
    1.9704    1.6818    0.0000 N   0  0  0  0  0  0  0  0  0
    1.5804    2.4089    0.0000 C   0  0  0  0  0  0  0  0  0
    2.0151    3.1101    0.0000 C   0  0  0  0  0  0  0  0  0
    2.8397    3.0843    0.0000 C   0  0  0  0  0  0  0  0  0
    3.2296    2.3573    0.0000 C   0  0  0  0  0  0  0  0  0
    2.7950    1.6561    0.0000 C   0  0  0  0  0  0  0  0  0
   -0.9826   -0.3703    0.0000 C   0  0  0  0  0  0  0  0  0
   -1.8072   -0.3446    0.0000 C   0  0  0  0  0  0  0  0  0
   -2.2418   -1.0458    0.0000 C   0  0  0  0  0  0  0  0  0
   -1.8518   -1.7728    0.0000 C   0  0  0  0  0  0  0  0  0
   -1.0272   -1.7986    0.0000 C   0  0  0  0  0  0  0  0  0
   -0.5926   -1.0974    0.0000 C   0  0  0  0  0  0  0  0  0
   -2.2864   -2.4741    0.0000 C   0  0  0  0  0  0  0  0  0
   -3.1110   -2.4483    0.0000 C   0  0  0  0  0  0  0  0  0
   -3.5010   -1.7213    0.0000 N   0  0  0  0  0  0  0  0  0
   -3.0664   -1.0201    0.0000 C   0  0  0  0  0  0  0  0  0
   -3.5990   -0.3900    0.0000 C   0  0  0  0  0  0  0  0  0
   -4.3628   -0.7019    0.0000 C   0  0  0  0  0  0  0  0  0
   -4.3022   -1.5247    0.0000 C   0  0  0  0  0  0  0  0  0
   -1.8964   -3.2011    0.0000 C   0  0  0  0  0  0  0  0  0
   -1.0718   -3.2268    0.0000 C   0  0  0  0  0  0  0  0  0
   -0.6819   -3.9538    0.0000 C   0  0  0  0  0  0  0  0  0
   -1.1165   -4.6551    0.0000 C   0  0  0  0  0  0  0  0  0
   -1.9411   -4.6293    0.0000 C   0  0  0  0  0  0  0  0  0
   -2.3310   -3.9023    0.0000 C   0  0  0  0  0  0  0  0  0
   -0.7265   -5.3821    0.0000 C   0  0  0  0  0  0  0  0  0
  1  2  1  0  0  0  0
  1 11  1  0  0  0  0
  2  3  1  0  0  0  0
  3  4  1  0  0  0  0
  4  5  1  0  0  0  0
  5  6  1  0  0  0  0
  5 10  1  0  0  0  0
  6  7  1  0  0  0  0
  7  8  1  0  0  0  0
  8  9  1  0  0  0  0
  9 10  1  0  0  0  0
 11 12  4  0  0  0  0
 11 16  4  0  0  0  0
 12 13  4  0  0  0  0
 13 14  4  0  0  0  0
 13 20  1  0  0  0  0
 14 15  4  0  0  0  0
 14 17  1  0  0  0  0
 15 16  4  0  0  0  0
 17 18  1  0  0  0  0
 17 24  1  0  0  0  0
 18 19  1  0  0  0  0
 19 20  1  0  0  0  0
 19 23  1  0  0  0  0
 20 21  1  0  0  0  0
 21 22  1  0  0  0  0
 22 23  1  0  0  0  0
 24 25  4  0  0  0  0
 24 29  4  0  0  0  0
 25 26  4  0  0  0  0
 26 27  4  0  0  0  0
 27 28  4  0  0  0  0
 27 30  1  0  0  0  0
 28 29  4  0  0  0  0
M  END
>  <Name_Molregno>
408845

>  <HISTAMINE H3>
8.51

$$$$
408847
  Marvin  02231216192D 0   1.00000     0.00000     0

 31 35  0  0  1  0  0  0  0  0999 V2000
   -0.6256    0.3454    0.0000 O   0  0  0  0  0  0  0  0  0
    0.1990    0.3197    0.0000 C   0  0  0  0  0  0  0  0  0
    0.6336    1.0209    0.0000 C   0  0  0  0  0  0  0  0  0
    1.4582    0.9951    0.0000 C   0  0  0  0  0  0  0  0  0
    1.8928    1.6964    0.0000 N   0  0  0  0  0  0  0  0  0
    1.5028    2.4234    0.0000 C   0  0  0  0  0  0  0  0  0
    1.9374    3.1246    0.0000 C   0  0  0  0  0  0  0  0  0
    2.7620    3.0989    0.0000 C   0  0  0  0  0  0  0  0  0
    3.1520    2.3719    0.0000 C   0  0  0  0  0  0  0  0  0
    2.7174    1.6706    0.0000 C   0  0  0  0  0  0  0  0  0
   -1.0602   -0.3558    0.0000 C   0  0  0  0  0  0  0  0  0
   -1.8848   -0.3301    0.0000 C   0  0  0  0  0  0  0  0  0
   -2.3194   -1.0313    0.0000 C   0  0  0  0  0  0  0  0  0
   -1.9294   -1.7583    0.0000 C   0  0  0  0  0  0  0  0  0
   -1.1048   -1.7841    0.0000 C   0  0  0  0  0  0  0  0  0
   -0.6702   -1.0828    0.0000 C   0  0  0  0  0  0  0  0  0
   -2.3641   -2.4595    0.0000 C   0  0  0  0  0  0  0  0  0
   -3.1886   -2.4338    0.0000 C   0  0  0  0  0  0  0  0  0
   -3.5786   -1.7068    0.0000 N   0  0  0  0  0  0  0  0  0
   -3.1440   -1.0055    0.0000 C   0  0  0  0  0  0  0  0  0
   -3.6766   -0.3755    0.0000 C   0  0  0  0  0  0  0  0  0
   -4.4404   -0.6874    0.0000 C   0  0  0  0  0  0  0  0  0
   -4.3799   -1.5101    0.0000 C   0  0  0  0  0  0  0  0  0
   -1.9741   -3.1865    0.0000 C   0  0  0  0  0  0  0  0  0
   -1.1495   -3.2123    0.0000 C   0  0  0  0  0  0  0  0  0
   -0.7595   -3.9393    0.0000 C   0  0  0  0  0  0  0  0  0
   -1.1941   -4.6406    0.0000 C   0  0  0  0  0  0  0  0  0
   -2.0187   -4.6148    0.0000 C   0  0  0  0  0  0  0  0  0
   -2.4087   -3.8878    0.0000 C   0  0  0  0  0  0  0  0  0
   -0.8041   -5.3676    0.0000 C   0  0  0  0  0  0  0  0  0
   -0.4141   -6.0946    0.0000 C   0  0  0  0  0  0  0  0  0
  1  2  1  0  0  0  0
  1 11  1  0  0  0  0
  2  3  1  0  0  0  0
  3  4  1  0  0  0  0
  4  5  1  0  0  0  0
  5  6  1  0  0  0  0
  5 10  1  0  0  0  0
  6  7  1  0  0  0  0
  7  8  1  0  0  0  0
  8  9  1  0  0  0  0
  9 10  1  0  0  0  0
 11 12  4  0  0  0  0
 11 16  4  0  0  0  0
 12 13  4  0  0  0  0
 13 14  4  0  0  0  0
 13 20  1  0  0  0  0
 14 15  4  0  0  0  0
 14 17  1  0  0  0  0
 15 16  4  0  0  0  0
 17 18  1  0  0  0  0
 17 24  1  0  0  0  0
 18 19  1  0  0  0  0
 19 20  1  0  0  0  0
 19 23  1  0  0  0  0
 20 21  1  0  0  0  0
 21 22  1  0  0  0  0
 22 23  1  0  0  0  0
 24 25  4  0  0  0  0
 24 29  4  0  0  0  0
 25 26  4  0  0  0  0
 26 27  4  0  0  0  0
 27 28  4  0  0  0  0
 27 30  1  0  0  0  0
 28 29  4  0  0  0  0
 30 31  3  0  0  0  0
M  END
>  <Name_Molregno>
408847

>  <HISTAMINE H3>
8.1

$$$$
408848
  Marvin  02231216192D 0   1.00000     0.00000     0

 31 35  0  0  1  0  0  0  0  0999 V2000
   -0.8049    0.2939    0.0000 O   0  0  0  0  0  0  0  0  0
    0.0197    0.2681    0.0000 C   0  0  0  0  0  0  0  0  0
    0.4543    0.9694    0.0000 C   0  0  0  0  0  0  0  0  0
    1.2789    0.9436    0.0000 C   0  0  0  0  0  0  0  0  0
    1.7135    1.6448    0.0000 N   0  0  0  0  0  0  0  0  0
    1.3235    2.3718    0.0000 C   0  0  0  0  0  0  0  0  0
    1.7581    3.0731    0.0000 C   0  0  0  0  0  0  0  0  0
    2.5827    3.0473    0.0000 C   0  0  0  0  0  0  0  0  0
    2.9727    2.3203    0.0000 C   0  0  0  0  0  0  0  0  0
    2.5381    1.6191    0.0000 C   0  0  0  0  0  0  0  0  0
   -1.2396   -0.4074    0.0000 C   0  0  0  0  0  0  0  0  0
   -2.0642   -0.3816    0.0000 C   0  0  0  0  0  0  0  0  0
   -2.4988   -1.0828    0.0000 C   0  0  0  0  0  0  0  0  0
   -2.1088   -1.8098    0.0000 C   0  0  0  0  0  0  0  0  0
   -1.2842   -1.8356    0.0000 C   0  0  0  0  0  0  0  0  0
   -0.8496   -1.1344    0.0000 C   0  0  0  0  0  0  0  0  0
   -2.5434   -2.5111    0.0000 C   0  0  0  0  0  0  0  0  0
   -3.3680   -2.4853    0.0000 C   0  0  0  0  0  0  0  0  0
   -3.7580   -1.7583    0.0000 N   0  0  0  0  0  0  0  0  0
   -3.3234   -1.0571    0.0000 C   0  0  0  0  0  0  0  0  0
   -3.8560   -0.4270    0.0000 C   0  0  0  0  0  0  0  0  0
   -4.6198   -0.7389    0.0000 C   0  0  0  0  0  0  0  0  0
   -4.5592   -1.5617    0.0000 C   0  0  0  0  0  0  0  0  0
   -2.1534   -3.2381    0.0000 C   0  0  0  0  0  0  0  0  0
   -1.3288   -3.2638    0.0000 C   0  0  0  0  0  0  0  0  0
   -0.9388   -3.9908    0.0000 C   0  0  0  0  0  0  0  0  0
   -1.3734   -4.6921    0.0000 C   0  0  0  0  0  0  0  0  0
   -2.1980   -4.6663    0.0000 C   0  0  0  0  0  0  0  0  0
   -2.5880   -3.9393    0.0000 C   0  0  0  0  0  0  0  0  0
   -0.1142   -4.0166    0.0000 C   0  0  0  0  0  0  0  0  0
    0.7104   -4.0424    0.0000 C   0  0  0  0  0  0  0  0  0
  1  2  1  0  0  0  0
  1 11  1  0  0  0  0
  2  3  1  0  0  0  0
  3  4  1  0  0  0  0
  4  5  1  0  0  0  0
  5  6  1  0  0  0  0
  5 10  1  0  0  0  0
  6  7  1  0  0  0  0
  7  8  1  0  0  0  0
  8  9  1  0  0  0  0
  9 10  1  0  0  0  0
 11 12  4  0  0  0  0
 11 16  4  0  0  0  0
 12 13  4  0  0  0  0
 13 14  4  0  0  0  0
 13 20  1  0  0  0  0
 14 15  4  0  0  0  0
 14 17  1  0  0  0  0
 15 16  4  0  0  0  0
 17 18  1  0  0  0  0
 17 24  1  0  0  0  0
 18 19  1  0  0  0  0
 19 20  1  0  0  0  0
 19 23  1  0  0  0  0
 20 21  1  0  0  0  0
 21 22  1  0  0  0  0
 22 23  1  0  0  0  0
 24 25  4  0  0  0  0
 24 29  4  0  0  0  0
 25 26  4  0  0  0  0
 26 27  4  0  0  0  0
 26 30  1  0  0  0  0
 27 28  4  0  0  0  0
 28 29  4  0  0  0  0
 30 31  3  0  0  0  0
M  END
>  <Name_Molregno>
408848

>  <HISTAMINE H3>
8.27

$$$$
408849
  Marvin  02231216192D 0   1.00000     0.00000     0

 30 34  0  0  1  0  0  0  0  0999 V2000
   -2.7986   -7.2138    0.0000 Cl  0  0  0  0  0  0  0  0  0
   -3.1886   -6.4868    0.0000 C   0  0  0  0  0  0  0  0  0
   -4.0132   -6.4611    0.0000 C   0  0  0  0  0  0  0  0  0
   -4.4032   -5.7341    0.0000 C   0  0  0  0  0  0  0  0  0
   -3.9686   -5.0328    0.0000 C   0  0  0  0  0  0  0  0  0
   -3.1440   -5.0586    0.0000 C   0  0  0  0  0  0  0  0  0
   -2.7540   -5.7856    0.0000 C   0  0  0  0  0  0  0  0  0
   -4.3586   -4.3058    0.0000 C   0  0  0  0  0  0  0  0  0
   -3.9240   -3.6046    0.0000 C   0  0  0  0  0  0  0  0  0
   -4.3140   -2.8776    0.0000 C   0  0  0  0  0  0  0  0  0
   -3.8794   -2.1763    0.0000 C   0  0  0  0  0  0  0  0  0
   -3.0548   -2.2021    0.0000 C   0  0  0  0  0  0  0  0  0
   -2.6202   -1.5009    0.0000 O   0  0  0  0  0  0  0  0  0
   -3.0101   -0.7738    0.0000 C   0  0  0  0  0  0  0  0  0
   -2.5755   -0.0726    0.0000 C   0  0  0  0  0  0  0  0  0
   -2.9655    0.6544    0.0000 C   0  0  0  0  0  0  0  0  0
   -2.5309    1.3556    0.0000 N   0  0  0  0  0  0  0  0  0
   -2.9209    2.0826    0.0000 C   0  0  0  0  0  0  0  0  0
   -2.4863    2.7839    0.0000 C   0  0  0  0  0  0  0  0  0
   -1.6617    2.7581    0.0000 C   0  0  0  0  0  0  0  0  0
   -1.2717    2.0311    0.0000 C   0  0  0  0  0  0  0  0  0
   -1.7063    1.3299    0.0000 C   0  0  0  0  0  0  0  0  0
   -2.6648   -2.9291    0.0000 C   0  0  0  0  0  0  0  0  0
   -3.0994   -3.6303    0.0000 C   0  0  0  0  0  0  0  0  0
   -5.1386   -2.8518    0.0000 C   0  0  0  0  0  0  0  0  0
   -5.5732   -3.5530    0.0000 N   0  0  0  0  0  0  0  0  0
   -5.1832   -4.2801    0.0000 C   0  0  0  0  0  0  0  0  0
   -6.3744   -3.3564    0.0000 C   0  0  0  0  0  0  0  0  0
   -6.4350   -2.5336    0.0000 C   0  0  0  0  0  0  0  0  0
   -5.6712   -2.2218    0.0000 C   0  0  0  0  0  0  0  0  0
  1  2  1  0  0  0  0
  2  3  4  0  0  0  0
  2  7  4  0  0  0  0
  3  4  4  0  0  0  0
  4  5  4  0  0  0  0
  5  6  4  0  0  0  0
  5  8  1  0  0  0  0
  6  7  4  0  0  0  0
  8  9  1  0  0  0  0
  8 27  1  0  0  0  0
  9 10  4  0  0  0  0
  9 24  4  0  0  0  0
 10 11  4  0  0  0  0
 10 25  1  0  0  0  0
 11 12  4  0  0  0  0
 12 13  1  0  0  0  0
 12 23  4  0  0  0  0
 13 14  1  0  0  0  0
 14 15  1  0  0  0  0
 15 16  1  0  0  0  0
 16 17  1  0  0  0  0
 17 18  1  0  0  0  0
 17 22  1  0  0  0  0
 18 19  1  0  0  0  0
 19 20  1  0  0  0  0
 20 21  1  0  0  0  0
 21 22  1  0  0  0  0
 23 24  4  0  0  0  0
 25 26  1  0  0  0  0
 25 30  1  0  0  0  0
 26 27  1  0  0  0  0
 26 28  1  0  0  0  0
 28 29  1  0  0  0  0
 29 30  1  0  0  0  0
M  END
>  <Name_Molregno>
408849

>  <HISTAMINE H3>
8.4

$$$$
408852
  Marvin  02231216192D 0   1.00000     0.00000     0

 30 34  0  0  1  0  0  0  0  0999 V2000
    3.5691   -5.7928    0.0000 Cl  0  0  0  0  0  0  0  0  0
    4.0037   -5.0915    0.0000 C   0  0  0  0  0  0  0  0  0
    3.6137   -4.3645    0.0000 C   0  0  0  0  0  0  0  0  0
    4.0483   -3.6633    0.0000 C   0  0  0  0  0  0  0  0  0
    4.8729   -3.6891    0.0000 C   0  0  0  0  0  0  0  0  0
    5.2629   -4.4161    0.0000 C   0  0  0  0  0  0  0  0  0
    4.8283   -5.1173    0.0000 C   0  0  0  0  0  0  0  0  0
    3.6583   -2.9363    0.0000 C   0  0  0  0  0  0  0  0  0
    4.0929   -2.2350    0.0000 C   0  0  0  0  0  0  0  0  0
    3.7029   -1.5080    0.0000 C   0  0  0  0  0  0  0  0  0
    4.1375   -0.8068    0.0000 C   0  0  0  0  0  0  0  0  0
    4.9621   -0.8326    0.0000 C   0  0  0  0  0  0  0  0  0
    5.3967   -0.1313    0.0000 O   0  0  0  0  0  0  0  0  0
    5.0068    0.5957    0.0000 C   0  0  0  0  0  0  0  0  0
    5.4414    1.2969    0.0000 C   0  0  0  0  0  0  0  0  0
    5.0514    2.0239    0.0000 C   0  0  0  0  0  0  0  0  0
    5.4860    2.7252    0.0000 N   0  0  0  0  0  0  0  0  0
    5.0960    3.4522    0.0000 C   0  0  0  0  0  0  0  0  0
    5.5306    4.1534    0.0000 C   0  0  0  0  0  0  0  0  0
    6.3552    4.1277    0.0000 C   0  0  0  0  0  0  0  0  0
    6.7452    3.4006    0.0000 C   0  0  0  0  0  0  0  0  0
    6.3106    2.6994    0.0000 C   0  0  0  0  0  0  0  0  0
    5.3521   -1.5596    0.0000 C   0  0  0  0  0  0  0  0  0
    4.9175   -2.2608    0.0000 C   0  0  0  0  0  0  0  0  0
    2.8783   -1.4823    0.0000 C   0  0  0  0  0  0  0  0  0
    2.4437   -2.1835    0.0000 N   0  0  0  0  0  0  0  0  0
    2.8337   -2.9105    0.0000 C   0  0  0  0  0  0  0  0  0
    1.6425   -1.9869    0.0000 C   0  0  0  0  0  0  0  0  0
    1.5819   -1.1641    0.0000 C   0  0  0  0  0  0  0  0  0
    2.3457   -0.8522    0.0000 C   0  0  0  0  0  0  0  0  0
  1  2  1  0  0  0  0
  2  3  4  0  0  0  0
  2  7  4  0  0  0  0
  3  4  4  0  0  0  0
  4  5  4  0  0  0  0
  4  8  1  0  0  0  0
  5  6  4  0  0  0  0
  6  7  4  0  0  0  0
  8  9  1  0  0  0  0
  8 27  1  0  0  0  0
  9 10  4  0  0  0  0
  9 24  4  0  0  0  0
 10 11  4  0  0  0  0
 10 25  1  0  0  0  0
 11 12  4  0  0  0  0
 12 13  1  0  0  0  0
 12 23  4  0  0  0  0
 13 14  1  0  0  0  0
 14 15  1  0  0  0  0
 15 16  1  0  0  0  0
 16 17  1  0  0  0  0
 17 18  1  0  0  0  0
 17 22  1  0  0  0  0
 18 19  1  0  0  0  0
 19 20  1  0  0  0  0
 20 21  1  0  0  0  0
 21 22  1  0  0  0  0
 23 24  4  0  0  0  0
 25 26  1  0  0  0  0
 25 30  1  0  0  0  0
 26 27  1  0  0  0  0
 26 28  1  0  0  0  0
 28 29  1  0  0  0  0
 29 30  1  0  0  0  0
M  END
>  <Name_Molregno>
408852

>  <HISTAMINE H3>
8.63

$$$$
408856
  Marvin  02231216192D 0   1.00000     0.00000     0

 30 34  0  0  1  0  0  0  0  0999 V2000
   -2.7097   -2.3937    0.0000 Cl  0  0  0  0  0  0  0  0  0
   -3.1443   -3.0949    0.0000 C   0  0  0  0  0  0  0  0  0
   -2.7543   -3.8219    0.0000 C   0  0  0  0  0  0  0  0  0
   -3.1889   -4.5232    0.0000 C   0  0  0  0  0  0  0  0  0
   -4.0135   -4.4974    0.0000 C   0  0  0  0  0  0  0  0  0
   -4.4035   -3.7704    0.0000 C   0  0  0  0  0  0  0  0  0
   -3.9689   -3.0692    0.0000 C   0  0  0  0  0  0  0  0  0
   -4.3589   -2.3422    0.0000 C   0  0  0  0  0  0  0  0  0
   -3.9242   -1.6409    0.0000 C   0  0  0  0  0  0  0  0  0
   -4.3142   -0.9139    0.0000 C   0  0  0  0  0  0  0  0  0
   -3.8796   -0.2127    0.0000 C   0  0  0  0  0  0  0  0  0
   -3.0550   -0.2385    0.0000 C   0  0  0  0  0  0  0  0  0
   -2.6204    0.4628    0.0000 O   0  0  0  0  0  0  0  0  0
   -3.0104    1.1898    0.0000 C   0  0  0  0  0  0  0  0  0
   -2.5758    1.8910    0.0000 C   0  0  0  0  0  0  0  0  0
   -2.9658    2.6180    0.0000 C   0  0  0  0  0  0  0  0  0
   -2.5312    3.3193    0.0000 N   0  0  0  0  0  0  0  0  0
   -2.9212    4.0463    0.0000 C   0  0  0  0  0  0  0  0  0
   -2.4865    4.7475    0.0000 C   0  0  0  0  0  0  0  0  0
   -1.6619    4.7218    0.0000 C   0  0  0  0  0  0  0  0  0
   -1.2720    3.9948    0.0000 C   0  0  0  0  0  0  0  0  0
   -1.7066    3.2935    0.0000 C   0  0  0  0  0  0  0  0  0
   -2.6650   -0.9655    0.0000 C   0  0  0  0  0  0  0  0  0
   -3.0996   -1.6667    0.0000 C   0  0  0  0  0  0  0  0  0
   -5.1388   -0.8882    0.0000 C   0  0  0  0  0  0  0  0  0
   -5.5734   -1.5894    0.0000 N   0  0  0  0  0  0  0  0  0
   -5.1835   -2.3164    0.0000 C   0  0  0  0  0  0  0  0  0
   -6.3747   -1.3928    0.0000 C   0  0  0  0  0  0  0  0  0
   -6.4352   -0.5700    0.0000 C   0  0  0  0  0  0  0  0  0
   -5.6714   -0.2581    0.0000 C   0  0  0  0  0  0  0  0  0
  1  2  1  0  0  0  0
  2  3  4  0  0  0  0
  2  7  4  0  0  0  0
  3  4  4  0  0  0  0
  4  5  4  0  0  0  0
  5  6  4  0  0  0  0
  6  7  4  0  0  0  0
  7  8  1  0  0  0  0
  8  9  1  0  0  0  0
  8 27  1  0  0  0  0
  9 10  4  0  0  0  0
  9 24  4  0  0  0  0
 10 11  4  0  0  0  0
 10 25  1  0  0  0  0
 11 12  4  0  0  0  0
 12 13  1  0  0  0  0
 12 23  4  0  0  0  0
 13 14  1  0  0  0  0
 14 15  1  0  0  0  0
 15 16  1  0  0  0  0
 16 17  1  0  0  0  0
 17 18  1  0  0  0  0
 17 22  1  0  0  0  0
 18 19  1  0  0  0  0
 19 20  1  0  0  0  0
 20 21  1  0  0  0  0
 21 22  1  0  0  0  0
 23 24  4  0  0  0  0
 25 26  1  0  0  0  0
 25 30  1  0  0  0  0
 26 27  1  0  0  0  0
 26 28  1  0  0  0  0
 28 29  1  0  0  0  0
 29 30  1  0  0  0  0
M  END
>  <Name_Molregno>
408856

>  <HISTAMINE H3>
8.31

$$$$
408862
  Marvin  02231216192D 0   1.00000     0.00000     0

 30 34  0  0  1  0  0  0  0  0999 V2000
   -2.7986   -7.2138    0.0000 F   0  0  0  0  0  0  0  0  0
   -3.1886   -6.4868    0.0000 C   0  0  0  0  0  0  0  0  0
   -4.0132   -6.4611    0.0000 C   0  0  0  0  0  0  0  0  0
   -4.4032   -5.7341    0.0000 C   0  0  0  0  0  0  0  0  0
   -3.9686   -5.0328    0.0000 C   0  0  0  0  0  0  0  0  0
   -3.1440   -5.0586    0.0000 C   0  0  0  0  0  0  0  0  0
   -2.7540   -5.7856    0.0000 C   0  0  0  0  0  0  0  0  0
   -4.3586   -4.3058    0.0000 C   0  0  0  0  0  0  0  0  0
   -3.9240   -3.6046    0.0000 C   0  0  0  0  0  0  0  0  0
   -4.3140   -2.8776    0.0000 C   0  0  0  0  0  0  0  0  0
   -3.8794   -2.1763    0.0000 C   0  0  0  0  0  0  0  0  0
   -3.0548   -2.2021    0.0000 C   0  0  0  0  0  0  0  0  0
   -2.6202   -1.5009    0.0000 O   0  0  0  0  0  0  0  0  0
   -3.0101   -0.7738    0.0000 C   0  0  0  0  0  0  0  0  0
   -2.5755   -0.0726    0.0000 C   0  0  0  0  0  0  0  0  0
   -2.9655    0.6544    0.0000 C   0  0  0  0  0  0  0  0  0
   -2.5309    1.3556    0.0000 N   0  0  0  0  0  0  0  0  0
   -2.9209    2.0826    0.0000 C   0  0  0  0  0  0  0  0  0
   -2.4863    2.7839    0.0000 C   0  0  0  0  0  0  0  0  0
   -1.6617    2.7581    0.0000 C   0  0  0  0  0  0  0  0  0
   -1.2717    2.0311    0.0000 C   0  0  0  0  0  0  0  0  0
   -1.7063    1.3299    0.0000 C   0  0  0  0  0  0  0  0  0
   -2.6648   -2.9291    0.0000 C   0  0  0  0  0  0  0  0  0
   -3.0994   -3.6303    0.0000 C   0  0  0  0  0  0  0  0  0
   -5.1386   -2.8518    0.0000 C   0  0  0  0  0  0  0  0  0
   -5.5732   -3.5530    0.0000 N   0  0  0  0  0  0  0  0  0
   -5.1832   -4.2801    0.0000 C   0  0  0  0  0  0  0  0  0
   -6.3744   -3.3564    0.0000 C   0  0  0  0  0  0  0  0  0
   -6.4350   -2.5336    0.0000 C   0  0  0  0  0  0  0  0  0
   -5.6712   -2.2218    0.0000 C   0  0  0  0  0  0  0  0  0
  1  2  1  0  0  0  0
  2  3  4  0  0  0  0
  2  7  4  0  0  0  0
  3  4  4  0  0  0  0
  4  5  4  0  0  0  0
  5  6  4  0  0  0  0
  5  8  1  0  0  0  0
  6  7  4  0  0  0  0
  8  9  1  0  0  0  0
  8 27  1  0  0  0  0
  9 10  4  0  0  0  0
  9 24  4  0  0  0  0
 10 11  4  0  0  0  0
 10 25  1  0  0  0  0
 11 12  4  0  0  0  0
 12 13  1  0  0  0  0
 12 23  4  0  0  0  0
 13 14  1  0  0  0  0
 14 15  1  0  0  0  0
 15 16  1  0  0  0  0
 16 17  1  0  0  0  0
 17 18  1  0  0  0  0
 17 22  1  0  0  0  0
 18 19  1  0  0  0  0
 19 20  1  0  0  0  0
 20 21  1  0  0  0  0
 21 22  1  0  0  0  0
 23 24  4  0  0  0  0
 25 26  1  0  0  0  0
 25 30  1  0  0  0  0
 26 27  1  0  0  0  0
 26 28  1  0  0  0  0
 28 29  1  0  0  0  0
 29 30  1  0  0  0  0
M  END
>  <Name_Molregno>
408862

>  <HISTAMINE H3>
8.57

$$$$
408865
  Marvin  02231216192D 0   1.00000     0.00000     0

 31 35  0  0  1  0  0  0  0  0999 V2000
   -0.6256    0.3454    0.0000 O   0  0  0  0  0  0  0  0  0
    0.1990    0.3197    0.0000 C   0  0  0  0  0  0  0  0  0
    0.6336    1.0209    0.0000 C   0  0  0  0  0  0  0  0  0
    1.4582    0.9951    0.0000 C   0  0  0  0  0  0  0  0  0
    1.8928    1.6964    0.0000 N   0  0  0  0  0  0  0  0  0
    1.5028    2.4234    0.0000 C   0  0  0  0  0  0  0  0  0
    1.9374    3.1246    0.0000 C   0  0  0  0  0  0  0  0  0
    2.7620    3.0989    0.0000 C   0  0  0  0  0  0  0  0  0
    3.1520    2.3719    0.0000 C   0  0  0  0  0  0  0  0  0
    2.7174    1.6706    0.0000 C   0  0  0  0  0  0  0  0  0
   -1.0602   -0.3558    0.0000 C   0  0  0  0  0  0  0  0  0
   -1.8848   -0.3301    0.0000 C   0  0  0  0  0  0  0  0  0
   -2.3194   -1.0313    0.0000 C   0  0  0  0  0  0  0  0  0
   -1.9294   -1.7583    0.0000 C   0  0  0  0  0  0  0  0  0
   -1.1048   -1.7841    0.0000 C   0  0  0  0  0  0  0  0  0
   -0.6702   -1.0828    0.0000 C   0  0  0  0  0  0  0  0  0
   -2.3641   -2.4595    0.0000 C   0  0  0  0  0  0  0  0  0
   -3.1886   -2.4338    0.0000 C   0  0  0  0  0  0  0  0  0
   -3.5786   -1.7068    0.0000 N   0  0  0  0  0  0  0  0  0
   -3.1440   -1.0055    0.0000 C   0  0  0  0  0  0  0  0  0
   -3.6766   -0.3755    0.0000 C   0  0  0  0  0  0  0  0  0
   -4.4404   -0.6874    0.0000 C   0  0  0  0  0  0  0  0  0
   -4.3799   -1.5101    0.0000 C   0  0  0  0  0  0  0  0  0
   -1.9741   -3.1865    0.0000 C   0  0  0  0  0  0  0  0  0
   -1.1495   -3.2123    0.0000 C   0  0  0  0  0  0  0  0  0
   -0.7595   -3.9393    0.0000 C   0  0  0  0  0  0  0  0  0
   -1.1941   -4.6406    0.0000 C   0  0  0  0  0  0  0  0  0
   -2.0187   -4.6148    0.0000 C   0  0  0  0  0  0  0  0  0
   -2.4087   -3.8878    0.0000 C   0  0  0  0  0  0  0  0  0
   -0.8041   -5.3676    0.0000 C   0  0  0  0  0  0  0  0  0
   -0.4141   -6.0946    0.0000 N   0  0  0  0  0  0  0  0  0
  1  2  1  0  0  0  0
  1 11  1  0  0  0  0
  2  3  1  0  0  0  0
  3  4  1  0  0  0  0
  4  5  1  0  0  0  0
  5  6  1  0  0  0  0
  5 10  1  0  0  0  0
  6  7  1  0  0  0  0
  7  8  1  0  0  0  0
  8  9  1  0  0  0  0
  9 10  1  0  0  0  0
 11 12  4  0  0  0  0
 11 16  4  0  0  0  0
 12 13  4  0  0  0  0
 13 14  4  0  0  0  0
 13 20  1  0  0  0  0
 14 15  4  0  0  0  0
 14 17  1  0  0  0  0
 15 16  4  0  0  0  0
 17 18  1  0  0  0  0
 17 24  1  0  0  0  0
 18 19  1  0  0  0  0
 19 20  1  0  0  0  0
 19 23  1  0  0  0  0
 20 21  1  0  0  0  0
 21 22  1  0  0  0  0
 22 23  1  0  0  0  0
 24 25  4  0  0  0  0
 24 29  4  0  0  0  0
 25 26  4  0  0  0  0
 26 27  4  0  0  0  0
 27 28  4  0  0  0  0
 27 30  1  0  0  0  0
 28 29  4  0  0  0  0
 30 31  3  0  0  0  0
M  END
>  <Name_Molregno>
408865

>  <HISTAMINE H3>
8.08

$$$$
408868
  Marvin  02231216192D 0   1.00000     0.00000     0

 32 36  0  0  1  0  0  0  0  0999 V2000
   -0.6953    0.3687    0.0000 O   0  0  0  0  0  0  0  0  0
    0.1293    0.3430    0.0000 C   0  0  0  0  0  0  0  0  0
    0.5640    1.0442    0.0000 C   0  0  0  0  0  0  0  0  0
    1.3886    1.0184    0.0000 C   0  0  0  0  0  0  0  0  0
    1.8232    1.7197    0.0000 N   0  0  0  0  0  0  0  0  0
    1.4332    2.4467    0.0000 C   0  0  0  0  0  0  0  0  0
    1.8678    3.1479    0.0000 C   0  0  0  0  0  0  0  0  0
    2.6924    3.1222    0.0000 C   0  0  0  0  0  0  0  0  0
    3.0824    2.3952    0.0000 C   0  0  0  0  0  0  0  0  0
    2.6478    1.6939    0.0000 C   0  0  0  0  0  0  0  0  0
   -1.1299   -0.3325    0.0000 C   0  0  0  0  0  0  0  0  0
   -1.9545   -0.3067    0.0000 C   0  0  0  0  0  0  0  0  0
   -2.3891   -1.0080    0.0000 C   0  0  0  0  0  0  0  0  0
   -1.9991   -1.7350    0.0000 C   0  0  0  0  0  0  0  0  0
   -1.1745   -1.7608    0.0000 C   0  0  0  0  0  0  0  0  0
   -0.7399   -1.0595    0.0000 C   0  0  0  0  0  0  0  0  0
   -2.4337   -2.4362    0.0000 C   0  0  0  0  0  0  0  0  0
   -3.2583   -2.4105    0.0000 C   0  0  0  0  0  0  0  0  0
   -3.6483   -1.6835    0.0000 N   0  0  0  0  0  0  0  0  0
   -3.2137   -0.9822    0.0000 C   0  0  0  0  0  0  0  0  0
   -3.7463   -0.3522    0.0000 C   0  0  0  0  0  0  0  0  0
   -4.5101   -0.6641    0.0000 C   0  0  0  0  0  0  0  0  0
   -4.4495   -1.4868    0.0000 C   0  0  0  0  0  0  0  0  0
   -2.0437   -3.1632    0.0000 C   0  0  0  0  0  0  0  0  0
   -1.2191   -3.1890    0.0000 C   0  0  0  0  0  0  0  0  0
   -0.8291   -3.9160    0.0000 C   0  0  0  0  0  0  0  0  0
   -1.2637   -4.6172    0.0000 C   0  0  0  0  0  0  0  0  0
   -0.8737   -5.3443    0.0000 N   0  3  0  0  0  0  0  0  0
   -1.3084   -6.0455    0.0000 O   0  5  0  0  0  0  0  0  0
   -0.0491   -5.3700    0.0000 O   0  5  0  0  0  0  0  0  0
   -2.0883   -4.5915    0.0000 C   0  0  0  0  0  0  0  0  0
   -2.4783   -3.8645    0.0000 C   0  0  0  0  0  0  0  0  0
  1  2  1  0  0  0  0
  1 11  1  0  0  0  0
  2  3  1  0  0  0  0
  3  4  1  0  0  0  0
  4  5  1  0  0  0  0
  5  6  1  0  0  0  0
  5 10  1  0  0  0  0
  6  7  1  0  0  0  0
  7  8  1  0  0  0  0
  8  9  1  0  0  0  0
  9 10  1  0  0  0  0
 11 12  4  0  0  0  0
 11 16  4  0  0  0  0
 12 13  4  0  0  0  0
 13 14  4  0  0  0  0
 13 20  1  0  0  0  0
 14 15  4  0  0  0  0
 14 17  1  0  0  0  0
 15 16  4  0  0  0  0
 17 18  1  0  0  0  0
 17 24  1  0  0  0  0
 18 19  1  0  0  0  0
 19 20  1  0  0  0  0
 19 23  1  0  0  0  0
 20 21  1  0  0  0  0
 21 22  1  0  0  0  0
 22 23  1  0  0  0  0
 24 25  4  0  0  0  0
 24 32  4  0  0  0  0
 25 26  4  0  0  0  0
 26 27  4  0  0  0  0
 27 28  1  0  0  0  0
 27 31  4  0  0  0  0
 28 29  1  0  0  0  0
 28 30  1  0  0  0  0
 31 32  4  0  0  0  0
M  CHG  3  28   1  29  -1  30  -1
M  END
>  <Name_Molregno>
408868

>  <HISTAMINE H3>
8.53

$$$$
408869
  Marvin  02231216192D 0   1.00000     0.00000     0

 33 37  0  0  1  0  0  0  0  0999 V2000
   -2.5334   -7.9661    0.0000 F   0  0  0  0  0  0  0  0  0
   -2.9234   -7.2391    0.0000 C   0  0  0  0  0  0  0  0  0
   -2.1964   -6.8491    0.0000 F   0  0  0  0  0  0  0  0  0
   -3.6504   -7.6291    0.0000 F   0  0  0  0  0  0  0  0  0
   -3.3134   -6.5121    0.0000 C   0  0  0  0  0  0  0  0  0
   -4.1380   -6.4863    0.0000 C   0  0  0  0  0  0  0  0  0
   -4.5280   -5.7593    0.0000 C   0  0  0  0  0  0  0  0  0
   -4.0934   -5.0581    0.0000 C   0  0  0  0  0  0  0  0  0
   -3.2688   -5.0838    0.0000 C   0  0  0  0  0  0  0  0  0
   -2.8788   -5.8108    0.0000 C   0  0  0  0  0  0  0  0  0
   -4.4834   -4.3311    0.0000 C   0  0  0  0  0  0  0  0  0
   -4.0488   -3.6298    0.0000 C   0  0  0  0  0  0  0  0  0
   -4.4388   -2.9028    0.0000 C   0  0  0  0  0  0  0  0  0
   -4.0041   -2.2016    0.0000 C   0  0  0  0  0  0  0  0  0
   -3.1795   -2.2273    0.0000 C   0  0  0  0  0  0  0  0  0
   -2.7449   -1.5261    0.0000 O   0  0  0  0  0  0  0  0  0
   -3.1349   -0.7991    0.0000 C   0  0  0  0  0  0  0  0  0
   -2.7003   -0.0979    0.0000 C   0  0  0  0  0  0  0  0  0
   -3.0903    0.6291    0.0000 C   0  0  0  0  0  0  0  0  0
   -2.6557    1.3304    0.0000 N   0  0  0  0  0  0  0  0  0
   -3.0457    2.0574    0.0000 C   0  0  0  0  0  0  0  0  0
   -2.6111    2.7586    0.0000 C   0  0  0  0  0  0  0  0  0
   -1.7865    2.7329    0.0000 C   0  0  0  0  0  0  0  0  0
   -1.3965    2.0059    0.0000 C   0  0  0  0  0  0  0  0  0
   -1.8311    1.3046    0.0000 C   0  0  0  0  0  0  0  0  0
   -2.7896   -2.9543    0.0000 C   0  0  0  0  0  0  0  0  0
   -3.2242   -3.6556    0.0000 C   0  0  0  0  0  0  0  0  0
   -5.2634   -2.8771    0.0000 C   0  0  0  0  0  0  0  0  0
   -5.6980   -3.5783    0.0000 N   0  0  0  0  0  0  0  0  0
   -5.3080   -4.3053    0.0000 C   0  0  0  0  0  0  0  0  0
   -6.4992   -3.3817    0.0000 C   0  0  0  0  0  0  0  0  0
   -6.5598   -2.5589    0.0000 C   0  0  0  0  0  0  0  0  0
   -5.7960   -2.2470    0.0000 C   0  0  0  0  0  0  0  0  0
  1  2  1  0  0  0  0
  2  3  1  0  0  0  0
  2  4  1  0  0  0  0
  2  5  1  0  0  0  0
  5  6  4  0  0  0  0
  5 10  4  0  0  0  0
  6  7  4  0  0  0  0
  7  8  4  0  0  0  0
  8  9  4  0  0  0  0
  8 11  1  0  0  0  0
  9 10  4  0  0  0  0
 11 12  1  0  0  0  0
 11 30  1  0  0  0  0
 12 13  4  0  0  0  0
 12 27  4  0  0  0  0
 13 14  4  0  0  0  0
 13 28  1  0  0  0  0
 14 15  4  0  0  0  0
 15 16  1  0  0  0  0
 15 26  4  0  0  0  0
 16 17  1  0  0  0  0
 17 18  1  0  0  0  0
 18 19  1  0  0  0  0
 19 20  1  0  0  0  0
 20 21  1  0  0  0  0
 20 25  1  0  0  0  0
 21 22  1  0  0  0  0
 22 23  1  0  0  0  0
 23 24  1  0  0  0  0
 24 25  1  0  0  0  0
 26 27  4  0  0  0  0
 28 29  1  0  0  0  0
 28 33  1  0  0  0  0
 29 30  1  0  0  0  0
 29 31  1  0  0  0  0
 31 32  1  0  0  0  0
 32 33  1  0  0  0  0
M  END
>  <Name_Molregno>
408869

>  <HISTAMINE H3>
7.86

$$$$
408880
  Marvin  02231216192D 0   1.00000     0.00000     0

 33 37  0  0  1  0  0  0  0  0999 V2000
    3.5886   -4.0331    0.0000 F   0  0  0  0  0  0  0  0  0
    4.0232   -3.3319    0.0000 C   0  0  0  0  0  0  0  0  0
    4.7244   -3.7665    0.0000 F   0  0  0  0  0  0  0  0  0
    3.3220   -2.8973    0.0000 F   0  0  0  0  0  0  0  0  0
    4.4578   -2.6306    0.0000 C   0  0  0  0  0  0  0  0  0
    4.0678   -1.9036    0.0000 C   0  0  0  0  0  0  0  0  0
    4.5024   -1.2024    0.0000 C   0  0  0  0  0  0  0  0  0
    5.3270   -1.2281    0.0000 C   0  0  0  0  0  0  0  0  0
    5.7170   -1.9552    0.0000 C   0  0  0  0  0  0  0  0  0
    5.2824   -2.6564    0.0000 C   0  0  0  0  0  0  0  0  0
    4.1124   -0.4754    0.0000 C   0  0  0  0  0  0  0  0  0
    4.5470    0.2259    0.0000 C   0  0  0  0  0  0  0  0  0
    4.1571    0.9529    0.0000 C   0  0  0  0  0  0  0  0  0
    4.5917    1.6541    0.0000 C   0  0  0  0  0  0  0  0  0
    5.4163    1.6283    0.0000 C   0  0  0  0  0  0  0  0  0
    5.8509    2.3296    0.0000 O   0  0  0  0  0  0  0  0  0
    5.4609    3.0566    0.0000 C   0  0  0  0  0  0  0  0  0
    5.8955    3.7578    0.0000 C   0  0  0  0  0  0  0  0  0
    5.5055    4.4848    0.0000 C   0  0  0  0  0  0  0  0  0
    5.9401    5.1861    0.0000 N   0  0  0  0  0  0  0  0  0
    5.5501    5.9131    0.0000 C   0  0  0  0  0  0  0  0  0
    5.9847    6.6143    0.0000 C   0  0  0  0  0  0  0  0  0
    6.8093    6.5886    0.0000 C   0  0  0  0  0  0  0  0  0
    7.1993    5.8615    0.0000 C   0  0  0  0  0  0  0  0  0
    6.7647    5.1603    0.0000 C   0  0  0  0  0  0  0  0  0
    5.8063    0.9013    0.0000 C   0  0  0  0  0  0  0  0  0
    5.3716    0.2001    0.0000 C   0  0  0  0  0  0  0  0  0
    3.3325    0.9786    0.0000 C   0  0  0  0  0  0  0  0  0
    2.8979    0.2774    0.0000 N   0  0  0  0  0  0  0  0  0
    3.2878   -0.4496    0.0000 C   0  0  0  0  0  0  0  0  0
    2.0966    0.4740    0.0000 C   0  0  0  0  0  0  0  0  0
    2.0361    1.2968    0.0000 C   0  0  0  0  0  0  0  0  0
    2.7998    1.6087    0.0000 C   0  0  0  0  0  0  0  0  0
  1  2  1  0  0  0  0
  2  3  1  0  0  0  0
  2  4  1  0  0  0  0
  2  5  1  0  0  0  0
  5  6  4  0  0  0  0
  5 10  4  0  0  0  0
  6  7  4  0  0  0  0
  7  8  4  0  0  0  0
  7 11  1  0  0  0  0
  8  9  4  0  0  0  0
  9 10  4  0  0  0  0
 11 12  1  0  0  0  0
 11 30  1  0  0  0  0
 12 13  4  0  0  0  0
 12 27  4  0  0  0  0
 13 14  4  0  0  0  0
 13 28  1  0  0  0  0
 14 15  4  0  0  0  0
 15 16  1  0  0  0  0
 15 26  4  0  0  0  0
 16 17  1  0  0  0  0
 17 18  1  0  0  0  0
 18 19  1  0  0  0  0
 19 20  1  0  0  0  0
 20 21  1  0  0  0  0
 20 25  1  0  0  0  0
 21 22  1  0  0  0  0
 22 23  1  0  0  0  0
 23 24  1  0  0  0  0
 24 25  1  0  0  0  0
 26 27  4  0  0  0  0
 28 29  1  0  0  0  0
 28 33  1  0  0  0  0
 29 30  1  0  0  0  0
 29 31  1  0  0  0  0
 31 32  1  0  0  0  0
 32 33  1  0  0  0  0
M  END
>  <Name_Molregno>
408880

>  <HISTAMINE H3>
8.16

$$$$
408881
  Marvin  02231216192D 0   1.00000     0.00000     0

 34 38  0  0  1  0  0  0  0  0999 V2000
    4.6785   -3.7639    0.0000 F   0  0  0  0  0  0  0  0  0
    5.1131   -3.0626    0.0000 C   0  0  0  0  0  0  0  0  0
    5.8144   -3.4972    0.0000 F   0  0  0  0  0  0  0  0  0
    4.4119   -2.6280    0.0000 F   0  0  0  0  0  0  0  0  0
    5.5477   -2.3614    0.0000 O   0  0  0  0  0  0  0  0  0
    5.1577   -1.6344    0.0000 C   0  0  0  0  0  0  0  0  0
    4.3331   -1.6086    0.0000 C   0  0  0  0  0  0  0  0  0
    3.9431   -0.8816    0.0000 C   0  0  0  0  0  0  0  0  0
    4.3778   -0.1804    0.0000 C   0  0  0  0  0  0  0  0  0
    5.2024   -0.2061    0.0000 C   0  0  0  0  0  0  0  0  0
    5.5923   -0.9331    0.0000 C   0  0  0  0  0  0  0  0  0
    3.9878    0.5466    0.0000 C   0  0  0  0  0  0  0  0  0
    4.4224    1.2479    0.0000 C   0  0  0  0  0  0  0  0  0
    4.0324    1.9749    0.0000 C   0  0  0  0  0  0  0  0  0
    4.4670    2.6761    0.0000 C   0  0  0  0  0  0  0  0  0
    5.2916    2.6503    0.0000 C   0  0  0  0  0  0  0  0  0
    5.7262    3.3516    0.0000 O   0  0  0  0  0  0  0  0  0
    5.3362    4.0786    0.0000 C   0  0  0  0  0  0  0  0  0
    5.7708    4.7798    0.0000 C   0  0  0  0  0  0  0  0  0
    5.3808    5.5068    0.0000 C   0  0  0  0  0  0  0  0  0
    5.8155    6.2081    0.0000 N   0  0  0  0  0  0  0  0  0
    5.4255    6.9351    0.0000 C   0  0  0  0  0  0  0  0  0
    5.8601    7.6363    0.0000 C   0  0  0  0  0  0  0  0  0
    6.6847    7.6106    0.0000 C   0  0  0  0  0  0  0  0  0
    7.0747    6.8836    0.0000 C   0  0  0  0  0  0  0  0  0
    6.6401    6.1823    0.0000 C   0  0  0  0  0  0  0  0  0
    5.6816    1.9233    0.0000 C   0  0  0  0  0  0  0  0  0
    5.2470    1.2221    0.0000 C   0  0  0  0  0  0  0  0  0
    3.2078    2.0006    0.0000 C   0  0  0  0  0  0  0  0  0
    2.7732    1.2994    0.0000 N   0  0  0  0  0  0  0  0  0
    3.1632    0.5724    0.0000 C   0  0  0  0  0  0  0  0  0
    1.9720    1.4960    0.0000 C   0  0  0  0  0  0  0  0  0
    1.9114    2.3188    0.0000 C   0  0  0  0  0  0  0  0  0
    2.6752    2.6307    0.0000 C   0  0  0  0  0  0  0  0  0
  1  2  1  0  0  0  0
  2  3  1  0  0  0  0
  2  4  1  0  0  0  0
  2  5  1  0  0  0  0
  5  6  1  0  0  0  0
  6  7  4  0  0  0  0
  6 11  4  0  0  0  0
  7  8  4  0  0  0  0
  8  9  4  0  0  0  0
  9 10  4  0  0  0  0
  9 12  1  0  0  0  0
 10 11  4  0  0  0  0
 12 13  1  0  0  0  0
 12 31  1  0  0  0  0
 13 14  4  0  0  0  0
 13 28  4  0  0  0  0
 14 15  4  0  0  0  0
 14 29  1  0  0  0  0
 15 16  4  0  0  0  0
 16 17  1  0  0  0  0
 16 27  4  0  0  0  0
 17 18  1  0  0  0  0
 18 19  1  0  0  0  0
 19 20  1  0  0  0  0
 20 21  1  0  0  0  0
 21 22  1  0  0  0  0
 21 26  1  0  0  0  0
 22 23  1  0  0  0  0
 23 24  1  0  0  0  0
 24 25  1  0  0  0  0
 25 26  1  0  0  0  0
 27 28  4  0  0  0  0
 29 30  1  0  0  0  0
 29 34  1  0  0  0  0
 30 31  1  0  0  0  0
 30 32  1  0  0  0  0
 32 33  1  0  0  0  0
 33 34  1  0  0  0  0
M  END
>  <Name_Molregno>
408881

>  <HISTAMINE H3>
8.23

$$$$
408913
  Marvin  02231216192D 0   1.00000     0.00000     0

 31 35  0  0  1  0  0  0  0  0999 V2000
   -0.7787    0.3136    0.0000 O   0  0  0  0  0  0  0  0  0
    0.0459    0.2878    0.0000 C   0  0  0  0  0  0  0  0  0
    0.4806    0.9890    0.0000 C   0  0  0  0  0  0  0  0  0
    1.3052    0.9633    0.0000 C   0  0  0  0  0  0  0  0  0
    1.7398    1.6645    0.0000 N   0  0  0  0  0  0  0  0  0
    1.3498    2.3915    0.0000 C   0  0  0  0  0  0  0  0  0
    1.7844    3.0928    0.0000 C   0  0  0  0  0  0  0  0  0
    2.6090    3.0670    0.0000 C   0  0  0  0  0  0  0  0  0
    2.9990    2.3400    0.0000 C   0  0  0  0  0  0  0  0  0
    2.5644    1.6387    0.0000 C   0  0  0  0  0  0  0  0  0
   -1.2133   -0.3877    0.0000 C   0  0  0  0  0  0  0  0  0
   -2.0379   -0.3619    0.0000 C   0  0  0  0  0  0  0  0  0
   -2.4725   -1.0632    0.0000 C   0  0  0  0  0  0  0  0  0
   -2.0825   -1.7902    0.0000 C   0  0  0  0  0  0  0  0  0
   -1.2579   -1.8159    0.0000 C   0  0  0  0  0  0  0  0  0
   -0.8233   -1.1147    0.0000 C   0  0  0  0  0  0  0  0  0
   -2.5171   -2.4914    0.0000 C   0  0  0  0  0  0  0  0  0
   -3.3417   -2.4656    0.0000 C   0  0  0  0  0  0  0  0  0
   -3.7317   -1.7386    0.0000 N   0  0  0  0  0  0  0  0  0
   -3.2971   -1.0374    0.0000 C   0  0  0  0  0  0  0  0  0
   -3.8297   -0.4074    0.0000 C   0  0  0  0  0  0  0  0  0
   -4.5935   -0.7192    0.0000 C   0  0  0  0  0  0  0  0  0
   -4.5329   -1.5420    0.0000 C   0  0  0  0  0  0  0  0  0
   -2.1271   -3.2184    0.0000 C   0  0  0  0  0  0  0  0  0
   -1.3025   -3.2442    0.0000 C   0  0  0  0  0  0  0  0  0
   -0.9125   -3.9712    0.0000 C   0  0  0  0  0  0  0  0  0
   -0.0879   -3.9969    0.0000 O   0  0  0  0  0  0  0  0  0
    0.3021   -4.7239    0.0000 C   0  0  0  0  0  0  0  0  0
   -1.3471   -4.6724    0.0000 C   0  0  0  0  0  0  0  0  0
   -2.1717   -4.6467    0.0000 C   0  0  0  0  0  0  0  0  0
   -2.5617   -3.9197    0.0000 C   0  0  0  0  0  0  0  0  0
  1  2  1  0  0  0  0
  1 11  1  0  0  0  0
  2  3  1  0  0  0  0
  3  4  1  0  0  0  0
  4  5  1  0  0  0  0
  5  6  1  0  0  0  0
  5 10  1  0  0  0  0
  6  7  1  0  0  0  0
  7  8  1  0  0  0  0
  8  9  1  0  0  0  0
  9 10  1  0  0  0  0
 11 12  4  0  0  0  0
 11 16  4  0  0  0  0
 12 13  4  0  0  0  0
 13 14  4  0  0  0  0
 13 20  1  0  0  0  0
 14 15  4  0  0  0  0
 14 17  1  0  0  0  0
 15 16  4  0  0  0  0
 17 18  1  0  0  0  0
 17 24  1  0  0  0  0
 18 19  1  0  0  0  0
 19 20  1  0  0  0  0
 19 23  1  0  0  0  0
 20 21  1  0  0  0  0
 21 22  1  0  0  0  0
 22 23  1  0  0  0  0
 24 25  4  0  0  0  0
 24 31  4  0  0  0  0
 25 26  4  0  0  0  0
 26 27  1  0  0  0  0
 26 29  4  0  0  0  0
 27 28  1  0  0  0  0
 29 30  4  0  0  0  0
 30 31  4  0  0  0  0
M  END
>  <Name_Molregno>
408913

>  <HISTAMINE H3>
8.45

$$$$
408914
  Marvin  02231216192D 0   1.00000     0.00000     0

 31 35  0  0  1  0  0  0  0  0999 V2000
   -2.6247   -1.6980    0.0000 O   0  0  0  0  0  0  0  0  0
   -1.8001   -1.7238    0.0000 C   0  0  0  0  0  0  0  0  0
   -3.0593   -2.3992    0.0000 C   0  0  0  0  0  0  0  0  0
   -2.6693   -3.1262    0.0000 C   0  0  0  0  0  0  0  0  0
   -3.1039   -3.8275    0.0000 C   0  0  0  0  0  0  0  0  0
   -3.9285   -3.8017    0.0000 C   0  0  0  0  0  0  0  0  0
   -4.3185   -3.0747    0.0000 C   0  0  0  0  0  0  0  0  0
   -3.8839   -2.3735    0.0000 C   0  0  0  0  0  0  0  0  0
   -4.2739   -1.6465    0.0000 C   0  0  0  0  0  0  0  0  0
   -3.8393   -0.9452    0.0000 C   0  0  0  0  0  0  0  0  0
   -4.2293   -0.2182    0.0000 C   0  0  0  0  0  0  0  0  0
   -3.7947    0.4830    0.0000 C   0  0  0  0  0  0  0  0  0
   -2.9701    0.4573    0.0000 C   0  0  0  0  0  0  0  0  0
   -2.5354    1.1585    0.0000 O   0  0  0  0  0  0  0  0  0
   -2.9254    1.8855    0.0000 C   0  0  0  0  0  0  0  0  0
   -2.4908    2.5867    0.0000 C   0  0  0  0  0  0  0  0  0
   -2.8808    3.3137    0.0000 C   0  0  0  0  0  0  0  0  0
   -2.4462    4.0150    0.0000 N   0  0  0  0  0  0  0  0  0
   -2.8362    4.7420    0.0000 C   0  0  0  0  0  0  0  0  0
   -2.4016    5.4432    0.0000 C   0  0  0  0  0  0  0  0  0
   -1.5770    5.4175    0.0000 C   0  0  0  0  0  0  0  0  0
   -1.1870    4.6905    0.0000 C   0  0  0  0  0  0  0  0  0
   -1.6216    3.9892    0.0000 C   0  0  0  0  0  0  0  0  0
   -2.5801   -0.2697    0.0000 C   0  0  0  0  0  0  0  0  0
   -3.0147   -0.9710    0.0000 C   0  0  0  0  0  0  0  0  0
   -5.0539   -0.1925    0.0000 C   0  0  0  0  0  0  0  0  0
   -5.4885   -0.8937    0.0000 N   0  0  0  0  0  0  0  0  0
   -5.0985   -1.6207    0.0000 C   0  0  0  0  0  0  0  0  0
   -6.2897   -0.6971    0.0000 C   0  0  0  0  0  0  0  0  0
   -6.3503    0.1257    0.0000 C   0  0  0  0  0  0  0  0  0
   -5.5865    0.4376    0.0000 C   0  0  0  0  0  0  0  0  0
  1  2  1  0  0  0  0
  1  3  1  0  0  0  0
  3  4  4  0  0  0  0
  3  8  4  0  0  0  0
  4  5  4  0  0  0  0
  5  6  4  0  0  0  0
  6  7  4  0  0  0  0
  7  8  4  0  0  0  0
  8  9  1  0  0  0  0
  9 10  1  0  0  0  0
  9 28  1  0  0  0  0
 10 11  4  0  0  0  0
 10 25  4  0  0  0  0
 11 12  4  0  0  0  0
 11 26  1  0  0  0  0
 12 13  4  0  0  0  0
 13 14  1  0  0  0  0
 13 24  4  0  0  0  0
 14 15  1  0  0  0  0
 15 16  1  0  0  0  0
 16 17  1  0  0  0  0
 17 18  1  0  0  0  0
 18 19  1  0  0  0  0
 18 23  1  0  0  0  0
 19 20  1  0  0  0  0
 20 21  1  0  0  0  0
 21 22  1  0  0  0  0
 22 23  1  0  0  0  0
 24 25  4  0  0  0  0
 26 27  1  0  0  0  0
 26 31  1  0  0  0  0
 27 28  1  0  0  0  0
 27 29  1  0  0  0  0
 29 30  1  0  0  0  0
 30 31  1  0  0  0  0
M  END
>  <Name_Molregno>
408914

>  <HISTAMINE H3>
8.18

$$$$
408915
  Marvin  02231216192D 0   1.00000     0.00000     0

 30 34  0  0  1  0  0  0  0  0999 V2000
   -0.5480    0.3309    0.0000 O   0  0  0  0  0  0  0  0  0
    0.2766    0.3051    0.0000 C   0  0  0  0  0  0  0  0  0
    0.7112    1.0064    0.0000 C   0  0  0  0  0  0  0  0  0
    1.5358    0.9806    0.0000 C   0  0  0  0  0  0  0  0  0
    1.9704    1.6818    0.0000 N   0  0  0  0  0  0  0  0  0
    1.5804    2.4089    0.0000 C   0  0  0  0  0  0  0  0  0
    2.0151    3.1101    0.0000 C   0  0  0  0  0  0  0  0  0
    2.8397    3.0843    0.0000 C   0  0  0  0  0  0  0  0  0
    3.2296    2.3573    0.0000 C   0  0  0  0  0  0  0  0  0
    2.7950    1.6561    0.0000 C   0  0  0  0  0  0  0  0  0
   -0.9826   -0.3703    0.0000 C   0  0  0  0  0  0  0  0  0
   -1.8072   -0.3446    0.0000 C   0  0  0  0  0  0  0  0  0
   -2.2418   -1.0458    0.0000 C   0  0  0  0  0  0  0  0  0
   -1.8518   -1.7728    0.0000 C   0  0  0  0  0  0  0  0  0
   -1.0272   -1.7986    0.0000 C   0  0  0  0  0  0  0  0  0
   -0.5926   -1.0974    0.0000 C   0  0  0  0  0  0  0  0  0
   -2.2864   -2.4741    0.0000 C   0  0  0  0  0  0  0  0  0
   -3.1110   -2.4483    0.0000 C   0  0  0  0  0  0  0  0  0
   -3.5010   -1.7213    0.0000 N   0  0  0  0  0  0  0  0  0
   -3.0664   -1.0201    0.0000 C   0  0  0  0  0  0  0  0  0
   -3.5990   -0.3900    0.0000 C   0  0  0  0  0  0  0  0  0
   -4.3628   -0.7019    0.0000 C   0  0  0  0  0  0  0  0  0
   -4.3022   -1.5247    0.0000 C   0  0  0  0  0  0  0  0  0
   -1.8964   -3.2011    0.0000 C   0  0  0  0  0  0  0  0  0
   -1.0718   -3.2268    0.0000 C   0  0  0  0  0  0  0  0  0
   -0.6819   -3.9538    0.0000 C   0  0  0  0  0  0  0  0  0
   -1.1165   -4.6551    0.0000 C   0  0  0  0  0  0  0  0  0
   -0.7265   -5.3821    0.0000 O   0  0  0  0  0  0  0  0  0
   -1.9411   -4.6293    0.0000 C   0  0  0  0  0  0  0  0  0
   -2.3310   -3.9023    0.0000 C   0  0  0  0  0  0  0  0  0
  1  2  1  0  0  0  0
  1 11  1  0  0  0  0
  2  3  1  0  0  0  0
  3  4  1  0  0  0  0
  4  5  1  0  0  0  0
  5  6  1  0  0  0  0
  5 10  1  0  0  0  0
  6  7  1  0  0  0  0
  7  8  1  0  0  0  0
  8  9  1  0  0  0  0
  9 10  1  0  0  0  0
 11 12  4  0  0  0  0
 11 16  4  0  0  0  0
 12 13  4  0  0  0  0
 13 14  4  0  0  0  0
 13 20  1  0  0  0  0
 14 15  4  0  0  0  0
 14 17  1  0  0  0  0
 15 16  4  0  0  0  0
 17 18  1  0  0  0  0
 17 24  1  0  0  0  0
 18 19  1  0  0  0  0
 19 20  1  0  0  0  0
 19 23  1  0  0  0  0
 20 21  1  0  0  0  0
 21 22  1  0  0  0  0
 22 23  1  0  0  0  0
 24 25  4  0  0  0  0
 24 30  4  0  0  0  0
 25 26  4  0  0  0  0
 26 27  4  0  0  0  0
 27 28  1  0  0  0  0
 27 29  4  0  0  0  0
 29 30  4  0  0  0  0
M  END
>  <Name_Molregno>
408915

>  <HISTAMINE H3>
7.97

$$$$
408916
  Marvin  02231216192D 0   1.00000     0.00000     0

 30 34  0  0  1  0  0  0  0  0999 V2000
   -0.6288    0.3162    0.0000 O   0  0  0  0  0  0  0  0  0
    0.1958    0.2905    0.0000 C   0  0  0  0  0  0  0  0  0
    0.6304    0.9917    0.0000 C   0  0  0  0  0  0  0  0  0
    1.4550    0.9660    0.0000 C   0  0  0  0  0  0  0  0  0
    1.8896    1.6672    0.0000 N   0  0  0  0  0  0  0  0  0
    1.4996    2.3942    0.0000 C   0  0  0  0  0  0  0  0  0
    1.9342    3.0955    0.0000 C   0  0  0  0  0  0  0  0  0
    2.7588    3.0697    0.0000 C   0  0  0  0  0  0  0  0  0
    3.1488    2.3427    0.0000 C   0  0  0  0  0  0  0  0  0
    2.7142    1.6414    0.0000 C   0  0  0  0  0  0  0  0  0
   -1.0634   -0.3850    0.0000 C   0  0  0  0  0  0  0  0  0
   -1.8880   -0.3592    0.0000 C   0  0  0  0  0  0  0  0  0
   -2.3227   -1.0605    0.0000 C   0  0  0  0  0  0  0  0  0
   -1.9327   -1.7875    0.0000 C   0  0  0  0  0  0  0  0  0
   -1.1081   -1.8132    0.0000 C   0  0  0  0  0  0  0  0  0
   -0.6735   -1.1120    0.0000 C   0  0  0  0  0  0  0  0  0
   -2.3673   -2.4887    0.0000 C   0  0  0  0  0  0  0  0  0
   -3.1919   -2.4630    0.0000 C   0  0  0  0  0  0  0  0  0
   -3.5819   -1.7359    0.0000 N   0  0  0  0  0  0  0  0  0
   -3.1473   -1.0347    0.0000 C   0  0  0  0  0  0  0  0  0
   -3.6799   -0.4047    0.0000 C   0  0  0  0  0  0  0  0  0
   -4.4437   -0.7165    0.0000 C   0  0  0  0  0  0  0  0  0
   -4.3831   -1.5393    0.0000 C   0  0  0  0  0  0  0  0  0
   -1.9773   -3.2157    0.0000 C   0  0  0  0  0  0  0  0  0
   -1.1527   -3.2415    0.0000 C   0  0  0  0  0  0  0  0  0
   -0.7627   -3.9685    0.0000 C   0  0  0  0  0  0  0  0  0
    0.0619   -3.9942    0.0000 O   0  0  0  0  0  0  0  0  0
   -1.1973   -4.6697    0.0000 C   0  0  0  0  0  0  0  0  0
   -2.0219   -4.6440    0.0000 C   0  0  0  0  0  0  0  0  0
   -2.4119   -3.9170    0.0000 C   0  0  0  0  0  0  0  0  0
  1  2  1  0  0  0  0
  1 11  1  0  0  0  0
  2  3  1  0  0  0  0
  3  4  1  0  0  0  0
  4  5  1  0  0  0  0
  5  6  1  0  0  0  0
  5 10  1  0  0  0  0
  6  7  1  0  0  0  0
  7  8  1  0  0  0  0
  8  9  1  0  0  0  0
  9 10  1  0  0  0  0
 11 12  4  0  0  0  0
 11 16  4  0  0  0  0
 12 13  4  0  0  0  0
 13 14  4  0  0  0  0
 13 20  1  0  0  0  0
 14 15  4  0  0  0  0
 14 17  1  0  0  0  0
 15 16  4  0  0  0  0
 17 18  1  0  0  0  0
 17 24  1  0  0  0  0
 18 19  1  0  0  0  0
 19 20  1  0  0  0  0
 19 23  1  0  0  0  0
 20 21  1  0  0  0  0
 21 22  1  0  0  0  0
 22 23  1  0  0  0  0
 24 25  4  0  0  0  0
 24 30  4  0  0  0  0
 25 26  4  0  0  0  0
 26 27  1  0  0  0  0
 26 28  4  0  0  0  0
 28 29  4  0  0  0  0
 29 30  4  0  0  0  0
M  END
>  <Name_Molregno>
408916

>  <HISTAMINE H3>
8.71

$$$$
408917
  Marvin  02231216192D 0   1.00000     0.00000     0

 30 34  0  0  1  0  0  0  0  0999 V2000
   -0.5200    0.3678    0.0000 O   0  0  0  0  0  0  0  0  0
    0.3046    0.3421    0.0000 C   0  0  0  0  0  0  0  0  0
    0.7392    1.0433    0.0000 C   0  0  0  0  0  0  0  0  0
    1.5638    1.0176    0.0000 C   0  0  0  0  0  0  0  0  0
    1.9985    1.7188    0.0000 N   0  0  0  0  0  0  0  0  0
    1.6085    2.4458    0.0000 C   0  0  0  0  0  0  0  0  0
    2.0431    3.1471    0.0000 C   0  0  0  0  0  0  0  0  0
    2.8677    3.1213    0.0000 C   0  0  0  0  0  0  0  0  0
    3.2577    2.3943    0.0000 C   0  0  0  0  0  0  0  0  0
    2.8231    1.6930    0.0000 C   0  0  0  0  0  0  0  0  0
   -0.9546   -0.3334    0.0000 C   0  0  0  0  0  0  0  0  0
   -1.7792   -0.3076    0.0000 C   0  0  0  0  0  0  0  0  0
   -2.2138   -1.0089    0.0000 C   0  0  0  0  0  0  0  0  0
   -1.8238   -1.7359    0.0000 C   0  0  0  0  0  0  0  0  0
   -0.9992   -1.7616    0.0000 C   0  0  0  0  0  0  0  0  0
   -0.5646   -1.0604    0.0000 C   0  0  0  0  0  0  0  0  0
   -2.2584   -2.4371    0.0000 C   0  0  0  0  0  0  0  0  0
   -3.0830   -2.4114    0.0000 C   0  0  0  0  0  0  0  0  0
   -3.4730   -1.6843    0.0000 N   0  0  0  0  0  0  0  0  0
   -3.0384   -0.9831    0.0000 C   0  0  0  0  0  0  0  0  0
   -3.5710   -0.3531    0.0000 C   0  0  0  0  0  0  0  0  0
   -4.3348   -0.6649    0.0000 C   0  0  0  0  0  0  0  0  0
   -4.2742   -1.4877    0.0000 C   0  0  0  0  0  0  0  0  0
   -1.8684   -3.1641    0.0000 C   0  0  0  0  0  0  0  0  0
   -1.0438   -3.1899    0.0000 C   0  0  0  0  0  0  0  0  0
   -0.6538   -3.9169    0.0000 C   0  0  0  0  0  0  0  0  0
   -1.0884   -4.6181    0.0000 C   0  0  0  0  0  0  0  0  0
   -1.9130   -4.5924    0.0000 C   0  0  0  0  0  0  0  0  0
   -2.3030   -3.8654    0.0000 C   0  0  0  0  0  0  0  0  0
   -3.1276   -3.8396    0.0000 O   0  0  0  0  0  0  0  0  0
  1  2  1  0  0  0  0
  1 11  1  0  0  0  0
  2  3  1  0  0  0  0
  3  4  1  0  0  0  0
  4  5  1  0  0  0  0
  5  6  1  0  0  0  0
  5 10  1  0  0  0  0
  6  7  1  0  0  0  0
  7  8  1  0  0  0  0
  8  9  1  0  0  0  0
  9 10  1  0  0  0  0
 11 12  4  0  0  0  0
 11 16  4  0  0  0  0
 12 13  4  0  0  0  0
 13 14  4  0  0  0  0
 13 20  1  0  0  0  0
 14 15  4  0  0  0  0
 14 17  1  0  0  0  0
 15 16  4  0  0  0  0
 17 18  1  0  0  0  0
 17 24  1  0  0  0  0
 18 19  1  0  0  0  0
 19 20  1  0  0  0  0
 19 23  1  0  0  0  0
 20 21  1  0  0  0  0
 21 22  1  0  0  0  0
 22 23  1  0  0  0  0
 24 25  4  0  0  0  0
 24 29  4  0  0  0  0
 25 26  4  0  0  0  0
 26 27  4  0  0  0  0
 27 28  4  0  0  0  0
 28 29  4  0  0  0  0
 29 30  1  0  0  0  0
M  END
>  <Name_Molregno>
408917

>  <HISTAMINE H3>
7.63

$$$$
408918
  Marvin  02231216192D 0   1.00000     0.00000     0

 32 36  0  0  1  0  0  0  0  0999 V2000
   -0.6953    0.3687    0.0000 O   0  0  0  0  0  0  0  0  0
    0.1293    0.3430    0.0000 C   0  0  0  0  0  0  0  0  0
    0.5640    1.0442    0.0000 C   0  0  0  0  0  0  0  0  0
    1.3886    1.0184    0.0000 C   0  0  0  0  0  0  0  0  0
    1.8232    1.7197    0.0000 N   0  0  0  0  0  0  0  0  0
    1.4332    2.4467    0.0000 C   0  0  0  0  0  0  0  0  0
    1.8678    3.1479    0.0000 C   0  0  0  0  0  0  0  0  0
    2.6924    3.1222    0.0000 C   0  0  0  0  0  0  0  0  0
    3.0824    2.3952    0.0000 C   0  0  0  0  0  0  0  0  0
    2.6478    1.6939    0.0000 C   0  0  0  0  0  0  0  0  0
   -1.1299   -0.3325    0.0000 C   0  0  0  0  0  0  0  0  0
   -1.9545   -0.3067    0.0000 C   0  0  0  0  0  0  0  0  0
   -2.3891   -1.0080    0.0000 C   0  0  0  0  0  0  0  0  0
   -1.9991   -1.7350    0.0000 C   0  0  0  0  0  0  0  0  0
   -1.1745   -1.7608    0.0000 C   0  0  0  0  0  0  0  0  0
   -0.7399   -1.0595    0.0000 C   0  0  0  0  0  0  0  0  0
   -2.4337   -2.4362    0.0000 C   0  0  0  0  0  0  0  0  0
   -3.2583   -2.4105    0.0000 C   0  0  0  0  0  0  0  0  0
   -3.6483   -1.6835    0.0000 N   0  0  0  0  0  0  0  0  0
   -3.2137   -0.9822    0.0000 C   0  0  0  0  0  0  0  0  0
   -3.7463   -0.3522    0.0000 C   0  0  0  0  0  0  0  0  0
   -4.5101   -0.6641    0.0000 C   0  0  0  0  0  0  0  0  0
   -4.4495   -1.4868    0.0000 C   0  0  0  0  0  0  0  0  0
   -2.0437   -3.1632    0.0000 C   0  0  0  0  0  0  0  0  0
   -1.2191   -3.1890    0.0000 C   0  0  0  0  0  0  0  0  0
   -0.8291   -3.9160    0.0000 C   0  0  0  0  0  0  0  0  0
   -1.2637   -4.6172    0.0000 C   0  0  0  0  0  0  0  0  0
   -0.8737   -5.3443    0.0000 N   0  0  0  0  0  0  0  0  0
   -1.3084   -6.0455    0.0000 C   0  0  0  0  0  0  0  0  0
   -0.0491   -5.3700    0.0000 C   0  0  0  0  0  0  0  0  0
   -2.0883   -4.5915    0.0000 C   0  0  0  0  0  0  0  0  0
   -2.4783   -3.8645    0.0000 C   0  0  0  0  0  0  0  0  0
  1  2  1  0  0  0  0
  1 11  1  0  0  0  0
  2  3  1  0  0  0  0
  3  4  1  0  0  0  0
  4  5  1  0  0  0  0
  5  6  1  0  0  0  0
  5 10  1  0  0  0  0
  6  7  1  0  0  0  0
  7  8  1  0  0  0  0
  8  9  1  0  0  0  0
  9 10  1  0  0  0  0
 11 12  4  0  0  0  0
 11 16  4  0  0  0  0
 12 13  4  0  0  0  0
 13 14  4  0  0  0  0
 13 20  1  0  0  0  0
 14 15  4  0  0  0  0
 14 17  1  0  0  0  0
 15 16  4  0  0  0  0
 17 18  1  0  0  0  0
 17 24  1  0  0  0  0
 18 19  1  0  0  0  0
 19 20  1  0  0  0  0
 19 23  1  0  0  0  0
 20 21  1  0  0  0  0
 21 22  1  0  0  0  0
 22 23  1  0  0  0  0
 24 25  4  0  0  0  0
 24 32  4  0  0  0  0
 25 26  4  0  0  0  0
 26 27  4  0  0  0  0
 27 28  1  0  0  0  0
 27 31  4  0  0  0  0
 28 29  1  0  0  0  0
 28 30  1  0  0  0  0
 31 32  4  0  0  0  0
M  END
>  <Name_Molregno>
408918

>  <HISTAMINE H3>
8.54

$$$$
410264
  Marvin  02231216192D 0   1.00000     0.00000     0

 33 35  0  0  1  0  0  0  0  0999 V2000
    4.3651    5.9767    0.0000 F   0  0  0  0  0  0  0  0  0
    4.3651    5.1517    0.0000 C   0  0  0  0  0  0  0  0  0
    3.5401    5.1517    0.0000 F   0  0  0  0  0  0  0  0  0
    5.1901    5.1517    0.0000 F   0  0  0  0  0  0  0  0  0
    4.3651    4.3267    0.0000 C   0  0  0  0  0  0  0  0  0
    5.0796    3.9142    0.0000 C   0  0  0  0  0  0  0  0  0
    5.0796    3.0892    0.0000 C   0  0  0  0  0  0  0  0  0
    4.3651    2.6767    0.0000 C   0  0  0  0  0  0  0  0  0
    4.3651    1.8517    0.0000 O   0  0  0  0  0  0  0  0  0
    5.0796    1.4392    0.0000 C   0  0  0  0  0  0  0  0  0
    5.7940    1.8517    0.0000 C   0  0  0  0  0  0  0  0  0
    6.5085    1.4392    0.0000 C   0  0  0  0  0  0  0  0  0
    7.2230    1.8517    0.0000 N   0  0  0  0  0  0  0  0  0
    7.2230    2.6767    0.0000 C   0  0  0  0  0  0  0  0  0
    7.9375    1.4392    0.0000 C   0  0  0  0  0  0  0  0  0
    5.0796    0.6142    0.0000 C   0  0  0  0  0  0  0  0  0
    5.7940    0.2017    0.0000 C   0  0  0  0  0  0  0  0  0
    5.7940   -0.6233    0.0000 C   0  0  0  0  0  0  0  0  0
    5.0796   -1.0358    0.0000 C   0  0  0  0  0  0  0  0  0
    5.0796   -1.8608    0.0000 O   0  0  0  0  0  0  0  0  0
    5.7940   -2.2733    0.0000 C   0  0  0  0  0  0  0  0  0
    5.7940   -3.0983    0.0000 C   0  0  0  0  0  0  0  0  0
    6.5085   -3.5108    0.0000 C   0  0  0  0  0  0  0  0  0
    6.5085   -4.3358    0.0000 N   0  0  0  0  0  0  0  0  0
    7.2230   -4.7483    0.0000 C   0  0  0  0  0  0  0  0  0
    7.2230   -5.5733    0.0000 C   0  0  0  0  0  0  0  0  0
    6.5085   -5.9858    0.0000 C   0  0  0  0  0  0  0  0  0
    5.7940   -5.5733    0.0000 C   0  0  0  0  0  0  0  0  0
    5.7940   -4.7483    0.0000 C   0  0  0  0  0  0  0  0  0
    4.3651   -0.6233    0.0000 C   0  0  0  0  0  0  0  0  0
    4.3651    0.2017    0.0000 C   0  0  0  0  0  0  0  0  0
    3.6506    3.0892    0.0000 C   0  0  0  0  0  0  0  0  0
    3.6506    3.9142    0.0000 C   0  0  0  0  0  0  0  0  0
  1  2  1  0  0  0  0
  2  3  1  0  0  0  0
  2  4  1  0  0  0  0
  2  5  1  0  0  0  0
  5  6  4  0  0  0  0
  5 33  4  0  0  0  0
  6  7  4  0  0  0  0
  7  8  4  0  0  0  0
  8  9  1  0  0  0  0
  8 32  4  0  0  0  0
  9 10  1  0  0  0  0
 10 11  1  0  0  0  0
 10 16  1  0  0  0  0
 11 12  1  0  0  0  0
 12 13  1  0  0  0  0
 13 14  1  0  0  0  0
 13 15  1  0  0  0  0
 16 17  4  0  0  0  0
 16 31  4  0  0  0  0
 17 18  4  0  0  0  0
 18 19  4  0  0  0  0
 19 20  1  0  0  0  0
 19 30  4  0  0  0  0
 20 21  1  0  0  0  0
 21 22  1  0  0  0  0
 22 23  1  0  0  0  0
 23 24  1  0  0  0  0
 24 25  1  0  0  0  0
 24 29  1  0  0  0  0
 25 26  1  0  0  0  0
 26 27  1  0  0  0  0
 27 28  1  0  0  0  0
 28 29  1  0  0  0  0
 30 31  4  0  0  0  0
 32 33  4  0  0  0  0
M  END
>  <Name_Molregno>
410264

>  <HISTAMINE H3>
8.57

>  <Serotonin transporter>
7.85

$$$$
410265
  Marvin  02231216192D 0   1.00000     0.00000     0

 29 31  0  0  1  0  0  0  0  0999 V2000
   -3.4549    1.0438    0.0000 O   0  0  0  0  0  0  0  0  0
   -2.7404    0.6313    0.0000 C   0  0  0  0  0  0  0  0  0
   -2.0260    1.0438    0.0000 C   0  0  0  0  0  0  0  0  0
   -1.3115    0.6313    0.0000 C   0  0  0  0  0  0  0  0  0
   -0.5970    1.0438    0.0000 N   0  0  0  0  0  0  0  0  0
   -0.5970    1.8688    0.0000 C   0  0  0  0  0  0  0  0  0
    0.1174    0.6313    0.0000 C   0  0  0  0  0  0  0  0  0
   -2.7404   -0.1937    0.0000 C   0  0  0  0  0  0  0  0  0
   -2.0260   -0.6062    0.0000 C   0  0  0  0  0  0  0  0  0
   -2.0260   -1.4312    0.0000 C   0  0  0  0  0  0  0  0  0
   -1.3115   -1.8437    0.0000 O   0  0  0  0  0  0  0  0  0
   -1.3115   -2.6687    0.0000 C   0  0  0  0  0  0  0  0  0
   -0.5970   -3.0812    0.0000 C   0  0  0  0  0  0  0  0  0
   -0.5970   -3.9062    0.0000 C   0  0  0  0  0  0  0  0  0
    0.1174   -4.3187    0.0000 N   0  0  0  0  0  0  0  0  0
    0.8319   -3.9062    0.0000 C   0  0  0  0  0  0  0  0  0
    1.5464   -4.3187    0.0000 C   0  0  0  0  0  0  0  0  0
    1.5464   -5.1437    0.0000 C   0  0  0  0  0  0  0  0  0
    0.8319   -5.5562    0.0000 C   0  0  0  0  0  0  0  0  0
    0.1174   -5.1437    0.0000 C   0  0  0  0  0  0  0  0  0
   -2.7404   -1.8437    0.0000 C   0  0  0  0  0  0  0  0  0
   -3.4549   -1.4312    0.0000 C   0  0  0  0  0  0  0  0  0
   -3.4549   -0.6062    0.0000 C   0  0  0  0  0  0  0  0  0
   -3.4549    1.8688    0.0000 C   0  0  0  0  0  0  0  0  0
   -4.1694    2.2813    0.0000 C   0  0  0  0  0  0  0  0  0
   -4.1694    3.1063    0.0000 C   0  0  0  0  0  0  0  0  0
   -3.4549    3.5188    0.0000 C   0  0  0  0  0  0  0  0  0
   -2.7404    3.1063    0.0000 C   0  0  0  0  0  0  0  0  0
   -2.7404    2.2813    0.0000 C   0  0  0  0  0  0  0  0  0
  1  2  1  0  0  0  0
  1 24  1  0  0  0  0
  2  3  1  0  0  0  0
  2  8  1  0  0  0  0
  3  4  1  0  0  0  0
  4  5  1  0  0  0  0
  5  6  1  0  0  0  0
  5  7  1  0  0  0  0
  8  9  4  0  0  0  0
  8 23  4  0  0  0  0
  9 10  4  0  0  0  0
 10 11  1  0  0  0  0
 10 21  4  0  0  0  0
 11 12  1  0  0  0  0
 12 13  1  0  0  0  0
 13 14  1  0  0  0  0
 14 15  1  0  0  0  0
 15 16  1  0  0  0  0
 15 20  1  0  0  0  0
 16 17  1  0  0  0  0
 17 18  1  0  0  0  0
 18 19  1  0  0  0  0
 19 20  1  0  0  0  0
 21 22  4  0  0  0  0
 22 23  4  0  0  0  0
 24 25  4  0  0  0  0
 24 29  4  0  0  0  0
 25 26  4  0  0  0  0
 26 27  4  0  0  0  0
 27 28  4  0  0  0  0
 28 29  4  0  0  0  0
M  END
>  <Name_Molregno>
410265

>  <HISTAMINE H3>
8.48

>  <Serotonin transporter>
6.7

$$$$
410266
  Marvin  02231216192D 0   1.00000     0.00000     0

 29 31  0  0  1  0  0  0  0  0999 V2000
    0.1031   -2.3058    0.0000 O   0  0  0  0  0  0  0  0  0
    0.8176   -1.8933    0.0000 C   0  0  0  0  0  0  0  0  0
    1.5321   -2.3058    0.0000 C   0  0  0  0  0  0  0  0  0
    2.2465   -1.8933    0.0000 C   0  0  0  0  0  0  0  0  0
    2.9610   -2.3058    0.0000 N   0  0  0  0  0  0  0  0  0
    3.6755   -1.8933    0.0000 C   0  0  0  0  0  0  0  0  0
    2.9610   -3.1308    0.0000 C   0  0  0  0  0  0  0  0  0
    0.8176   -1.0683    0.0000 C   0  0  0  0  0  0  0  0  0
    0.1031   -0.6558    0.0000 C   0  0  0  0  0  0  0  0  0
    0.1031    0.1692    0.0000 C   0  0  0  0  0  0  0  0  0
    0.8176    0.5817    0.0000 C   0  0  0  0  0  0  0  0  0
    1.5321    0.1692    0.0000 C   0  0  0  0  0  0  0  0  0
    1.5321   -0.6558    0.0000 C   0  0  0  0  0  0  0  0  0
   -0.6113   -1.8933    0.0000 C   0  0  0  0  0  0  0  0  0
   -1.3258   -2.3058    0.0000 C   0  0  0  0  0  0  0  0  0
   -2.0403   -1.8933    0.0000 C   0  0  0  0  0  0  0  0  0
   -2.0403   -1.0683    0.0000 C   0  0  0  0  0  0  0  0  0
   -2.7548   -0.6558    0.0000 O   0  0  0  0  0  0  0  0  0
   -3.4692   -1.0683    0.0000 C   0  0  0  0  0  0  0  0  0
   -4.1837   -0.6558    0.0000 C   0  0  0  0  0  0  0  0  0
   -4.8982   -1.0683    0.0000 C   0  0  0  0  0  0  0  0  0
   -5.6126   -0.6558    0.0000 N   0  0  0  0  0  0  0  0  0
   -6.3271   -1.0683    0.0000 C   0  0  0  0  0  0  0  0  0
   -7.0416   -0.6558    0.0000 C   0  0  0  0  0  0  0  0  0
   -7.0416    0.1692    0.0000 C   0  0  0  0  0  0  0  0  0
   -6.3271    0.5817    0.0000 C   0  0  0  0  0  0  0  0  0
   -5.6126    0.1692    0.0000 C   0  0  0  0  0  0  0  0  0
   -1.3258   -0.6558    0.0000 C   0  0  0  0  0  0  0  0  0
   -0.6113   -1.0683    0.0000 C   0  0  0  0  0  0  0  0  0
  1  2  1  0  0  0  0
  1 14  1  0  0  0  0
  2  3  1  0  0  0  0
  2  8  1  0  0  0  0
  3  4  1  0  0  0  0
  4  5  1  0  0  0  0
  5  6  1  0  0  0  0
  5  7  1  0  0  0  0
  8  9  4  0  0  0  0
  8 13  4  0  0  0  0
  9 10  4  0  0  0  0
 10 11  4  0  0  0  0
 11 12  4  0  0  0  0
 12 13  4  0  0  0  0
 14 15  4  0  0  0  0
 14 29  4  0  0  0  0
 15 16  4  0  0  0  0
 16 17  4  0  0  0  0
 17 18  1  0  0  0  0
 17 28  4  0  0  0  0
 18 19  1  0  0  0  0
 19 20  1  0  0  0  0
 20 21  1  0  0  0  0
 21 22  1  0  0  0  0
 22 23  1  0  0  0  0
 22 27  1  0  0  0  0
 23 24  1  0  0  0  0
 24 25  1  0  0  0  0
 25 26  1  0  0  0  0
 26 27  1  0  0  0  0
 28 29  4  0  0  0  0
M  END
>  <Name_Molregno>
410266

>  <HISTAMINE H3>
9

>  <Serotonin transporter>
6.55

$$$$
410267
  Marvin  02231216192D 0   1.00000     0.00000     0

 29 31  0  0  1  0  0  0  0  0999 V2000
   -0.2820   -0.2870    0.0000 O   0  0  0  0  0  0  0  0  0
    0.4324    0.1255    0.0000 C   0  0  0  0  0  0  0  0  0
    1.1469   -0.2870    0.0000 C   0  0  0  0  0  0  0  0  0
    1.8614    0.1255    0.0000 C   0  0  0  0  0  0  0  0  0
    2.5759   -0.2870    0.0000 N   0  0  0  0  0  0  0  0  0
    3.2903    0.1255    0.0000 C   0  0  0  0  0  0  0  0  0
    2.5759   -1.1120    0.0000 C   0  0  0  0  0  0  0  0  0
    0.4324    0.9505    0.0000 C   0  0  0  0  0  0  0  0  0
   -0.2820    1.3630    0.0000 C   0  0  0  0  0  0  0  0  0
   -0.2820    2.1880    0.0000 C   0  0  0  0  0  0  0  0  0
    0.4324    2.6005    0.0000 C   0  0  0  0  0  0  0  0  0
    1.1469    2.1880    0.0000 C   0  0  0  0  0  0  0  0  0
    1.1469    1.3630    0.0000 C   0  0  0  0  0  0  0  0  0
   -0.9965    0.1255    0.0000 C   0  0  0  0  0  0  0  0  0
   -1.7110   -0.2870    0.0000 C   0  0  0  0  0  0  0  0  0
   -2.4254    0.1255    0.0000 C   0  0  0  0  0  0  0  0  0
   -3.1399   -0.2870    0.0000 O   0  0  0  0  0  0  0  0  0
   -3.1399   -1.1120    0.0000 C   0  0  0  0  0  0  0  0  0
   -3.8544   -1.5245    0.0000 C   0  0  0  0  0  0  0  0  0
   -3.8544   -2.3495    0.0000 C   0  0  0  0  0  0  0  0  0
   -4.5689   -2.7620    0.0000 N   0  0  0  0  0  0  0  0  0
   -4.5689   -3.5870    0.0000 C   0  0  0  0  0  0  0  0  0
   -5.2833   -3.9995    0.0000 C   0  0  0  0  0  0  0  0  0
   -5.9978   -3.5870    0.0000 C   0  0  0  0  0  0  0  0  0
   -5.9978   -2.7620    0.0000 C   0  0  0  0  0  0  0  0  0
   -5.2833   -2.3495    0.0000 C   0  0  0  0  0  0  0  0  0
   -2.4254    0.9505    0.0000 C   0  0  0  0  0  0  0  0  0
   -1.7110    1.3630    0.0000 C   0  0  0  0  0  0  0  0  0
   -0.9965    0.9505    0.0000 C   0  0  0  0  0  0  0  0  0
  1  2  1  0  0  0  0
  1 14  1  0  0  0  0
  2  3  1  0  0  0  0
  2  8  1  0  0  0  0
  3  4  1  0  0  0  0
  4  5  1  0  0  0  0
  5  6  1  0  0  0  0
  5  7  1  0  0  0  0
  8  9  4  0  0  0  0
  8 13  4  0  0  0  0
  9 10  4  0  0  0  0
 10 11  4  0  0  0  0
 11 12  4  0  0  0  0
 12 13  4  0  0  0  0
 14 15  4  0  0  0  0
 14 29  4  0  0  0  0
 15 16  4  0  0  0  0
 16 17  1  0  0  0  0
 16 27  4  0  0  0  0
 17 18  1  0  0  0  0
 18 19  1  0  0  0  0
 19 20  1  0  0  0  0
 20 21  1  0  0  0  0
 21 22  1  0  0  0  0
 21 26  1  0  0  0  0
 22 23  1  0  0  0  0
 23 24  1  0  0  0  0
 24 25  1  0  0  0  0
 25 26  1  0  0  0  0
 27 28  4  0  0  0  0
 28 29  4  0  0  0  0
M  END
>  <Name_Molregno>
410267

>  <HISTAMINE H3>
9.15

>  <Serotonin transporter>
5.83

$$$$
410268
  Marvin  02231216192D 0   1.00000     0.00000     0

 29 31  0  0  1  0  0  0  0  0999 V2000
   -2.6931   -2.4177    0.0000 O   0  0  0  0  0  0  0  0  0
   -1.9786   -2.8302    0.0000 C   0  0  0  0  0  0  0  0  0
   -1.2642   -2.4177    0.0000 C   0  0  0  0  0  0  0  0  0
   -0.5497   -2.8302    0.0000 C   0  0  0  0  0  0  0  0  0
   -0.5497   -3.6552    0.0000 N   0  0  0  0  0  0  0  0  0
   -1.2642   -4.0677    0.0000 C   0  0  0  0  0  0  0  0  0
   -1.9786   -3.6552    0.0000 C   0  0  0  0  0  0  0  0  0
    0.1648   -4.0677    0.0000 C   0  0  0  0  0  0  0  0  0
    0.1648   -4.8927    0.0000 C   0  0  0  0  0  0  0  0  0
    0.8792   -3.6552    0.0000 C   0  0  0  0  0  0  0  0  0
   -2.6931   -1.5927    0.0000 C   0  0  0  0  0  0  0  0  0
   -3.4076   -1.1802    0.0000 C   0  0  0  0  0  0  0  0  0
   -3.4076   -0.3552    0.0000 C   0  0  0  0  0  0  0  0  0
   -2.6931    0.0573    0.0000 C   0  0  0  0  0  0  0  0  0
   -1.9786   -0.3552    0.0000 C   0  0  0  0  0  0  0  0  0
   -1.9786   -1.1802    0.0000 C   0  0  0  0  0  0  0  0  0
   -2.6931    0.8823    0.0000 C   0  0  0  0  0  0  0  0  0
   -3.4076    1.2948    0.0000 O   0  0  0  0  0  0  0  0  0
   -3.4076    2.1198    0.0000 C   0  0  0  0  0  0  0  0  0
   -4.1221    2.5323    0.0000 C   0  0  0  0  0  0  0  0  0
   -4.1221    3.3573    0.0000 C   0  0  0  0  0  0  0  0  0
   -3.4076    3.7698    0.0000 C   0  0  0  0  0  0  0  0  0
   -2.6931    3.3573    0.0000 C   0  0  0  0  0  0  0  0  0
   -2.6931    2.5323    0.0000 C   0  0  0  0  0  0  0  0  0
   -1.9786    1.2948    0.0000 C   0  0  0  0  0  0  0  0  0
   -1.2642    0.8823    0.0000 C   0  0  0  0  0  0  0  0  0
   -0.5497    1.2948    0.0000 N   0  0  0  0  0  0  0  0  0
   -0.5497    2.1198    0.0000 C   0  0  0  0  0  0  0  0  0
    0.1648    0.8823    0.0000 C   0  0  0  0  0  0  0  0  0
  1  2  1  0  0  0  0
  1 11  1  0  0  0  0
  2  3  1  0  0  0  0
  2  7  1  0  0  0  0
  3  4  1  0  0  0  0
  4  5  1  0  0  0  0
  5  6  1  0  0  0  0
  5  8  1  0  0  0  0
  6  7  1  0  0  0  0
  8  9  1  0  0  0  0
  8 10  1  0  0  0  0
 11 12  4  0  0  0  0
 11 16  4  0  0  0  0
 12 13  4  0  0  0  0
 13 14  4  0  0  0  0
 14 15  4  0  0  0  0
 14 17  1  0  0  0  0
 15 16  4  0  0  0  0
 17 18  1  0  0  0  0
 17 25  1  0  0  0  0
 18 19  1  0  0  0  0
 19 20  4  0  0  0  0
 19 24  4  0  0  0  0
 20 21  4  0  0  0  0
 21 22  4  0  0  0  0
 22 23  4  0  0  0  0
 23 24  4  0  0  0  0
 25 26  1  0  0  0  0
 26 27  1  0  0  0  0
 27 28  1  0  0  0  0
 27 29  1  0  0  0  0
M  END
>  <Name_Molregno>
410268

>  <HISTAMINE H3>
9.1

>  <Serotonin transporter>
6.77

$$$$
410269
  Marvin  02231216192D 0   1.00000     0.00000     0

 34 36  0  0  1  0  0  0  0  0999 V2000
    4.9239    5.5571    0.0000 F   0  0  0  0  0  0  0  0  0
    4.9239    4.7321    0.0000 C   0  0  0  0  0  0  0  0  0
    4.0989    4.7321    0.0000 F   0  0  0  0  0  0  0  0  0
    5.7489    4.7321    0.0000 F   0  0  0  0  0  0  0  0  0
    4.9239    3.9071    0.0000 C   0  0  0  0  0  0  0  0  0
    5.6384    3.4946    0.0000 C   0  0  0  0  0  0  0  0  0
    5.6384    2.6696    0.0000 C   0  0  0  0  0  0  0  0  0
    4.9239    2.2571    0.0000 C   0  0  0  0  0  0  0  0  0
    4.9239    1.4321    0.0000 O   0  0  0  0  0  0  0  0  0
    5.6384    1.0196    0.0000 C   0  0  0  0  0  0  0  0  0
    6.3528    1.4321    0.0000 C   0  0  0  0  0  0  0  0  0
    7.0673    1.0196    0.0000 C   0  0  0  0  0  0  0  0  0
    7.7818    1.4321    0.0000 N   0  0  0  0  0  0  0  0  0
    7.7818    2.2571    0.0000 C   0  0  0  0  0  0  0  0  0
    8.4962    1.0196    0.0000 C   0  0  0  0  0  0  0  0  0
    5.6384    0.1946    0.0000 C   0  0  0  0  0  0  0  0  0
    6.3528   -0.2179    0.0000 C   0  0  0  0  0  0  0  0  0
    6.3528   -1.0429    0.0000 C   0  0  0  0  0  0  0  0  0
    5.6384   -1.4554    0.0000 C   0  0  0  0  0  0  0  0  0
    4.9239   -1.0429    0.0000 C   0  0  0  0  0  0  0  0  0
    4.9239   -0.2179    0.0000 C   0  0  0  0  0  0  0  0  0
    5.6384   -2.2804    0.0000 C   0  0  0  0  0  0  0  0  0
    6.3528   -2.6929    0.0000 O   0  0  0  0  0  0  0  0  0
    4.9239   -2.6929    0.0000 N   0  0  0  0  0  0  0  0  0
    4.9239   -3.5179    0.0000 C   0  0  0  0  0  0  0  0  0
    4.2094   -3.9304    0.0000 C   0  0  0  0  0  0  0  0  0
    3.4949   -3.5179    0.0000 N   0  0  0  0  0  0  0  0  0
    3.4949   -2.6929    0.0000 C   0  0  0  0  0  0  0  0  0
    4.2094   -2.2804    0.0000 C   0  0  0  0  0  0  0  0  0
    2.7805   -3.9304    0.0000 C   0  0  0  0  0  0  0  0  0
    2.7805   -4.7554    0.0000 C   0  0  0  0  0  0  0  0  0
    2.0660   -3.5179    0.0000 C   0  0  0  0  0  0  0  0  0
    4.2094    2.6696    0.0000 C   0  0  0  0  0  0  0  0  0
    4.2094    3.4946    0.0000 C   0  0  0  0  0  0  0  0  0
  1  2  1  0  0  0  0
  2  3  1  0  0  0  0
  2  4  1  0  0  0  0
  2  5  1  0  0  0  0
  5  6  4  0  0  0  0
  5 34  4  0  0  0  0
  6  7  4  0  0  0  0
  7  8  4  0  0  0  0
  8  9  1  0  0  0  0
  8 33  4  0  0  0  0
  9 10  1  0  0  0  0
 10 11  1  0  0  0  0
 10 16  1  0  0  0  0
 11 12  1  0  0  0  0
 12 13  1  0  0  0  0
 13 14  1  0  0  0  0
 13 15  1  0  0  0  0
 16 17  4  0  0  0  0
 16 21  4  0  0  0  0
 17 18  4  0  0  0  0
 18 19  4  0  0  0  0
 19 20  4  0  0  0  0
 19 22  1  0  0  0  0
 20 21  4  0  0  0  0
 22 23  2  0  0  0  0
 22 24  1  0  0  0  0
 24 25  1  0  0  0  0
 24 29  1  0  0  0  0
 25 26  1  0  0  0  0
 26 27  1  0  0  0  0
 27 28  1  0  0  0  0
 27 30  1  0  0  0  0
 28 29  1  0  0  0  0
 30 31  1  0  0  0  0
 30 32  1  0  0  0  0
 33 34  4  0  0  0  0
M  END
>  <Name_Molregno>
410269

>  <HISTAMINE H3>
8.64

>  <Serotonin transporter>
7.38

$$$$
410270
  Marvin  02231216192D 0   1.00000     0.00000     0

 30 32  0  0  1  0  0  0  0  0999 V2000
   -1.6697    0.6802    0.0000 O   0  0  0  0  0  0  0  0  0
   -0.9552    0.2677    0.0000 C   0  0  0  0  0  0  0  0  0
   -0.2407    0.6802    0.0000 C   0  0  0  0  0  0  0  0  0
    0.4737    0.2677    0.0000 C   0  0  0  0  0  0  0  0  0
    1.1882    0.6802    0.0000 N   0  0  0  0  0  0  0  0  0
    1.1882    1.5052    0.0000 C   0  0  0  0  0  0  0  0  0
    1.9027    0.2677    0.0000 C   0  0  0  0  0  0  0  0  0
   -0.9552   -0.5573    0.0000 C   0  0  0  0  0  0  0  0  0
   -0.2407   -0.9698    0.0000 C   0  0  0  0  0  0  0  0  0
   -0.2407   -1.7948    0.0000 C   0  0  0  0  0  0  0  0  0
   -0.9552   -2.2073    0.0000 C   0  0  0  0  0  0  0  0  0
   -1.6697   -1.7948    0.0000 C   0  0  0  0  0  0  0  0  0
   -1.6697   -0.9698    0.0000 C   0  0  0  0  0  0  0  0  0
   -0.9552   -3.0323    0.0000 C   0  0  0  0  0  0  0  0  0
   -0.2407   -3.4448    0.0000 O   0  0  0  0  0  0  0  0  0
   -1.6697   -3.4448    0.0000 N   0  0  0  0  0  0  0  0  0
   -1.6697   -4.2698    0.0000 C   0  0  0  0  0  0  0  0  0
   -2.3841   -4.6823    0.0000 C   0  0  0  0  0  0  0  0  0
   -3.0986   -4.2698    0.0000 N   0  0  0  0  0  0  0  0  0
   -3.0986   -3.4448    0.0000 C   0  0  0  0  0  0  0  0  0
   -2.3841   -3.0323    0.0000 C   0  0  0  0  0  0  0  0  0
   -3.8131   -4.6823    0.0000 C   0  0  0  0  0  0  0  0  0
   -4.5275   -4.2698    0.0000 C   0  0  0  0  0  0  0  0  0
   -3.8131   -5.5073    0.0000 C   0  0  0  0  0  0  0  0  0
   -1.6697    1.5052    0.0000 C   0  0  0  0  0  0  0  0  0
   -2.3841    1.9177    0.0000 C   0  0  0  0  0  0  0  0  0
   -2.3841    2.7427    0.0000 C   0  0  0  0  0  0  0  0  0
   -1.6697    3.1552    0.0000 C   0  0  0  0  0  0  0  0  0
   -0.9552    2.7427    0.0000 C   0  0  0  0  0  0  0  0  0
   -0.9552    1.9177    0.0000 C   0  0  0  0  0  0  0  0  0
  1  2  1  0  0  0  0
  1 25  1  0  0  0  0
  2  3  1  0  0  0  0
  2  8  1  0  0  0  0
  3  4  1  0  0  0  0
  4  5  1  0  0  0  0
  5  6  1  0  0  0  0
  5  7  1  0  0  0  0
  8  9  4  0  0  0  0
  8 13  4  0  0  0  0
  9 10  4  0  0  0  0
 10 11  4  0  0  0  0
 11 12  4  0  0  0  0
 11 14  1  0  0  0  0
 12 13  4  0  0  0  0
 14 15  2  0  0  0  0
 14 16  1  0  0  0  0
 16 17  1  0  0  0  0
 16 21  1  0  0  0  0
 17 18  1  0  0  0  0
 18 19  1  0  0  0  0
 19 20  1  0  0  0  0
 19 22  1  0  0  0  0
 20 21  1  0  0  0  0
 22 23  1  0  0  0  0
 22 24  1  0  0  0  0
 25 26  4  0  0  0  0
 25 30  4  0  0  0  0
 26 27  4  0  0  0  0
 27 28  4  0  0  0  0
 28 29  4  0  0  0  0
 29 30  4  0  0  0  0
M  END
>  <Name_Molregno>
410270

>  <HISTAMINE H3>
9.1

>  <Serotonin transporter>
6.61

$$$$
410271
  Marvin  02231216192D 0   1.00000     0.00000     0

 33 35  0  0  1  0  0  0  0  0999 V2000
   -5.7878    4.7646    0.0000 F   0  0  0  0  0  0  0  0  0
   -5.7878    3.9396    0.0000 C   0  0  0  0  0  0  0  0  0
   -6.6128    3.9396    0.0000 F   0  0  0  0  0  0  0  0  0
   -4.9628    3.9396    0.0000 F   0  0  0  0  0  0  0  0  0
   -5.7878    3.1146    0.0000 C   0  0  0  0  0  0  0  0  0
   -5.0733    2.7021    0.0000 C   0  0  0  0  0  0  0  0  0
   -5.0733    1.8771    0.0000 C   0  0  0  0  0  0  0  0  0
   -5.7878    1.4646    0.0000 C   0  0  0  0  0  0  0  0  0
   -5.7878    0.6396    0.0000 O   0  0  0  0  0  0  0  0  0
   -5.0733    0.2271    0.0000 C   0  0  0  0  0  0  0  0  0
   -4.3589    0.6396    0.0000 C   0  0  0  0  0  0  0  0  0
   -3.6444    0.2271    0.0000 C   0  0  0  0  0  0  0  0  0
   -2.9299    0.6396    0.0000 N   0  0  0  0  0  0  0  0  0
   -2.9299    1.4646    0.0000 C   0  0  0  0  0  0  0  0  0
   -2.2155    0.2271    0.0000 C   0  0  0  0  0  0  0  0  0
   -5.0733   -0.5979    0.0000 C   0  0  0  0  0  0  0  0  0
   -4.3589   -1.0104    0.0000 C   0  0  0  0  0  0  0  0  0
   -4.3589   -1.8354    0.0000 C   0  0  0  0  0  0  0  0  0
   -5.0733   -2.2479    0.0000 C   0  0  0  0  0  0  0  0  0
   -5.7878   -1.8354    0.0000 C   0  0  0  0  0  0  0  0  0
   -5.7878   -1.0104    0.0000 C   0  0  0  0  0  0  0  0  0
   -5.0733   -3.0729    0.0000 C   0  0  0  0  0  0  0  0  0
   -5.0733   -3.8979    0.0000 C   0  0  0  0  0  0  0  0  0
   -5.0733   -4.7229    0.0000 C   0  0  0  0  0  0  0  0  0
   -4.3589   -5.1354    0.0000 C   0  0  0  0  0  0  0  0  0
   -4.3589   -5.9604    0.0000 N   0  0  0  0  0  0  0  0  0
   -3.6444   -6.3729    0.0000 C   0  0  0  0  0  0  0  0  0
   -3.6444   -7.1979    0.0000 C   0  0  0  0  0  0  0  0  0
   -4.3589   -7.6104    0.0000 C   0  0  0  0  0  0  0  0  0
   -5.0733   -7.1979    0.0000 C   0  0  0  0  0  0  0  0  0
   -5.0733   -6.3729    0.0000 C   0  0  0  0  0  0  0  0  0
   -6.5023    1.8771    0.0000 C   0  0  0  0  0  0  0  0  0
   -6.5023    2.7021    0.0000 C   0  0  0  0  0  0  0  0  0
  1  2  1  0  0  0  0
  2  3  1  0  0  0  0
  2  4  1  0  0  0  0
  2  5  1  0  0  0  0
  5  6  4  0  0  0  0
  5 33  4  0  0  0  0
  6  7  4  0  0  0  0
  7  8  4  0  0  0  0
  8  9  1  0  0  0  0
  8 32  4  0  0  0  0
  9 10  1  0  0  0  0
 10 11  1  0  0  0  0
 10 16  1  0  0  0  0
 11 12  1  0  0  0  0
 12 13  1  0  0  0  0
 13 14  1  0  0  0  0
 13 15  1  0  0  0  0
 16 17  4  0  0  0  0
 16 21  4  0  0  0  0
 17 18  4  0  0  0  0
 18 19  4  0  0  0  0
 19 20  4  0  0  0  0
 19 22  1  0  0  0  0
 20 21  4  0  0  0  0
 22 23  3  0  0  0  0
 23 24  1  0  0  0  0
 24 25  1  0  0  0  0
 25 26  1  0  0  0  0
 26 27  1  0  0  0  0
 26 31  1  0  0  0  0
 27 28  1  0  0  0  0
 28 29  1  0  0  0  0
 29 30  1  0  0  0  0
 30 31  1  0  0  0  0
 32 33  4  0  0  0  0
M  END
>  <Name_Molregno>
410271

>  <HISTAMINE H3>
8.3

>  <Serotonin transporter>
7.21

$$$$
410272
  Marvin  02231216192D 0   1.00000     0.00000     0

 29 31  0  0  1  0  0  0  0  0999 V2000
   -2.9303    1.6194    0.0000 O   0  0  0  0  0  0  0  0  0
   -2.2159    1.2069    0.0000 C   0  0  0  0  0  0  0  0  0
   -1.5014    1.6194    0.0000 C   0  0  0  0  0  0  0  0  0
   -0.7869    1.2069    0.0000 C   0  0  0  0  0  0  0  0  0
   -0.0725    1.6194    0.0000 N   0  0  0  0  0  0  0  0  0
   -0.0725    2.4444    0.0000 C   0  0  0  0  0  0  0  0  0
    0.6420    1.2069    0.0000 C   0  0  0  0  0  0  0  0  0
   -2.2159    0.3819    0.0000 C   0  0  0  0  0  0  0  0  0
   -1.5014   -0.0306    0.0000 C   0  0  0  0  0  0  0  0  0
   -1.5014   -0.8556    0.0000 C   0  0  0  0  0  0  0  0  0
   -2.2159   -1.2681    0.0000 C   0  0  0  0  0  0  0  0  0
   -2.9303   -0.8556    0.0000 C   0  0  0  0  0  0  0  0  0
   -2.9303   -0.0306    0.0000 C   0  0  0  0  0  0  0  0  0
   -2.2159   -2.0931    0.0000 C   0  0  0  0  0  0  0  0  0
   -2.2159   -2.9181    0.0000 C   0  0  0  0  0  0  0  0  0
   -2.2159   -3.7431    0.0000 C   0  0  0  0  0  0  0  0  0
   -2.9303   -4.1556    0.0000 C   0  0  0  0  0  0  0  0  0
   -2.9303   -4.9806    0.0000 N   0  0  0  0  0  0  0  0  0
   -2.2159   -5.3931    0.0000 C   0  0  0  0  0  0  0  0  0
   -2.2159   -6.2181    0.0000 C   0  0  0  0  0  0  0  0  0
   -2.9303   -6.6306    0.0000 C   0  0  0  0  0  0  0  0  0
   -3.6448   -6.2181    0.0000 C   0  0  0  0  0  0  0  0  0
   -3.6448   -5.3931    0.0000 C   0  0  0  0  0  0  0  0  0
   -2.9303    2.4444    0.0000 C   0  0  0  0  0  0  0  0  0
   -3.6448    2.8569    0.0000 C   0  0  0  0  0  0  0  0  0
   -3.6448    3.6819    0.0000 C   0  0  0  0  0  0  0  0  0
   -2.9303    4.0944    0.0000 C   0  0  0  0  0  0  0  0  0
   -2.2159    3.6819    0.0000 C   0  0  0  0  0  0  0  0  0
   -2.2159    2.8569    0.0000 C   0  0  0  0  0  0  0  0  0
  1  2  1  0  0  0  0
  1 24  1  0  0  0  0
  2  3  1  0  0  0  0
  2  8  1  0  0  0  0
  3  4  1  0  0  0  0
  4  5  1  0  0  0  0
  5  6  1  0  0  0  0
  5  7  1  0  0  0  0
  8  9  4  0  0  0  0
  8 13  4  0  0  0  0
  9 10  4  0  0  0  0
 10 11  4  0  0  0  0
 11 12  4  0  0  0  0
 11 14  1  0  0  0  0
 12 13  4  0  0  0  0
 14 15  3  0  0  0  0
 15 16  1  0  0  0  0
 16 17  1  0  0  0  0
 17 18  1  0  0  0  0
 18 19  1  0  0  0  0
 18 23  1  0  0  0  0
 19 20  1  0  0  0  0
 20 21  1  0  0  0  0
 21 22  1  0  0  0  0
 22 23  1  0  0  0  0
 24 25  4  0  0  0  0
 24 29  4  0  0  0  0
 25 26  4  0  0  0  0
 26 27  4  0  0  0  0
 27 28  4  0  0  0  0
 28 29  4  0  0  0  0
M  END
>  <Name_Molregno>
410272

>  <HISTAMINE H3>
8.89

>  <Serotonin transporter>
7.54

$$$$
410273
  Marvin  02231216192D 0   1.00000     0.00000     0

 31 33  0  0  1  0  0  0  0  0999 V2000
   -6.1309    5.4949    0.0000 S   0  0  0  0  0  0  0  0  0
   -6.8454    5.9074    0.0000 C   0  0  0  0  0  0  0  0  0
   -6.1309    4.6699    0.0000 C   0  0  0  0  0  0  0  0  0
   -5.4164    4.2574    0.0000 C   0  0  0  0  0  0  0  0  0
   -5.4164    3.4324    0.0000 C   0  0  0  0  0  0  0  0  0
   -6.1309    3.0199    0.0000 C   0  0  0  0  0  0  0  0  0
   -6.1309    2.1949    0.0000 O   0  0  0  0  0  0  0  0  0
   -5.4164    1.7824    0.0000 C   0  0  0  0  0  0  0  0  0
   -4.7019    2.1949    0.0000 C   0  0  0  0  0  0  0  0  0
   -3.9875    1.7824    0.0000 C   0  0  0  0  0  0  0  0  0
   -3.2730    2.1949    0.0000 N   0  0  0  0  0  0  0  0  0
   -3.2730    3.0199    0.0000 C   0  0  0  0  0  0  0  0  0
   -2.5585    1.7824    0.0000 C   0  0  0  0  0  0  0  0  0
   -5.4164    0.9574    0.0000 C   0  0  0  0  0  0  0  0  0
   -4.7019    0.5449    0.0000 C   0  0  0  0  0  0  0  0  0
   -4.7019   -0.2801    0.0000 C   0  0  0  0  0  0  0  0  0
   -5.4164   -0.6926    0.0000 C   0  0  0  0  0  0  0  0  0
   -5.4164   -1.5176    0.0000 O   0  0  0  0  0  0  0  0  0
   -4.7019   -1.9301    0.0000 C   0  0  0  0  0  0  0  0  0
   -4.7019   -2.7551    0.0000 C   0  0  0  0  0  0  0  0  0
   -3.9875   -3.1676    0.0000 C   0  0  0  0  0  0  0  0  0
   -3.9875   -3.9926    0.0000 N   0  0  0  0  0  0  0  0  0
   -3.2730   -4.4051    0.0000 C   0  0  0  0  0  0  0  0  0
   -3.2730   -5.2301    0.0000 C   0  0  0  0  0  0  0  0  0
   -3.9875   -5.6426    0.0000 C   0  0  0  0  0  0  0  0  0
   -4.7019   -5.2301    0.0000 C   0  0  0  0  0  0  0  0  0
   -4.7019   -4.4051    0.0000 C   0  0  0  0  0  0  0  0  0
   -6.1309   -0.2801    0.0000 C   0  0  0  0  0  0  0  0  0
   -6.1309    0.5449    0.0000 C   0  0  0  0  0  0  0  0  0
   -6.8454    3.4324    0.0000 C   0  0  0  0  0  0  0  0  0
   -6.8454    4.2574    0.0000 C   0  0  0  0  0  0  0  0  0
  1  2  1  0  0  0  0
  1  3  1  0  0  0  0
  3  4  4  0  0  0  0
  3 31  4  0  0  0  0
  4  5  4  0  0  0  0
  5  6  4  0  0  0  0
  6  7  1  0  0  0  0
  6 30  4  0  0  0  0
  7  8  1  0  0  0  0
  8  9  1  0  0  0  0
  8 14  1  0  0  0  0
  9 10  1  0  0  0  0
 10 11  1  0  0  0  0
 11 12  1  0  0  0  0
 11 13  1  0  0  0  0
 14 15  4  0  0  0  0
 14 29  4  0  0  0  0
 15 16  4  0  0  0  0
 16 17  4  0  0  0  0
 17 18  1  0  0  0  0
 17 28  4  0  0  0  0
 18 19  1  0  0  0  0
 19 20  1  0  0  0  0
 20 21  1  0  0  0  0
 21 22  1  0  0  0  0
 22 23  1  0  0  0  0
 22 27  1  0  0  0  0
 23 24  1  0  0  0  0
 24 25  1  0  0  0  0
 25 26  1  0  0  0  0
 26 27  1  0  0  0  0
 28 29  4  0  0  0  0
 30 31  4  0  0  0  0
M  END
>  <Name_Molregno>
410273

>  <HISTAMINE H3>
9.05

>  <Serotonin transporter>
8

$$$$
410274
  Marvin  02231216192D 0   1.00000     0.00000     0

 30 32  0  0  1  0  0  0  0  0999 V2000
   -2.3961    1.5602    0.0000 O   0  0  0  0  0  0  0  0  0
   -1.6816    1.1477    0.0000 C   0  0  0  0  0  0  0  0  0
   -0.9671    1.5602    0.0000 C   0  0  0  0  0  0  0  0  0
   -0.2527    1.1477    0.0000 C   0  0  0  0  0  0  0  0  0
    0.4618    1.5602    0.0000 N   0  0  0  0  0  0  0  0  0
    0.4618    2.3852    0.0000 C   0  0  0  0  0  0  0  0  0
    1.1763    1.1477    0.0000 C   0  0  0  0  0  0  0  0  0
   -1.6816    0.3227    0.0000 C   0  0  0  0  0  0  0  0  0
   -0.9671   -0.0898    0.0000 C   0  0  0  0  0  0  0  0  0
   -0.9671   -0.9148    0.0000 C   0  0  0  0  0  0  0  0  0
   -1.6816   -1.3273    0.0000 C   0  0  0  0  0  0  0  0  0
   -1.6816   -2.1523    0.0000 O   0  0  0  0  0  0  0  0  0
   -2.3961   -2.5648    0.0000 C   0  0  0  0  0  0  0  0  0
   -2.3961   -3.3898    0.0000 C   0  0  0  0  0  0  0  0  0
   -3.1106   -3.8023    0.0000 C   0  0  0  0  0  0  0  0  0
   -3.1106   -4.6273    0.0000 N   0  0  0  0  0  0  0  0  0
   -2.3961   -5.0398    0.0000 C   0  0  0  0  0  0  0  0  0
   -2.3961   -5.8648    0.0000 C   0  0  0  0  0  0  0  0  0
   -3.1106   -6.2773    0.0000 C   0  0  0  0  0  0  0  0  0
   -3.8250   -5.8648    0.0000 C   0  0  0  0  0  0  0  0  0
   -3.8250   -5.0398    0.0000 C   0  0  0  0  0  0  0  0  0
   -2.3961   -0.9148    0.0000 C   0  0  0  0  0  0  0  0  0
   -2.3961   -0.0898    0.0000 C   0  0  0  0  0  0  0  0  0
   -2.3961    2.3852    0.0000 C   0  0  0  0  0  0  0  0  0
   -3.1106    2.7977    0.0000 C   0  0  0  0  0  0  0  0  0
   -3.1106    3.6227    0.0000 C   0  0  0  0  0  0  0  0  0
   -2.3961    4.0352    0.0000 C   0  0  0  0  0  0  0  0  0
   -1.6816    3.6227    0.0000 C   0  0  0  0  0  0  0  0  0
   -1.6816    2.7977    0.0000 C   0  0  0  0  0  0  0  0  0
   -2.3961    4.8602    0.0000 C   0  0  0  0  0  0  0  0  0
  1  2  1  0  0  0  0
  1 24  1  0  0  0  0
  2  3  1  0  0  0  0
  2  8  1  0  0  0  0
  3  4  1  0  0  0  0
  4  5  1  0  0  0  0
  5  6  1  0  0  0  0
  5  7  1  0  0  0  0
  8  9  4  0  0  0  0
  8 23  4  0  0  0  0
  9 10  4  0  0  0  0
 10 11  4  0  0  0  0
 11 12  1  0  0  0  0
 11 22  4  0  0  0  0
 12 13  1  0  0  0  0
 13 14  1  0  0  0  0
 14 15  1  0  0  0  0
 15 16  1  0  0  0  0
 16 17  1  0  0  0  0
 16 21  1  0  0  0  0
 17 18  1  0  0  0  0
 18 19  1  0  0  0  0
 19 20  1  0  0  0  0
 20 21  1  0  0  0  0
 22 23  4  0  0  0  0
 24 25  4  0  0  0  0
 24 29  4  0  0  0  0
 25 26  4  0  0  0  0
 26 27  4  0  0  0  0
 27 28  4  0  0  0  0
 27 30  1  0  0  0  0
 28 29  4  0  0  0  0
M  END
>  <Name_Molregno>
410274

>  <HISTAMINE H3>
9.15

>  <Serotonin transporter>
7.8

$$$$
410275
  Marvin  02231216192D 0   1.00000     0.00000     0

 31 33  0  0  1  0  0  0  0  0999 V2000
    1.3494    1.4122    0.0000 O   0  0  0  0  0  0  0  0  0
    2.0638    0.9997    0.0000 C   0  0  0  0  0  0  0  0  0
    2.7783    1.4122    0.0000 C   0  0  0  0  0  0  0  0  0
    3.4928    0.9997    0.0000 C   0  0  0  0  0  0  0  0  0
    4.2073    1.4122    0.0000 N   0  0  0  0  0  0  0  0  0
    4.2073    2.2372    0.0000 C   0  0  0  0  0  0  0  0  0
    4.9217    0.9997    0.0000 C   0  0  0  0  0  0  0  0  0
    2.0638    0.1747    0.0000 C   0  0  0  0  0  0  0  0  0
    2.7783   -0.2378    0.0000 C   0  0  0  0  0  0  0  0  0
    2.7783   -1.0628    0.0000 C   0  0  0  0  0  0  0  0  0
    2.0638   -1.4753    0.0000 C   0  0  0  0  0  0  0  0  0
    2.0638   -2.3003    0.0000 O   0  0  0  0  0  0  0  0  0
    1.3494   -2.7128    0.0000 C   0  0  0  0  0  0  0  0  0
    1.3494   -3.5378    0.0000 C   0  0  0  0  0  0  0  0  0
    0.6349   -3.9503    0.0000 C   0  0  0  0  0  0  0  0  0
    0.6349   -4.7753    0.0000 N   0  0  0  0  0  0  0  0  0
    1.3494   -5.1878    0.0000 C   0  0  0  0  0  0  0  0  0
    1.3494   -6.0128    0.0000 C   0  0  0  0  0  0  0  0  0
    0.6349   -6.4253    0.0000 C   0  0  0  0  0  0  0  0  0
   -0.0796   -6.0128    0.0000 C   0  0  0  0  0  0  0  0  0
   -0.0796   -5.1878    0.0000 C   0  0  0  0  0  0  0  0  0
    1.3494   -1.0628    0.0000 C   0  0  0  0  0  0  0  0  0
    1.3494   -0.2378    0.0000 C   0  0  0  0  0  0  0  0  0
    1.3494    2.2372    0.0000 C   0  0  0  0  0  0  0  0  0
    0.6349    2.6497    0.0000 C   0  0  0  0  0  0  0  0  0
    0.6349    3.4747    0.0000 C   0  0  0  0  0  0  0  0  0
    1.3494    3.8872    0.0000 C   0  0  0  0  0  0  0  0  0
    1.3494    4.7122    0.0000 O   0  0  0  0  0  0  0  0  0
    0.6349    5.1247    0.0000 C   0  0  0  0  0  0  0  0  0
    2.0638    3.4747    0.0000 C   0  0  0  0  0  0  0  0  0
    2.0638    2.6497    0.0000 C   0  0  0  0  0  0  0  0  0
  1  2  1  0  0  0  0
  1 24  1  0  0  0  0
  2  3  1  0  0  0  0
  2  8  1  0  0  0  0
  3  4  1  0  0  0  0
  4  5  1  0  0  0  0
  5  6  1  0  0  0  0
  5  7  1  0  0  0  0
  8  9  4  0  0  0  0
  8 23  4  0  0  0  0
  9 10  4  0  0  0  0
 10 11  4  0  0  0  0
 11 12  1  0  0  0  0
 11 22  4  0  0  0  0
 12 13  1  0  0  0  0
 13 14  1  0  0  0  0
 14 15  1  0  0  0  0
 15 16  1  0  0  0  0
 16 17  1  0  0  0  0
 16 21  1  0  0  0  0
 17 18  1  0  0  0  0
 18 19  1  0  0  0  0
 19 20  1  0  0  0  0
 20 21  1  0  0  0  0
 22 23  4  0  0  0  0
 24 25  4  0  0  0  0
 24 31  4  0  0  0  0
 25 26  4  0  0  0  0
 26 27  4  0  0  0  0
 27 28  1  0  0  0  0
 27 30  4  0  0  0  0
 28 29  1  0  0  0  0
 30 31  4  0  0  0  0
M  END
>  <Name_Molregno>
410275

>  <HISTAMINE H3>
9

>  <Serotonin transporter>
7.22

$$$$
410276
  Marvin  02231216192D 0   1.00000     0.00000     0

 31 33  0  0  1  0  0  0  0  0999 V2000
    1.4584    1.5270    0.0000 O   0  0  0  0  0  0  0  0  0
    2.1729    1.1145    0.0000 C   0  0  0  0  0  0  0  0  0
    2.8874    1.5270    0.0000 C   0  0  0  0  0  0  0  0  0
    3.6018    1.1145    0.0000 C   0  0  0  0  0  0  0  0  0
    4.3163    1.5270    0.0000 N   0  0  0  0  0  0  0  0  0
    4.3163    2.3520    0.0000 C   0  0  0  0  0  0  0  0  0
    5.0308    1.1145    0.0000 C   0  0  0  0  0  0  0  0  0
    2.1729    0.2895    0.0000 C   0  0  0  0  0  0  0  0  0
    2.8874   -0.1230    0.0000 C   0  0  0  0  0  0  0  0  0
    2.8874   -0.9480    0.0000 C   0  0  0  0  0  0  0  0  0
    2.1729   -1.3605    0.0000 C   0  0  0  0  0  0  0  0  0
    2.1729   -2.1855    0.0000 O   0  0  0  0  0  0  0  0  0
    1.4584   -2.5980    0.0000 C   0  0  0  0  0  0  0  0  0
    1.4584   -3.4230    0.0000 C   0  0  0  0  0  0  0  0  0
    0.7439   -3.8355    0.0000 C   0  0  0  0  0  0  0  0  0
    0.7439   -4.6605    0.0000 N   0  0  0  0  0  0  0  0  0
    1.4584   -5.0730    0.0000 C   0  0  0  0  0  0  0  0  0
    1.4584   -5.8980    0.0000 C   0  0  0  0  0  0  0  0  0
    0.7439   -6.3105    0.0000 C   0  0  0  0  0  0  0  0  0
    0.0295   -5.8980    0.0000 C   0  0  0  0  0  0  0  0  0
    0.0295   -5.0730    0.0000 C   0  0  0  0  0  0  0  0  0
    1.4584   -0.9480    0.0000 C   0  0  0  0  0  0  0  0  0
    1.4584   -0.1230    0.0000 C   0  0  0  0  0  0  0  0  0
    1.4584    2.3520    0.0000 C   0  0  0  0  0  0  0  0  0
    0.7439    2.7645    0.0000 C   0  0  0  0  0  0  0  0  0
    0.7439    3.5895    0.0000 C   0  0  0  0  0  0  0  0  0
    0.0295    4.0020    0.0000 O   0  0  0  0  0  0  0  0  0
    0.0295    4.8270    0.0000 C   0  0  0  0  0  0  0  0  0
    1.4584    4.0020    0.0000 C   0  0  0  0  0  0  0  0  0
    2.1729    3.5895    0.0000 C   0  0  0  0  0  0  0  0  0
    2.1729    2.7645    0.0000 C   0  0  0  0  0  0  0  0  0
  1  2  1  0  0  0  0
  1 24  1  0  0  0  0
  2  3  1  0  0  0  0
  2  8  1  0  0  0  0
  3  4  1  0  0  0  0
  4  5  1  0  0  0  0
  5  6  1  0  0  0  0
  5  7  1  0  0  0  0
  8  9  4  0  0  0  0
  8 23  4  0  0  0  0
  9 10  4  0  0  0  0
 10 11  4  0  0  0  0
 11 12  1  0  0  0  0
 11 22  4  0  0  0  0
 12 13  1  0  0  0  0
 13 14  1  0  0  0  0
 14 15  1  0  0  0  0
 15 16  1  0  0  0  0
 16 17  1  0  0  0  0
 16 21  1  0  0  0  0
 17 18  1  0  0  0  0
 18 19  1  0  0  0  0
 19 20  1  0  0  0  0
 20 21  1  0  0  0  0
 22 23  4  0  0  0  0
 24 25  4  0  0  0  0
 24 31  4  0  0  0  0
 25 26  4  0  0  0  0
 26 27  1  0  0  0  0
 26 29  4  0  0  0  0
 27 28  1  0  0  0  0
 29 30  4  0  0  0  0
 30 31  4  0  0  0  0
M  END
>  <Name_Molregno>
410276

>  <HISTAMINE H3>
9.15

>  <Serotonin transporter>
7.96

$$$$
410277
  Marvin  02231216192D 0   1.00000     0.00000     0

 30 32  0  0  1  0  0  0  0  0999 V2000
    3.9433    4.8721    0.0000 F   0  0  0  0  0  0  0  0  0
    3.9433    4.0471    0.0000 C   0  0  0  0  0  0  0  0  0
    4.6577    3.6346    0.0000 C   0  0  0  0  0  0  0  0  0
    4.6577    2.8096    0.0000 C   0  0  0  0  0  0  0  0  0
    3.9433    2.3971    0.0000 C   0  0  0  0  0  0  0  0  0
    3.9433    1.5721    0.0000 O   0  0  0  0  0  0  0  0  0
    4.6577    1.1596    0.0000 C   0  0  0  0  0  0  0  0  0
    5.3722    1.5721    0.0000 C   0  0  0  0  0  0  0  0  0
    6.0867    1.1596    0.0000 C   0  0  0  0  0  0  0  0  0
    6.8012    1.5721    0.0000 N   0  0  0  0  0  0  0  0  0
    6.8012    2.3971    0.0000 C   0  0  0  0  0  0  0  0  0
    7.5156    1.1596    0.0000 C   0  0  0  0  0  0  0  0  0
    4.6577    0.3346    0.0000 C   0  0  0  0  0  0  0  0  0
    5.3722   -0.0779    0.0000 C   0  0  0  0  0  0  0  0  0
    5.3722   -0.9029    0.0000 C   0  0  0  0  0  0  0  0  0
    4.6577   -1.3154    0.0000 C   0  0  0  0  0  0  0  0  0
    4.6577   -2.1404    0.0000 O   0  0  0  0  0  0  0  0  0
    5.3722   -2.5529    0.0000 C   0  0  0  0  0  0  0  0  0
    5.3722   -3.3779    0.0000 C   0  0  0  0  0  0  0  0  0
    6.0867   -3.7904    0.0000 C   0  0  0  0  0  0  0  0  0
    6.0867   -4.6154    0.0000 N   0  0  0  0  0  0  0  0  0
    6.8012   -5.0279    0.0000 C   0  0  0  0  0  0  0  0  0
    6.8012   -5.8529    0.0000 C   0  0  0  0  0  0  0  0  0
    6.0867   -6.2654    0.0000 C   0  0  0  0  0  0  0  0  0
    5.3722   -5.8529    0.0000 C   0  0  0  0  0  0  0  0  0
    5.3722   -5.0279    0.0000 C   0  0  0  0  0  0  0  0  0
    3.9433   -0.9029    0.0000 C   0  0  0  0  0  0  0  0  0
    3.9433   -0.0779    0.0000 C   0  0  0  0  0  0  0  0  0
    3.2288    2.8096    0.0000 C   0  0  0  0  0  0  0  0  0
    3.2288    3.6346    0.0000 C   0  0  0  0  0  0  0  0  0
  1  2  1  0  0  0  0
  2  3  4  0  0  0  0
  2 30  4  0  0  0  0
  3  4  4  0  0  0  0
  4  5  4  0  0  0  0
  5  6  1  0  0  0  0
  5 29  4  0  0  0  0
  6  7  1  0  0  0  0
  7  8  1  0  0  0  0
  7 13  1  0  0  0  0
  8  9  1  0  0  0  0
  9 10  1  0  0  0  0
 10 11  1  0  0  0  0
 10 12  1  0  0  0  0
 13 14  4  0  0  0  0
 13 28  4  0  0  0  0
 14 15  4  0  0  0  0
 15 16  4  0  0  0  0
 16 17  1  0  0  0  0
 16 27  4  0  0  0  0
 17 18  1  0  0  0  0
 18 19  1  0  0  0  0
 19 20  1  0  0  0  0
 20 21  1  0  0  0  0
 21 22  1  0  0  0  0
 21 26  1  0  0  0  0
 22 23  1  0  0  0  0
 23 24  1  0  0  0  0
 24 25  1  0  0  0  0
 25 26  1  0  0  0  0
 27 28  4  0  0  0  0
 29 30  4  0  0  0  0
M  END
>  <Name_Molregno>
410277

>  <HISTAMINE H3>
9

>  <Serotonin transporter>
7.34

$$$$
410278
  Marvin  02231216192D 0   1.00000     0.00000     0

 30 32  0  0  1  0  0  0  0  0999 V2000
    3.9433    4.8721    0.0000 Cl  0  0  0  0  0  0  0  0  0
    3.9433    4.0471    0.0000 C   0  0  0  0  0  0  0  0  0
    4.6577    3.6346    0.0000 C   0  0  0  0  0  0  0  0  0
    4.6577    2.8096    0.0000 C   0  0  0  0  0  0  0  0  0
    3.9433    2.3971    0.0000 C   0  0  0  0  0  0  0  0  0
    3.9433    1.5721    0.0000 O   0  0  0  0  0  0  0  0  0
    4.6577    1.1596    0.0000 C   0  0  0  0  0  0  0  0  0
    5.3722    1.5721    0.0000 C   0  0  0  0  0  0  0  0  0
    6.0867    1.1596    0.0000 C   0  0  0  0  0  0  0  0  0
    6.8012    1.5721    0.0000 N   0  0  0  0  0  0  0  0  0
    6.8012    2.3971    0.0000 C   0  0  0  0  0  0  0  0  0
    7.5156    1.1596    0.0000 C   0  0  0  0  0  0  0  0  0
    4.6577    0.3346    0.0000 C   0  0  0  0  0  0  0  0  0
    5.3722   -0.0779    0.0000 C   0  0  0  0  0  0  0  0  0
    5.3722   -0.9029    0.0000 C   0  0  0  0  0  0  0  0  0
    4.6577   -1.3154    0.0000 C   0  0  0  0  0  0  0  0  0
    4.6577   -2.1404    0.0000 O   0  0  0  0  0  0  0  0  0
    5.3722   -2.5529    0.0000 C   0  0  0  0  0  0  0  0  0
    5.3722   -3.3779    0.0000 C   0  0  0  0  0  0  0  0  0
    6.0867   -3.7904    0.0000 C   0  0  0  0  0  0  0  0  0
    6.0867   -4.6154    0.0000 N   0  0  0  0  0  0  0  0  0
    6.8012   -5.0279    0.0000 C   0  0  0  0  0  0  0  0  0
    6.8012   -5.8529    0.0000 C   0  0  0  0  0  0  0  0  0
    6.0867   -6.2654    0.0000 C   0  0  0  0  0  0  0  0  0
    5.3722   -5.8529    0.0000 C   0  0  0  0  0  0  0  0  0
    5.3722   -5.0279    0.0000 C   0  0  0  0  0  0  0  0  0
    3.9433   -0.9029    0.0000 C   0  0  0  0  0  0  0  0  0
    3.9433   -0.0779    0.0000 C   0  0  0  0  0  0  0  0  0
    3.2288    2.8096    0.0000 C   0  0  0  0  0  0  0  0  0
    3.2288    3.6346    0.0000 C   0  0  0  0  0  0  0  0  0
  1  2  1  0  0  0  0
  2  3  4  0  0  0  0
  2 30  4  0  0  0  0
  3  4  4  0  0  0  0
  4  5  4  0  0  0  0
  5  6  1  0  0  0  0
  5 29  4  0  0  0  0
  6  7  1  0  0  0  0
  7  8  1  0  0  0  0
  7 13  1  0  0  0  0
  8  9  1  0  0  0  0
  9 10  1  0  0  0  0
 10 11  1  0  0  0  0
 10 12  1  0  0  0  0
 13 14  4  0  0  0  0
 13 28  4  0  0  0  0
 14 15  4  0  0  0  0
 15 16  4  0  0  0  0
 16 17  1  0  0  0  0
 16 27  4  0  0  0  0
 17 18  1  0  0  0  0
 18 19  1  0  0  0  0
 19 20  1  0  0  0  0
 20 21  1  0  0  0  0
 21 22  1  0  0  0  0
 21 26  1  0  0  0  0
 22 23  1  0  0  0  0
 23 24  1  0  0  0  0
 24 25  1  0  0  0  0
 25 26  1  0  0  0  0
 27 28  4  0  0  0  0
 29 30  4  0  0  0  0
M  END
>  <Name_Molregno>
410278

>  <HISTAMINE H3>
8.77

>  <Serotonin transporter>
7.8

$$$$
410279
  Marvin  02231216192D 0   1.00000     0.00000     0

 30 32  0  0  1  0  0  0  0  0999 V2000
   -4.2126    2.7096    0.0000 Cl  0  0  0  0  0  0  0  0  0
   -4.9271    2.2971    0.0000 C   0  0  0  0  0  0  0  0  0
   -4.9271    1.4721    0.0000 C   0  0  0  0  0  0  0  0  0
   -5.6416    1.0596    0.0000 C   0  0  0  0  0  0  0  0  0
   -5.6416    0.2346    0.0000 O   0  0  0  0  0  0  0  0  0
   -4.9271   -0.1779    0.0000 C   0  0  0  0  0  0  0  0  0
   -4.2126    0.2346    0.0000 C   0  0  0  0  0  0  0  0  0
   -3.4982   -0.1779    0.0000 C   0  0  0  0  0  0  0  0  0
   -2.7837    0.2346    0.0000 N   0  0  0  0  0  0  0  0  0
   -2.7837    1.0596    0.0000 C   0  0  0  0  0  0  0  0  0
   -2.0692   -0.1779    0.0000 C   0  0  0  0  0  0  0  0  0
   -4.9271   -1.0029    0.0000 C   0  0  0  0  0  0  0  0  0
   -4.2126   -1.4154    0.0000 C   0  0  0  0  0  0  0  0  0
   -4.2126   -2.2404    0.0000 C   0  0  0  0  0  0  0  0  0
   -4.9271   -2.6529    0.0000 C   0  0  0  0  0  0  0  0  0
   -4.9271   -3.4779    0.0000 O   0  0  0  0  0  0  0  0  0
   -4.2126   -3.8904    0.0000 C   0  0  0  0  0  0  0  0  0
   -4.2126   -4.7154    0.0000 C   0  0  0  0  0  0  0  0  0
   -3.4982   -5.1279    0.0000 C   0  0  0  0  0  0  0  0  0
   -3.4982   -5.9529    0.0000 N   0  0  0  0  0  0  0  0  0
   -2.7837   -6.3654    0.0000 C   0  0  0  0  0  0  0  0  0
   -2.7837   -7.1904    0.0000 C   0  0  0  0  0  0  0  0  0
   -3.4982   -7.6029    0.0000 C   0  0  0  0  0  0  0  0  0
   -4.2126   -7.1904    0.0000 C   0  0  0  0  0  0  0  0  0
   -4.2126   -6.3654    0.0000 C   0  0  0  0  0  0  0  0  0
   -5.6416   -2.2404    0.0000 C   0  0  0  0  0  0  0  0  0
   -5.6416   -1.4154    0.0000 C   0  0  0  0  0  0  0  0  0
   -6.3560    1.4721    0.0000 C   0  0  0  0  0  0  0  0  0
   -6.3560    2.2971    0.0000 C   0  0  0  0  0  0  0  0  0
   -5.6416    2.7096    0.0000 C   0  0  0  0  0  0  0  0  0
  1  2  1  0  0  0  0
  2  3  4  0  0  0  0
  2 30  4  0  0  0  0
  3  4  4  0  0  0  0
  4  5  1  0  0  0  0
  4 28  4  0  0  0  0
  5  6  1  0  0  0  0
  6  7  1  0  0  0  0
  6 12  1  0  0  0  0
  7  8  1  0  0  0  0
  8  9  1  0  0  0  0
  9 10  1  0  0  0  0
  9 11  1  0  0  0  0
 12 13  4  0  0  0  0
 12 27  4  0  0  0  0
 13 14  4  0  0  0  0
 14 15  4  0  0  0  0
 15 16  1  0  0  0  0
 15 26  4  0  0  0  0
 16 17  1  0  0  0  0
 17 18  1  0  0  0  0
 18 19  1  0  0  0  0
 19 20  1  0  0  0  0
 20 21  1  0  0  0  0
 20 25  1  0  0  0  0
 21 22  1  0  0  0  0
 22 23  1  0  0  0  0
 23 24  1  0  0  0  0
 24 25  1  0  0  0  0
 26 27  4  0  0  0  0
 28 29  4  0  0  0  0
 29 30  4  0  0  0  0
M  END
>  <Name_Molregno>
410279

>  <HISTAMINE H3>
9.05

>  <Serotonin transporter>
8.12

$$$$
410280
  Marvin  02231216192D 0   1.00000     0.00000     0

 31 33  0  0  1  0  0  0  0  0999 V2000
   -4.2705   -6.6015    0.0000 Cl  0  0  0  0  0  0  0  0  0
   -3.8580   -5.8870    0.0000 C   0  0  0  0  0  0  0  0  0
   -4.2705   -5.1725    0.0000 C   0  0  0  0  0  0  0  0  0
   -3.8580   -4.4580    0.0000 C   0  0  0  0  0  0  0  0  0
   -4.2705   -3.7436    0.0000 O   0  0  0  0  0  0  0  0  0
   -3.8580   -3.0291    0.0000 C   0  0  0  0  0  0  0  0  0
   -3.0330   -3.0291    0.0000 C   0  0  0  0  0  0  0  0  0
   -2.6205   -3.7436    0.0000 C   0  0  0  0  0  0  0  0  0
   -1.7955   -3.7436    0.0000 N   0  0  0  0  0  0  0  0  0
   -1.3830   -3.0291    0.0000 C   0  0  0  0  0  0  0  0  0
   -1.3830   -4.4580    0.0000 C   0  0  0  0  0  0  0  0  0
   -4.2705   -2.3146    0.0000 C   0  0  0  0  0  0  0  0  0
   -5.0955   -2.3146    0.0000 C   0  0  0  0  0  0  0  0  0
   -5.5080   -1.6002    0.0000 C   0  0  0  0  0  0  0  0  0
   -5.0955   -0.8857    0.0000 C   0  0  0  0  0  0  0  0  0
   -5.5080   -0.1712    0.0000 O   0  0  0  0  0  0  0  0  0
   -5.0955    0.5432    0.0000 C   0  0  0  0  0  0  0  0  0
   -5.5080    1.2577    0.0000 C   0  0  0  0  0  0  0  0  0
   -5.0955    1.9722    0.0000 C   0  0  0  0  0  0  0  0  0
   -5.5080    2.6867    0.0000 N   0  0  0  0  0  0  0  0  0
   -6.3330    2.6867    0.0000 C   0  0  0  0  0  0  0  0  0
   -6.7455    3.4011    0.0000 C   0  0  0  0  0  0  0  0  0
   -6.3330    4.1156    0.0000 C   0  0  0  0  0  0  0  0  0
   -5.5080    4.1156    0.0000 C   0  0  0  0  0  0  0  0  0
   -5.0955    3.4011    0.0000 C   0  0  0  0  0  0  0  0  0
   -4.2705   -0.8857    0.0000 C   0  0  0  0  0  0  0  0  0
   -3.8580   -1.6002    0.0000 C   0  0  0  0  0  0  0  0  0
   -3.0330   -4.4580    0.0000 C   0  0  0  0  0  0  0  0  0
   -2.6205   -5.1725    0.0000 C   0  0  0  0  0  0  0  0  0
   -3.0330   -5.8870    0.0000 C   0  0  0  0  0  0  0  0  0
   -2.6205   -6.6015    0.0000 Cl  0  0  0  0  0  0  0  0  0
  1  2  1  0  0  0  0
  2  3  4  0  0  0  0
  2 30  4  0  0  0  0
  3  4  4  0  0  0  0
  4  5  1  0  0  0  0
  4 28  4  0  0  0  0
  5  6  1  0  0  0  0
  6  7  1  0  0  0  0
  6 12  1  0  0  0  0
  7  8  1  0  0  0  0
  8  9  1  0  0  0  0
  9 10  1  0  0  0  0
  9 11  1  0  0  0  0
 12 13  4  0  0  0  0
 12 27  4  0  0  0  0
 13 14  4  0  0  0  0
 14 15  4  0  0  0  0
 15 16  1  0  0  0  0
 15 26  4  0  0  0  0
 16 17  1  0  0  0  0
 17 18  1  0  0  0  0
 18 19  1  0  0  0  0
 19 20  1  0  0  0  0
 20 21  1  0  0  0  0
 20 25  1  0  0  0  0
 21 22  1  0  0  0  0
 22 23  1  0  0  0  0
 23 24  1  0  0  0  0
 24 25  1  0  0  0  0
 26 27  4  0  0  0  0
 28 29  4  0  0  0  0
 29 30  4  0  0  0  0
 30 31  1  0  0  0  0
M  END
>  <Name_Molregno>
410280

>  <HISTAMINE H3>
8.5

>  <Serotonin transporter>
8.24

$$$$
410281
  Marvin  02231216192D 0   1.00000     0.00000     0

 30 32  0  0  1  0  0  0  0  0999 V2000
    3.9433    4.8721    0.0000 Br  0  0  0  0  0  0  0  0  0
    3.9433    4.0471    0.0000 C   0  0  0  0  0  0  0  0  0
    4.6577    3.6346    0.0000 C   0  0  0  0  0  0  0  0  0
    4.6577    2.8096    0.0000 C   0  0  0  0  0  0  0  0  0
    3.9433    2.3971    0.0000 C   0  0  0  0  0  0  0  0  0
    3.9433    1.5721    0.0000 O   0  0  0  0  0  0  0  0  0
    4.6577    1.1596    0.0000 C   0  0  0  0  0  0  0  0  0
    5.3722    1.5721    0.0000 C   0  0  0  0  0  0  0  0  0
    6.0867    1.1596    0.0000 C   0  0  0  0  0  0  0  0  0
    6.8012    1.5721    0.0000 N   0  0  0  0  0  0  0  0  0
    6.8012    2.3971    0.0000 C   0  0  0  0  0  0  0  0  0
    7.5156    1.1596    0.0000 C   0  0  0  0  0  0  0  0  0
    4.6577    0.3346    0.0000 C   0  0  0  0  0  0  0  0  0
    5.3722   -0.0779    0.0000 C   0  0  0  0  0  0  0  0  0
    5.3722   -0.9029    0.0000 C   0  0  0  0  0  0  0  0  0
    4.6577   -1.3154    0.0000 C   0  0  0  0  0  0  0  0  0
    4.6577   -2.1404    0.0000 O   0  0  0  0  0  0  0  0  0
    5.3722   -2.5529    0.0000 C   0  0  0  0  0  0  0  0  0
    5.3722   -3.3779    0.0000 C   0  0  0  0  0  0  0  0  0
    6.0867   -3.7904    0.0000 C   0  0  0  0  0  0  0  0  0
    6.0867   -4.6154    0.0000 N   0  0  0  0  0  0  0  0  0
    6.8012   -5.0279    0.0000 C   0  0  0  0  0  0  0  0  0
    6.8012   -5.8529    0.0000 C   0  0  0  0  0  0  0  0  0
    6.0867   -6.2654    0.0000 C   0  0  0  0  0  0  0  0  0
    5.3722   -5.8529    0.0000 C   0  0  0  0  0  0  0  0  0
    5.3722   -5.0279    0.0000 C   0  0  0  0  0  0  0  0  0
    3.9433   -0.9029    0.0000 C   0  0  0  0  0  0  0  0  0
    3.9433   -0.0779    0.0000 C   0  0  0  0  0  0  0  0  0
    3.2288    2.8096    0.0000 C   0  0  0  0  0  0  0  0  0
    3.2288    3.6346    0.0000 C   0  0  0  0  0  0  0  0  0
  1  2  1  0  0  0  0
  2  3  4  0  0  0  0
  2 30  4  0  0  0  0
  3  4  4  0  0  0  0
  4  5  4  0  0  0  0
  5  6  1  0  0  0  0
  5 29  4  0  0  0  0
  6  7  1  0  0  0  0
  7  8  1  0  0  0  0
  7 13  1  0  0  0  0
  8  9  1  0  0  0  0
  9 10  1  0  0  0  0
 10 11  1  0  0  0  0
 10 12  1  0  0  0  0
 13 14  4  0  0  0  0
 13 28  4  0  0  0  0
 14 15  4  0  0  0  0
 15 16  4  0  0  0  0
 16 17  1  0  0  0  0
 16 27  4  0  0  0  0
 17 18  1  0  0  0  0
 18 19  1  0  0  0  0
 19 20  1  0  0  0  0
 20 21  1  0  0  0  0
 21 22  1  0  0  0  0
 21 26  1  0  0  0  0
 22 23  1  0  0  0  0
 23 24  1  0  0  0  0
 24 25  1  0  0  0  0
 25 26  1  0  0  0  0
 27 28  4  0  0  0  0
 29 30  4  0  0  0  0
M  END
>  <Name_Molregno>
410281

>  <HISTAMINE H3>
8.77

>  <Serotonin transporter>
8.05

$$$$
410282
  Marvin  02231216192D 0   1.00000     0.00000     0

 30 32  0  0  1  0  0  0  0  0999 V2000
   -4.2126    2.7096    0.0000 Br  0  0  0  0  0  0  0  0  0
   -4.9271    2.2971    0.0000 C   0  0  0  0  0  0  0  0  0
   -4.9271    1.4721    0.0000 C   0  0  0  0  0  0  0  0  0
   -5.6416    1.0596    0.0000 C   0  0  0  0  0  0  0  0  0
   -5.6416    0.2346    0.0000 O   0  0  0  0  0  0  0  0  0
   -4.9271   -0.1779    0.0000 C   0  0  0  0  0  0  0  0  0
   -4.2126    0.2346    0.0000 C   0  0  0  0  0  0  0  0  0
   -3.4982   -0.1779    0.0000 C   0  0  0  0  0  0  0  0  0
   -2.7837    0.2346    0.0000 N   0  0  0  0  0  0  0  0  0
   -2.7837    1.0596    0.0000 C   0  0  0  0  0  0  0  0  0
   -2.0692   -0.1779    0.0000 C   0  0  0  0  0  0  0  0  0
   -4.9271   -1.0029    0.0000 C   0  0  0  0  0  0  0  0  0
   -4.2126   -1.4154    0.0000 C   0  0  0  0  0  0  0  0  0
   -4.2126   -2.2404    0.0000 C   0  0  0  0  0  0  0  0  0
   -4.9271   -2.6529    0.0000 C   0  0  0  0  0  0  0  0  0
   -4.9271   -3.4779    0.0000 O   0  0  0  0  0  0  0  0  0
   -4.2126   -3.8904    0.0000 C   0  0  0  0  0  0  0  0  0
   -4.2126   -4.7154    0.0000 C   0  0  0  0  0  0  0  0  0
   -3.4982   -5.1279    0.0000 C   0  0  0  0  0  0  0  0  0
   -3.4982   -5.9529    0.0000 N   0  0  0  0  0  0  0  0  0
   -2.7837   -6.3654    0.0000 C   0  0  0  0  0  0  0  0  0
   -2.7837   -7.1904    0.0000 C   0  0  0  0  0  0  0  0  0
   -3.4982   -7.6029    0.0000 C   0  0  0  0  0  0  0  0  0
   -4.2126   -7.1904    0.0000 C   0  0  0  0  0  0  0  0  0
   -4.2126   -6.3654    0.0000 C   0  0  0  0  0  0  0  0  0
   -5.6416   -2.2404    0.0000 C   0  0  0  0  0  0  0  0  0
   -5.6416   -1.4154    0.0000 C   0  0  0  0  0  0  0  0  0
   -6.3560    1.4721    0.0000 C   0  0  0  0  0  0  0  0  0
   -6.3560    2.2971    0.0000 C   0  0  0  0  0  0  0  0  0
   -5.6416    2.7096    0.0000 C   0  0  0  0  0  0  0  0  0
  1  2  1  0  0  0  0
  2  3  4  0  0  0  0
  2 30  4  0  0  0  0
  3  4  4  0  0  0  0
  4  5  1  0  0  0  0
  4 28  4  0  0  0  0
  5  6  1  0  0  0  0
  6  7  1  0  0  0  0
  6 12  1  0  0  0  0
  7  8  1  0  0  0  0
  8  9  1  0  0  0  0
  9 10  1  0  0  0  0
  9 11  1  0  0  0  0
 12 13  4  0  0  0  0
 12 27  4  0  0  0  0
 13 14  4  0  0  0  0
 14 15  4  0  0  0  0
 15 16  1  0  0  0  0
 15 26  4  0  0  0  0
 16 17  1  0  0  0  0
 17 18  1  0  0  0  0
 18 19  1  0  0  0  0
 19 20  1  0  0  0  0
 20 21  1  0  0  0  0
 20 25  1  0  0  0  0
 21 22  1  0  0  0  0
 22 23  1  0  0  0  0
 23 24  1  0  0  0  0
 24 25  1  0  0  0  0
 26 27  4  0  0  0  0
 28 29  4  0  0  0  0
 29 30  4  0  0  0  0
M  END
>  <Name_Molregno>
410282

>  <HISTAMINE H3>
9

>  <Serotonin transporter>
8.4

$$$$
410283
  Marvin  02231216192D 0   1.00000     0.00000     0

 32 34  0  0  1  0  0  0  0  0999 V2000
    1.1675    1.2132    0.0000 O   0  0  0  0  0  0  0  0  0
    1.8820    0.8007    0.0000 C   0  0  0  0  0  0  0  0  0
    2.5965    1.2132    0.0000 C   0  0  0  0  0  0  0  0  0
    3.3109    0.8007    0.0000 C   0  0  0  0  0  0  0  0  0
    4.0254    1.2132    0.0000 N   0  0  0  0  0  0  0  0  0
    4.0254    2.0382    0.0000 C   0  0  0  0  0  0  0  0  0
    4.7399    0.8007    0.0000 C   0  0  0  0  0  0  0  0  0
    1.8820   -0.0243    0.0000 C   0  0  0  0  0  0  0  0  0
    2.5965   -0.4368    0.0000 C   0  0  0  0  0  0  0  0  0
    2.5965   -1.2618    0.0000 C   0  0  0  0  0  0  0  0  0
    1.8820   -1.6743    0.0000 C   0  0  0  0  0  0  0  0  0
    1.8820   -2.4993    0.0000 O   0  0  0  0  0  0  0  0  0
    1.1675   -2.9118    0.0000 C   0  0  0  0  0  0  0  0  0
    1.1675   -3.7368    0.0000 C   0  0  0  0  0  0  0  0  0
    0.4531   -4.1493    0.0000 C   0  0  0  0  0  0  0  0  0
    0.4531   -4.9743    0.0000 N   0  0  0  0  0  0  0  0  0
    1.1675   -5.3868    0.0000 C   0  0  0  0  0  0  0  0  0
    1.1675   -6.2118    0.0000 C   0  0  0  0  0  0  0  0  0
    0.4531   -6.6243    0.0000 C   0  0  0  0  0  0  0  0  0
   -0.2614   -6.2118    0.0000 C   0  0  0  0  0  0  0  0  0
   -0.2614   -5.3868    0.0000 C   0  0  0  0  0  0  0  0  0
    1.1675   -1.2618    0.0000 C   0  0  0  0  0  0  0  0  0
    1.1675   -0.4368    0.0000 C   0  0  0  0  0  0  0  0  0
    1.1675    2.0382    0.0000 C   0  0  0  0  0  0  0  0  0
    0.4531    2.4507    0.0000 C   0  0  0  0  0  0  0  0  0
    0.4531    3.2757    0.0000 C   0  0  0  0  0  0  0  0  0
    1.1675    3.6882    0.0000 C   0  0  0  0  0  0  0  0  0
    1.1675    4.5132    0.0000 N   0  3  0  0  0  0  0  0  0
    0.4531    4.9257    0.0000 O   0  5  0  0  0  0  0  0  0
    1.8820    4.9257    0.0000 O   0  5  0  0  0  0  0  0  0
    1.8820    3.2757    0.0000 C   0  0  0  0  0  0  0  0  0
    1.8820    2.4507    0.0000 C   0  0  0  0  0  0  0  0  0
  1  2  1  0  0  0  0
  1 24  1  0  0  0  0
  2  3  1  0  0  0  0
  2  8  1  0  0  0  0
  3  4  1  0  0  0  0
  4  5  1  0  0  0  0
  5  6  1  0  0  0  0
  5  7  1  0  0  0  0
  8  9  4  0  0  0  0
  8 23  4  0  0  0  0
  9 10  4  0  0  0  0
 10 11  4  0  0  0  0
 11 12  1  0  0  0  0
 11 22  4  0  0  0  0
 12 13  1  0  0  0  0
 13 14  1  0  0  0  0
 14 15  1  0  0  0  0
 15 16  1  0  0  0  0
 16 17  1  0  0  0  0
 16 21  1  0  0  0  0
 17 18  1  0  0  0  0
 18 19  1  0  0  0  0
 19 20  1  0  0  0  0
 20 21  1  0  0  0  0
 22 23  4  0  0  0  0
 24 25  4  0  0  0  0
 24 32  4  0  0  0  0
 25 26  4  0  0  0  0
 26 27  4  0  0  0  0
 27 28  1  0  0  0  0
 27 31  4  0  0  0  0
 28 29  1  0  0  0  0
 28 30  1  0  0  0  0
 31 32  4  0  0  0  0
M  CHG  3  28   1  29  -1  30  -1
M  END
>  <Name_Molregno>
410283

>  <HISTAMINE H3>
9.05

>  <Serotonin transporter>
8.06

$$$$
410284
  Marvin  02231216192D 0   1.00000     0.00000     0

 31 33  0  0  1  0  0  0  0  0999 V2000
    1.3097    1.3612    0.0000 O   0  0  0  0  0  0  0  0  0
    2.0242    0.9487    0.0000 C   0  0  0  0  0  0  0  0  0
    2.7386    1.3612    0.0000 C   0  0  0  0  0  0  0  0  0
    3.4531    0.9487    0.0000 C   0  0  0  0  0  0  0  0  0
    4.1676    1.3612    0.0000 N   0  0  0  0  0  0  0  0  0
    4.1676    2.1862    0.0000 C   0  0  0  0  0  0  0  0  0
    4.8821    0.9487    0.0000 C   0  0  0  0  0  0  0  0  0
    2.0242    0.1237    0.0000 C   0  0  0  0  0  0  0  0  0
    2.7386   -0.2888    0.0000 C   0  0  0  0  0  0  0  0  0
    2.7386   -1.1138    0.0000 C   0  0  0  0  0  0  0  0  0
    2.0242   -1.5263    0.0000 C   0  0  0  0  0  0  0  0  0
    2.0242   -2.3513    0.0000 O   0  0  0  0  0  0  0  0  0
    1.3097   -2.7638    0.0000 C   0  0  0  0  0  0  0  0  0
    1.3097   -3.5888    0.0000 C   0  0  0  0  0  0  0  0  0
    0.5952   -4.0013    0.0000 C   0  0  0  0  0  0  0  0  0
    0.5952   -4.8263    0.0000 N   0  0  0  0  0  0  0  0  0
    1.3097   -5.2388    0.0000 C   0  0  0  0  0  0  0  0  0
    1.3097   -6.0638    0.0000 C   0  0  0  0  0  0  0  0  0
    0.5952   -6.4763    0.0000 C   0  0  0  0  0  0  0  0  0
   -0.1192   -6.0638    0.0000 C   0  0  0  0  0  0  0  0  0
   -0.1192   -5.2388    0.0000 C   0  0  0  0  0  0  0  0  0
    1.3097   -1.1138    0.0000 C   0  0  0  0  0  0  0  0  0
    1.3097   -0.2888    0.0000 C   0  0  0  0  0  0  0  0  0
    1.3097    2.1862    0.0000 C   0  0  0  0  0  0  0  0  0
    0.5952    2.5987    0.0000 C   0  0  0  0  0  0  0  0  0
    0.5952    3.4237    0.0000 C   0  0  0  0  0  0  0  0  0
    1.3097    3.8362    0.0000 C   0  0  0  0  0  0  0  0  0
    2.0242    3.4237    0.0000 C   0  0  0  0  0  0  0  0  0
    2.0242    2.5987    0.0000 C   0  0  0  0  0  0  0  0  0
    1.3097    4.6612    0.0000 C   0  0  0  0  0  0  0  0  0
    1.3097    5.4862    0.0000 N   0  0  0  0  0  0  0  0  0
  1  2  1  0  0  0  0
  1 24  1  0  0  0  0
  2  3  1  0  0  0  0
  2  8  1  0  0  0  0
  3  4  1  0  0  0  0
  4  5  1  0  0  0  0
  5  6  1  0  0  0  0
  5  7  1  0  0  0  0
  8  9  4  0  0  0  0
  8 23  4  0  0  0  0
  9 10  4  0  0  0  0
 10 11  4  0  0  0  0
 11 12  1  0  0  0  0
 11 22  4  0  0  0  0
 12 13  1  0  0  0  0
 13 14  1  0  0  0  0
 14 15  1  0  0  0  0
 15 16  1  0  0  0  0
 16 17  1  0  0  0  0
 16 21  1  0  0  0  0
 17 18  1  0  0  0  0
 18 19  1  0  0  0  0
 19 20  1  0  0  0  0
 20 21  1  0  0  0  0
 22 23  4  0  0  0  0
 24 25  4  0  0  0  0
 24 29  4  0  0  0  0
 25 26  4  0  0  0  0
 26 27  4  0  0  0  0
 27 28  4  0  0  0  0
 27 30  1  0  0  0  0
 28 29  4  0  0  0  0
 30 31  3  0  0  0  0
M  END
>  <Name_Molregno>
410284

>  <HISTAMINE H3>
9.7

>  <Serotonin transporter>
6.8

$$$$
410285
  Marvin  02231216192D 0   1.00000     0.00000     0

 30 33  0  0  1  0  0  0  0  0999 V2000
    0.4584   -1.6133    0.0000 F   0  0  0  0  0  0  0  0  0
    1.1729   -1.2008    0.0000 C   0  0  0  0  0  0  0  0  0
    1.1729   -0.3758    0.0000 C   0  0  0  0  0  0  0  0  0
    1.8873    0.0367    0.0000 C   0  0  0  0  0  0  0  0  0
    2.6018   -0.3758    0.0000 N   0  0  0  0  0  0  0  0  0
    2.6018   -1.2008    0.0000 C   0  0  0  0  0  0  0  0  0
    1.8873   -1.6133    0.0000 C   0  0  0  0  0  0  0  0  0
    3.3163    0.0367    0.0000 C   0  0  0  0  0  0  0  0  0
    4.0307   -0.3758    0.0000 C   0  0  0  0  0  0  0  0  0
    4.7452    0.0367    0.0000 C   0  0  0  0  0  0  0  0  0
    5.4597   -0.3758    0.0000 O   0  0  0  0  0  0  0  0  0
    6.1742    0.0367    0.0000 C   0  0  0  0  0  0  0  0  0
    6.8886   -0.3758    0.0000 C   0  0  0  0  0  0  0  0  0
    7.6031    0.0367    0.0000 C   0  0  0  0  0  0  0  0  0
    7.6031    0.8617    0.0000 C   0  0  0  0  0  0  0  0  0
    6.8886    1.2742    0.0000 C   0  0  0  0  0  0  0  0  0
    6.1742    0.8617    0.0000 C   0  0  0  0  0  0  0  0  0
    8.3176    1.2742    0.0000 C   0  0  0  0  0  0  0  0  0
    9.0320    0.8617    0.0000 C   0  0  0  0  0  0  0  0  0
    9.0320    0.0367    0.0000 N   0  0  0  0  0  0  0  0  0
    8.3176   -0.3758    0.0000 C   0  0  0  0  0  0  0  0  0
    9.7465   -0.3758    0.0000 C   0  0  0  0  0  0  0  0  0
    8.3176    2.0992    0.0000 C   0  0  0  0  0  0  0  0  0
    7.6031    2.5117    0.0000 C   0  0  0  0  0  0  0  0  0
    7.6031    3.3367    0.0000 C   0  0  0  0  0  0  0  0  0
    6.8886    3.7492    0.0000 O   0  0  0  0  0  0  0  0  0
    6.8886    4.5742    0.0000 C   0  0  0  0  0  0  0  0  0
    8.3176    3.7492    0.0000 C   0  0  0  0  0  0  0  0  0
    9.0320    3.3367    0.0000 C   0  0  0  0  0  0  0  0  0
    9.0320    2.5117    0.0000 C   0  0  0  0  0  0  0  0  0
  1  2  1  0  0  0  0
  2  3  1  0  0  0  0
  2  7  1  0  0  0  0
  3  4  1  0  0  0  0
  4  5  1  0  0  0  0
  5  6  1  0  0  0  0
  5  8  1  0  0  0  0
  6  7  1  0  0  0  0
  8  9  1  0  0  0  0
  9 10  1  0  0  0  0
 10 11  1  0  0  0  0
 11 12  1  0  0  0  0
 12 13  4  0  0  0  0
 12 17  4  0  0  0  0
 13 14  4  0  0  0  0
 14 15  4  0  0  0  0
 14 21  1  0  0  0  0
 15 16  4  0  0  0  0
 15 18  1  0  0  0  0
 16 17  4  0  0  0  0
 18 19  1  0  0  0  0
 18 23  1  0  0  0  0
 19 20  1  0  0  0  0
 20 21  1  0  0  0  0
 20 22  1  0  0  0  0
 23 24  4  0  0  0  0
 23 30  4  0  0  0  0
 24 25  4  0  0  0  0
 25 26  1  0  0  0  0
 25 28  4  0  0  0  0
 26 27  1  0  0  0  0
 28 29  4  0  0  0  0
 29 30  4  0  0  0  0
M  END
>  <Name_Molregno>
410285

>  <HISTAMINE H3>
8.7

>  <Serotonin transporter>
8.37

$$$$
410286
  Marvin  02231216192D 0   1.00000     0.00000     0

 31 34  0  0  1  0  0  0  0  0999 V2000
    7.3658   -5.7227    0.0000 F   0  0  0  0  0  0  0  0  0
    6.6513   -5.3102    0.0000 C   0  0  0  0  0  0  0  0  0
    5.9368   -5.7227    0.0000 C   0  0  0  0  0  0  0  0  0
    5.2224   -5.3102    0.0000 C   0  0  0  0  0  0  0  0  0
    5.2224   -4.4852    0.0000 N   0  0  0  0  0  0  0  0  0
    5.9368   -4.0727    0.0000 C   0  0  0  0  0  0  0  0  0
    6.6513   -4.4852    0.0000 C   0  0  0  0  0  0  0  0  0
    4.5079   -4.0727    0.0000 C   0  0  0  0  0  0  0  0  0
    4.5079   -3.2477    0.0000 C   0  0  0  0  0  0  0  0  0
    3.7934   -2.8352    0.0000 C   0  0  0  0  0  0  0  0  0
    3.7934   -2.0102    0.0000 O   0  0  0  0  0  0  0  0  0
    4.5079   -1.5977    0.0000 C   0  0  0  0  0  0  0  0  0
    5.2224   -2.0102    0.0000 C   0  0  0  0  0  0  0  0  0
    5.9368   -1.5977    0.0000 C   0  0  0  0  0  0  0  0  0
    5.9368   -0.7727    0.0000 C   0  0  0  0  0  0  0  0  0
    5.2224   -0.3602    0.0000 C   0  0  0  0  0  0  0  0  0
    4.5079   -0.7727    0.0000 C   0  0  0  0  0  0  0  0  0
    6.6513   -0.3602    0.0000 C   0  0  0  0  0  0  0  0  0
    7.3658   -0.7727    0.0000 C   0  0  0  0  0  0  0  0  0
    7.3658   -1.5977    0.0000 N   0  0  0  0  0  0  0  0  0
    6.6513   -2.0102    0.0000 C   0  0  0  0  0  0  0  0  0
    8.0802   -2.0102    0.0000 C   0  0  0  0  0  0  0  0  0
    6.6513    0.4648    0.0000 C   0  0  0  0  0  0  0  0  0
    5.9368    0.8773    0.0000 C   0  0  0  0  0  0  0  0  0
    5.9368    1.7023    0.0000 C   0  0  0  0  0  0  0  0  0
    6.6513    2.1148    0.0000 C   0  0  0  0  0  0  0  0  0
    6.6513    2.9398    0.0000 O   0  0  0  0  0  0  0  0  0
    7.3658    3.3523    0.0000 C   0  0  0  0  0  0  0  0  0
    7.3658    4.1773    0.0000 C   0  0  0  0  0  0  0  0  0
    7.3658    1.7023    0.0000 C   0  0  0  0  0  0  0  0  0
    7.3658    0.8773    0.0000 C   0  0  0  0  0  0  0  0  0
  1  2  1  0  0  0  0
  2  3  1  0  0  0  0
  2  7  1  0  0  0  0
  3  4  1  0  0  0  0
  4  5  1  0  0  0  0
  5  6  1  0  0  0  0
  5  8  1  0  0  0  0
  6  7  1  0  0  0  0
  8  9  1  0  0  0  0
  9 10  1  0  0  0  0
 10 11  1  0  0  0  0
 11 12  1  0  0  0  0
 12 13  4  0  0  0  0
 12 17  4  0  0  0  0
 13 14  4  0  0  0  0
 14 15  4  0  0  0  0
 14 21  1  0  0  0  0
 15 16  4  0  0  0  0
 15 18  1  0  0  0  0
 16 17  4  0  0  0  0
 18 19  1  0  0  0  0
 18 23  1  0  0  0  0
 19 20  1  0  0  0  0
 20 21  1  0  0  0  0
 20 22  1  0  0  0  0
 23 24  4  0  0  0  0
 23 31  4  0  0  0  0
 24 25  4  0  0  0  0
 25 26  4  0  0  0  0
 26 27  1  0  0  0  0
 26 30  4  0  0  0  0
 27 28  1  0  0  0  0
 28 29  1  0  0  0  0
 30 31  4  0  0  0  0
M  END
>  <Name_Molregno>
410286

>  <HISTAMINE H3>
8.14

>  <Serotonin transporter>
8.33

$$$$
410287
  Marvin  02231216192D 0   1.00000     0.00000     0

 31 34  0  0  1  0  0  0  0  0999 V2000
    1.2742   -5.0582    0.0000 Cl  0  0  0  0  0  0  0  0  0
    1.9886   -4.6457    0.0000 C   0  0  0  0  0  0  0  0  0
    1.9886   -3.8207    0.0000 C   0  0  0  0  0  0  0  0  0
    2.7031   -3.4082    0.0000 C   0  0  0  0  0  0  0  0  0
    3.4176   -3.8207    0.0000 C   0  0  0  0  0  0  0  0  0
    3.4176   -4.6457    0.0000 C   0  0  0  0  0  0  0  0  0
    2.7031   -5.0582    0.0000 C   0  0  0  0  0  0  0  0  0
    2.7031   -5.8832    0.0000 O   0  0  0  0  0  0  0  0  0
    1.9886   -6.2957    0.0000 C   0  0  0  0  0  0  0  0  0
    2.7031   -2.5832    0.0000 C   0  0  0  0  0  0  0  0  0
    3.4176   -2.1707    0.0000 C   0  0  0  0  0  0  0  0  0
    3.4176   -1.3457    0.0000 C   0  0  0  0  0  0  0  0  0
    4.1320   -0.9332    0.0000 C   0  0  0  0  0  0  0  0  0
    4.8465   -1.3457    0.0000 C   0  0  0  0  0  0  0  0  0
    5.5610   -0.9332    0.0000 O   0  0  0  0  0  0  0  0  0
    5.5610   -0.1082    0.0000 C   0  0  0  0  0  0  0  0  0
    6.2755    0.3043    0.0000 C   0  0  0  0  0  0  0  0  0
    6.2755    1.1293    0.0000 C   0  0  0  0  0  0  0  0  0
    6.9899    1.5418    0.0000 N   0  0  0  0  0  0  0  0  0
    6.9899    2.3668    0.0000 C   0  0  0  0  0  0  0  0  0
    7.7044    2.7793    0.0000 C   0  0  0  0  0  0  0  0  0
    8.4189    2.3668    0.0000 C   0  0  0  0  0  0  0  0  0
    9.1333    2.7793    0.0000 F   0  0  0  0  0  0  0  0  0
    8.4189    1.5418    0.0000 C   0  0  0  0  0  0  0  0  0
    7.7044    1.1293    0.0000 C   0  0  0  0  0  0  0  0  0
    4.8465   -2.1707    0.0000 C   0  0  0  0  0  0  0  0  0
    4.1320   -2.5832    0.0000 C   0  0  0  0  0  0  0  0  0
    2.7031   -0.9332    0.0000 C   0  0  0  0  0  0  0  0  0
    1.9886   -1.3457    0.0000 N   0  0  0  0  0  0  0  0  0
    1.9886   -2.1707    0.0000 C   0  0  0  0  0  0  0  0  0
    1.2742   -0.9332    0.0000 C   0  0  0  0  0  0  0  0  0
  1  2  1  0  0  0  0
  2  3  4  0  0  0  0
  2  7  4  0  0  0  0
  3  4  4  0  0  0  0
  4  5  4  0  0  0  0
  4 10  1  0  0  0  0
  5  6  4  0  0  0  0
  6  7  4  0  0  0  0
  7  8  1  0  0  0  0
  8  9  1  0  0  0  0
 10 11  1  0  0  0  0
 10 30  1  0  0  0  0
 11 12  4  0  0  0  0
 11 27  4  0  0  0  0
 12 13  4  0  0  0  0
 12 28  1  0  0  0  0
 13 14  4  0  0  0  0
 14 15  1  0  0  0  0
 14 26  4  0  0  0  0
 15 16  1  0  0  0  0
 16 17  1  0  0  0  0
 17 18  1  0  0  0  0
 18 19  1  0  0  0  0
 19 20  1  0  0  0  0
 19 25  1  0  0  0  0
 20 21  1  0  0  0  0
 21 22  1  0  0  0  0
 22 23  1  0  0  0  0
 22 24  1  0  0  0  0
 24 25  1  0  0  0  0
 26 27  4  0  0  0  0
 28 29  1  0  0  0  0
 29 30  1  0  0  0  0
 29 31  1  0  0  0  0
M  END
>  <Name_Molregno>
410287

>  <HISTAMINE H3>
8.01

>  <Serotonin transporter>
8.24

$$$$
410288
  Marvin  02231216192D 0   1.00000     0.00000     0

 29 32  0  0  1  0  0  0  0  0999 V2000
   -5.7608   -6.8671    0.0000 Cl  0  0  0  0  0  0  0  0  0
   -5.7608   -6.0421    0.0000 C   0  0  0  0  0  0  0  0  0
   -6.4753   -5.6296    0.0000 C   0  0  0  0  0  0  0  0  0
   -6.4753   -4.8046    0.0000 C   0  0  0  0  0  0  0  0  0
   -5.7608   -4.3921    0.0000 C   0  0  0  0  0  0  0  0  0
   -5.0463   -4.8046    0.0000 C   0  0  0  0  0  0  0  0  0
   -5.0463   -5.6296    0.0000 C   0  0  0  0  0  0  0  0  0
   -5.7608   -3.5671    0.0000 C   0  0  0  0  0  0  0  0  0
   -5.0463   -3.1546    0.0000 C   0  0  0  0  0  0  0  0  0
   -5.0463   -2.3296    0.0000 C   0  0  0  0  0  0  0  0  0
   -4.3319   -1.9171    0.0000 C   0  0  0  0  0  0  0  0  0
   -3.6174   -2.3296    0.0000 C   0  0  0  0  0  0  0  0  0
   -2.9029   -1.9171    0.0000 O   0  0  0  0  0  0  0  0  0
   -2.9029   -1.0921    0.0000 C   0  0  0  0  0  0  0  0  0
   -2.1885   -0.6796    0.0000 C   0  0  0  0  0  0  0  0  0
   -2.1885    0.1454    0.0000 C   0  0  0  0  0  0  0  0  0
   -1.4740    0.5579    0.0000 N   0  0  0  0  0  0  0  0  0
   -1.4740    1.3829    0.0000 C   0  0  0  0  0  0  0  0  0
   -0.7595    1.7954    0.0000 C   0  0  0  0  0  0  0  0  0
   -0.0451    1.3829    0.0000 C   0  0  0  0  0  0  0  0  0
    0.6694    1.7954    0.0000 F   0  0  0  0  0  0  0  0  0
   -0.0451    0.5579    0.0000 C   0  0  0  0  0  0  0  0  0
   -0.7595    0.1454    0.0000 C   0  0  0  0  0  0  0  0  0
   -3.6174   -3.1546    0.0000 C   0  0  0  0  0  0  0  0  0
   -4.3319   -3.5671    0.0000 C   0  0  0  0  0  0  0  0  0
   -5.7608   -1.9171    0.0000 C   0  0  0  0  0  0  0  0  0
   -6.4753   -2.3296    0.0000 N   0  0  0  0  0  0  0  0  0
   -6.4753   -3.1546    0.0000 C   0  0  0  0  0  0  0  0  0
   -7.1898   -1.9171    0.0000 C   0  0  0  0  0  0  0  0  0
  1  2  1  0  0  0  0
  2  3  4  0  0  0  0
  2  7  4  0  0  0  0
  3  4  4  0  0  0  0
  4  5  4  0  0  0  0
  5  6  4  0  0  0  0
  5  8  1  0  0  0  0
  6  7  4  0  0  0  0
  8  9  1  0  0  0  0
  8 28  1  0  0  0  0
  9 10  4  0  0  0  0
  9 25  4  0  0  0  0
 10 11  4  0  0  0  0
 10 26  1  0  0  0  0
 11 12  4  0  0  0  0
 12 13  1  0  0  0  0
 12 24  4  0  0  0  0
 13 14  1  0  0  0  0
 14 15  1  0  0  0  0
 15 16  1  0  0  0  0
 16 17  1  0  0  0  0
 17 18  1  0  0  0  0
 17 23  1  0  0  0  0
 18 19  1  0  0  0  0
 19 20  1  0  0  0  0
 20 21  1  0  0  0  0
 20 22  1  0  0  0  0
 22 23  1  0  0  0  0
 24 25  4  0  0  0  0
 26 27  1  0  0  0  0
 27 28  1  0  0  0  0
 27 29  1  0  0  0  0
M  END
>  <Name_Molregno>
410288

>  <HISTAMINE H3>
8.08

>  <Serotonin transporter>
7.96

$$$$
410289
  Marvin  02231216192D 0   1.00000     0.00000     0

 29 32  0  0  1  0  0  0  0  0999 V2000
    1.3751   -4.7179    0.0000 Cl  0  0  0  0  0  0  0  0  0
    2.0896   -4.3054    0.0000 C   0  0  0  0  0  0  0  0  0
    2.0896   -3.4804    0.0000 C   0  0  0  0  0  0  0  0  0
    2.8041   -3.0679    0.0000 C   0  0  0  0  0  0  0  0  0
    3.5185   -3.4804    0.0000 C   0  0  0  0  0  0  0  0  0
    3.5185   -4.3054    0.0000 C   0  0  0  0  0  0  0  0  0
    2.8041   -4.7179    0.0000 C   0  0  0  0  0  0  0  0  0
    2.8041   -2.2429    0.0000 C   0  0  0  0  0  0  0  0  0
    3.5185   -1.8304    0.0000 C   0  0  0  0  0  0  0  0  0
    3.5185   -1.0054    0.0000 C   0  0  0  0  0  0  0  0  0
    4.2330   -0.5929    0.0000 C   0  0  0  0  0  0  0  0  0
    4.9475   -1.0054    0.0000 C   0  0  0  0  0  0  0  0  0
    5.6620   -0.5929    0.0000 O   0  0  0  0  0  0  0  0  0
    5.6620    0.2321    0.0000 C   0  0  0  0  0  0  0  0  0
    6.3764    0.6446    0.0000 C   0  0  0  0  0  0  0  0  0
    6.3764    1.4696    0.0000 C   0  0  0  0  0  0  0  0  0
    7.0909    1.8821    0.0000 N   0  0  0  0  0  0  0  0  0
    7.0909    2.7071    0.0000 C   0  0  0  0  0  0  0  0  0
    7.8054    3.1196    0.0000 C   0  0  0  0  0  0  0  0  0
    8.5198    2.7071    0.0000 C   0  0  0  0  0  0  0  0  0
    9.2343    3.1196    0.0000 F   0  0  0  0  0  0  0  0  0
    8.5198    1.8821    0.0000 C   0  0  0  0  0  0  0  0  0
    7.8054    1.4696    0.0000 C   0  0  0  0  0  0  0  0  0
    4.9475   -1.8304    0.0000 C   0  0  0  0  0  0  0  0  0
    4.2330   -2.2429    0.0000 C   0  0  0  0  0  0  0  0  0
    2.8041   -0.5929    0.0000 C   0  0  0  0  0  0  0  0  0
    2.0896   -1.0054    0.0000 N   0  0  0  0  0  0  0  0  0
    2.0896   -1.8304    0.0000 C   0  0  0  0  0  0  0  0  0
    1.3751   -0.5929    0.0000 C   0  0  0  0  0  0  0  0  0
  1  2  1  0  0  0  0
  2  3  4  0  0  0  0
  2  7  4  0  0  0  0
  3  4  4  0  0  0  0
  4  5  4  0  0  0  0
  4  8  1  0  0  0  0
  5  6  4  0  0  0  0
  6  7  4  0  0  0  0
  8  9  1  0  0  0  0
  8 28  1  0  0  0  0
  9 10  4  0  0  0  0
  9 25  4  0  0  0  0
 10 11  4  0  0  0  0
 10 26  1  0  0  0  0
 11 12  4  0  0  0  0
 12 13  1  0  0  0  0
 12 24  4  0  0  0  0
 13 14  1  0  0  0  0
 14 15  1  0  0  0  0
 15 16  1  0  0  0  0
 16 17  1  0  0  0  0
 17 18  1  0  0  0  0
 17 23  1  0  0  0  0
 18 19  1  0  0  0  0
 19 20  1  0  0  0  0
 20 21  1  0  0  0  0
 20 22  1  0  0  0  0
 22 23  1  0  0  0  0
 24 25  4  0  0  0  0
 26 27  1  0  0  0  0
 27 28  1  0  0  0  0
 27 29  1  0  0  0  0
M  END
>  <Name_Molregno>
410289

>  <HISTAMINE H3>
8.52

>  <Serotonin transporter>
7.62

$$$$
410290
  Marvin  02231216192D 0   1.00000     0.00000     0

 29 32  0  0  1  0  0  0  0  0999 V2000
    3.3607   -2.8272    0.0000 Cl  0  0  0  0  0  0  0  0  0
    2.6462   -3.2397    0.0000 C   0  0  0  0  0  0  0  0  0
    2.6462   -4.0647    0.0000 C   0  0  0  0  0  0  0  0  0
    1.9318   -4.4772    0.0000 C   0  0  0  0  0  0  0  0  0
    1.2173   -4.0647    0.0000 C   0  0  0  0  0  0  0  0  0
    1.2173   -3.2397    0.0000 C   0  0  0  0  0  0  0  0  0
    1.9318   -2.8272    0.0000 C   0  0  0  0  0  0  0  0  0
    1.9318   -2.0022    0.0000 C   0  0  0  0  0  0  0  0  0
    2.6462   -1.5897    0.0000 C   0  0  0  0  0  0  0  0  0
    2.6462   -0.7647    0.0000 C   0  0  0  0  0  0  0  0  0
    3.3607   -0.3522    0.0000 C   0  0  0  0  0  0  0  0  0
    4.0752   -0.7647    0.0000 C   0  0  0  0  0  0  0  0  0
    4.7897   -0.3522    0.0000 O   0  0  0  0  0  0  0  0  0
    4.7897    0.4728    0.0000 C   0  0  0  0  0  0  0  0  0
    5.5041    0.8853    0.0000 C   0  0  0  0  0  0  0  0  0
    5.5041    1.7103    0.0000 C   0  0  0  0  0  0  0  0  0
    6.2186    2.1228    0.0000 N   0  0  0  0  0  0  0  0  0
    6.2186    2.9478    0.0000 C   0  0  0  0  0  0  0  0  0
    6.9331    3.3603    0.0000 C   0  0  0  0  0  0  0  0  0
    7.6475    2.9478    0.0000 C   0  0  0  0  0  0  0  0  0
    8.3620    3.3603    0.0000 F   0  0  0  0  0  0  0  0  0
    7.6475    2.1228    0.0000 C   0  0  0  0  0  0  0  0  0
    6.9331    1.7103    0.0000 C   0  0  0  0  0  0  0  0  0
    4.0752   -1.5897    0.0000 C   0  0  0  0  0  0  0  0  0
    3.3607   -2.0022    0.0000 C   0  0  0  0  0  0  0  0  0
    1.9318   -0.3522    0.0000 C   0  0  0  0  0  0  0  0  0
    1.2173   -0.7647    0.0000 N   0  0  0  0  0  0  0  0  0
    1.2173   -1.5897    0.0000 C   0  0  0  0  0  0  0  0  0
    0.5028   -0.3522    0.0000 C   0  0  0  0  0  0  0  0  0
  1  2  1  0  0  0  0
  2  3  4  0  0  0  0
  2  7  4  0  0  0  0
  3  4  4  0  0  0  0
  4  5  4  0  0  0  0
  5  6  4  0  0  0  0
  6  7  4  0  0  0  0
  7  8  1  0  0  0  0
  8  9  1  0  0  0  0
  8 28  1  0  0  0  0
  9 10  4  0  0  0  0
  9 25  4  0  0  0  0
 10 11  4  0  0  0  0
 10 26  1  0  0  0  0
 11 12  4  0  0  0  0
 12 13  1  0  0  0  0
 12 24  4  0  0  0  0
 13 14  1  0  0  0  0
 14 15  1  0  0  0  0
 15 16  1  0  0  0  0
 16 17  1  0  0  0  0
 17 18  1  0  0  0  0
 17 23  1  0  0  0  0
 18 19  1  0  0  0  0
 19 20  1  0  0  0  0
 20 21  1  0  0  0  0
 20 22  1  0  0  0  0
 22 23  1  0  0  0  0
 24 25  4  0  0  0  0
 26 27  1  0  0  0  0
 27 28  1  0  0  0  0
 27 29  1  0  0  0  0
M  END
>  <Name_Molregno>
410290

>  <HISTAMINE H3>
8.25

>  <Serotonin transporter>
7.74

$$$$
410291
  Marvin  02231216192D 0   1.00000     0.00000     0

 30 33  0  0  1  0  0  0  0  0999 V2000
    1.5009   -2.8669    0.0000 Cl  0  0  0  0  0  0  0  0  0
    2.2154   -2.4544    0.0000 C   0  0  0  0  0  0  0  0  0
    2.2154   -1.6294    0.0000 C   0  0  0  0  0  0  0  0  0
    2.9299   -1.2169    0.0000 C   0  0  0  0  0  0  0  0  0
    3.6443   -1.6294    0.0000 C   0  0  0  0  0  0  0  0  0
    3.6443   -2.4544    0.0000 C   0  0  0  0  0  0  0  0  0
    2.9299   -2.8669    0.0000 C   0  0  0  0  0  0  0  0  0
    2.9299   -3.6919    0.0000 Cl  0  0  0  0  0  0  0  0  0
    2.9299   -0.3919    0.0000 C   0  0  0  0  0  0  0  0  0
    3.6443    0.0206    0.0000 C   0  0  0  0  0  0  0  0  0
    3.6443    0.8456    0.0000 C   0  0  0  0  0  0  0  0  0
    4.3588    1.2581    0.0000 C   0  0  0  0  0  0  0  0  0
    5.0733    0.8456    0.0000 C   0  0  0  0  0  0  0  0  0
    5.7878    1.2581    0.0000 O   0  0  0  0  0  0  0  0  0
    5.7878    2.0831    0.0000 C   0  0  0  0  0  0  0  0  0
    6.5022    2.4956    0.0000 C   0  0  0  0  0  0  0  0  0
    6.5022    3.3206    0.0000 C   0  0  0  0  0  0  0  0  0
    7.2167    3.7331    0.0000 N   0  0  0  0  0  0  0  0  0
    7.2167    4.5581    0.0000 C   0  0  0  0  0  0  0  0  0
    7.9312    4.9706    0.0000 C   0  0  0  0  0  0  0  0  0
    8.6456    4.5581    0.0000 C   0  0  0  0  0  0  0  0  0
    9.3601    4.9706    0.0000 F   0  0  0  0  0  0  0  0  0
    8.6456    3.7331    0.0000 C   0  0  0  0  0  0  0  0  0
    7.9312    3.3206    0.0000 C   0  0  0  0  0  0  0  0  0
    5.0733    0.0206    0.0000 C   0  0  0  0  0  0  0  0  0
    4.3588   -0.3919    0.0000 C   0  0  0  0  0  0  0  0  0
    2.9299    1.2581    0.0000 C   0  0  0  0  0  0  0  0  0
    2.2154    0.8456    0.0000 N   0  0  0  0  0  0  0  0  0
    2.2154    0.0206    0.0000 C   0  0  0  0  0  0  0  0  0
    1.5009    1.2581    0.0000 C   0  0  0  0  0  0  0  0  0
  1  2  1  0  0  0  0
  2  3  4  0  0  0  0
  2  7  4  0  0  0  0
  3  4  4  0  0  0  0
  4  5  4  0  0  0  0
  4  9  1  0  0  0  0
  5  6  4  0  0  0  0
  6  7  4  0  0  0  0
  7  8  1  0  0  0  0
  9 10  1  0  0  0  0
  9 29  1  0  0  0  0
 10 11  4  0  0  0  0
 10 26  4  0  0  0  0
 11 12  4  0  0  0  0
 11 27  1  0  0  0  0
 12 13  4  0  0  0  0
 13 14  1  0  0  0  0
 13 25  4  0  0  0  0
 14 15  1  0  0  0  0
 15 16  1  0  0  0  0
 16 17  1  0  0  0  0
 17 18  1  0  0  0  0
 18 19  1  0  0  0  0
 18 24  1  0  0  0  0
 19 20  1  0  0  0  0
 20 21  1  0  0  0  0
 21 22  1  0  0  0  0
 21 23  1  0  0  0  0
 23 24  1  0  0  0  0
 25 26  4  0  0  0  0
 27 28  1  0  0  0  0
 28 29  1  0  0  0  0
 28 30  1  0  0  0  0
M  END
>  <Name_Molregno>
410291

>  <HISTAMINE H3>
7.51

>  <Serotonin transporter>
7.68

$$$$
410292
  Marvin  02231216192D 0   1.00000     0.00000     0

 30 33  0  0  1  0  0  0  0  0999 V2000
    3.3999   -1.9489    0.0000 Cl  0  0  0  0  0  0  0  0  0
    2.6855   -2.3614    0.0000 C   0  0  0  0  0  0  0  0  0
    2.6855   -3.1864    0.0000 C   0  0  0  0  0  0  0  0  0
    1.9710   -3.5989    0.0000 C   0  0  0  0  0  0  0  0  0
    1.2565   -3.1864    0.0000 C   0  0  0  0  0  0  0  0  0
    0.5421   -3.5989    0.0000 Cl  0  0  0  0  0  0  0  0  0
    1.2565   -2.3614    0.0000 C   0  0  0  0  0  0  0  0  0
    1.9710   -1.9489    0.0000 C   0  0  0  0  0  0  0  0  0
    1.9710   -1.1239    0.0000 C   0  0  0  0  0  0  0  0  0
    2.6855   -0.7114    0.0000 C   0  0  0  0  0  0  0  0  0
    2.6855    0.1136    0.0000 C   0  0  0  0  0  0  0  0  0
    3.3999    0.5261    0.0000 C   0  0  0  0  0  0  0  0  0
    4.1144    0.1136    0.0000 C   0  0  0  0  0  0  0  0  0
    4.8289    0.5261    0.0000 O   0  0  0  0  0  0  0  0  0
    4.8289    1.3511    0.0000 C   0  0  0  0  0  0  0  0  0
    5.5433    1.7636    0.0000 C   0  0  0  0  0  0  0  0  0
    5.5433    2.5886    0.0000 C   0  0  0  0  0  0  0  0  0
    6.2578    3.0011    0.0000 N   0  0  0  0  0  0  0  0  0
    6.2578    3.8261    0.0000 C   0  0  0  0  0  0  0  0  0
    6.9723    4.2386    0.0000 C   0  0  0  0  0  0  0  0  0
    7.6868    3.8261    0.0000 C   0  0  0  0  0  0  0  0  0
    8.4012    4.2386    0.0000 F   0  0  0  0  0  0  0  0  0
    7.6868    3.0011    0.0000 C   0  0  0  0  0  0  0  0  0
    6.9723    2.5886    0.0000 C   0  0  0  0  0  0  0  0  0
    4.1144   -0.7114    0.0000 C   0  0  0  0  0  0  0  0  0
    3.3999   -1.1239    0.0000 C   0  0  0  0  0  0  0  0  0
    1.9710    0.5261    0.0000 C   0  0  0  0  0  0  0  0  0
    1.2565    0.1136    0.0000 N   0  0  0  0  0  0  0  0  0
    1.2565   -0.7114    0.0000 C   0  0  0  0  0  0  0  0  0
    0.5421    0.5261    0.0000 C   0  0  0  0  0  0  0  0  0
  1  2  1  0  0  0  0
  2  3  4  0  0  0  0
  2  8  4  0  0  0  0
  3  4  4  0  0  0  0
  4  5  4  0  0  0  0
  5  6  1  0  0  0  0
  5  7  4  0  0  0  0
  7  8  4  0  0  0  0
  8  9  1  0  0  0  0
  9 10  1  0  0  0  0
  9 29  1  0  0  0  0
 10 11  4  0  0  0  0
 10 26  4  0  0  0  0
 11 12  4  0  0  0  0
 11 27  1  0  0  0  0
 12 13  4  0  0  0  0
 13 14  1  0  0  0  0
 13 25  4  0  0  0  0
 14 15  1  0  0  0  0
 15 16  1  0  0  0  0
 16 17  1  0  0  0  0
 17 18  1  0  0  0  0
 18 19  1  0  0  0  0
 18 24  1  0  0  0  0
 19 20  1  0  0  0  0
 20 21  1  0  0  0  0
 21 22  1  0  0  0  0
 21 23  1  0  0  0  0
 23 24  1  0  0  0  0
 25 26  4  0  0  0  0
 27 28  1  0  0  0  0
 28 29  1  0  0  0  0
 28 30  1  0  0  0  0
M  END
>  <Name_Molregno>
410292

>  <HISTAMINE H3>
8.03

>  <Serotonin transporter>
6.97

$$$$
410293
  Marvin  02231216192D 0   1.00000     0.00000     0

 28 31  0  0  1  0  0  0  0  0999 V2000
    0.1891   -1.2857    0.0000 F   0  0  0  0  0  0  0  0  0
    0.9035   -0.8732    0.0000 C   0  0  0  0  0  0  0  0  0
    0.9035   -0.0482    0.0000 C   0  0  0  0  0  0  0  0  0
    1.6180    0.3643    0.0000 C   0  0  0  0  0  0  0  0  0
    2.3325   -0.0482    0.0000 N   0  0  0  0  0  0  0  0  0
    2.3325   -0.8732    0.0000 C   0  0  0  0  0  0  0  0  0
    1.6180   -1.2857    0.0000 C   0  0  0  0  0  0  0  0  0
    3.0470    0.3643    0.0000 C   0  0  0  0  0  0  0  0  0
    3.7614   -0.0482    0.0000 C   0  0  0  0  0  0  0  0  0
    4.4759    0.3643    0.0000 C   0  0  0  0  0  0  0  0  0
    5.1904   -0.0482    0.0000 O   0  0  0  0  0  0  0  0  0
    5.9048    0.3643    0.0000 C   0  0  0  0  0  0  0  0  0
    6.6193   -0.0482    0.0000 C   0  0  0  0  0  0  0  0  0
    7.3338    0.3643    0.0000 C   0  0  0  0  0  0  0  0  0
    7.3338    1.1893    0.0000 C   0  0  0  0  0  0  0  0  0
    6.6193    1.6018    0.0000 C   0  0  0  0  0  0  0  0  0
    5.9048    1.1893    0.0000 C   0  0  0  0  0  0  0  0  0
    8.0483    1.6018    0.0000 C   0  0  0  0  0  0  0  0  0
    8.7627    1.1893    0.0000 C   0  0  0  0  0  0  0  0  0
    8.7627    0.3643    0.0000 N   0  0  0  0  0  0  0  0  0
    8.0483   -0.0482    0.0000 C   0  0  0  0  0  0  0  0  0
    9.4772   -0.0482    0.0000 C   0  0  0  0  0  0  0  0  0
    8.0483    2.4268    0.0000 C   0  0  0  0  0  0  0  0  0
    7.3338    2.8393    0.0000 C   0  0  0  0  0  0  0  0  0
    7.3338    3.6643    0.0000 C   0  0  0  0  0  0  0  0  0
    8.0483    4.0768    0.0000 C   0  0  0  0  0  0  0  0  0
    8.7627    3.6643    0.0000 C   0  0  0  0  0  0  0  0  0
    8.7627    2.8393    0.0000 C   0  0  0  0  0  0  0  0  0
  1  2  1  0  0  0  0
  2  3  1  0  0  0  0
  2  7  1  0  0  0  0
  3  4  1  0  0  0  0
  4  5  1  0  0  0  0
  5  6  1  0  0  0  0
  5  8  1  0  0  0  0
  6  7  1  0  0  0  0
  8  9  1  0  0  0  0
  9 10  1  0  0  0  0
 10 11  1  0  0  0  0
 11 12  1  0  0  0  0
 12 13  4  0  0  0  0
 12 17  4  0  0  0  0
 13 14  4  0  0  0  0
 14 15  4  0  0  0  0
 14 21  1  0  0  0  0
 15 16  4  0  0  0  0
 15 18  1  0  0  0  0
 16 17  4  0  0  0  0
 18 19  1  0  0  0  0
 18 23  1  0  0  0  0
 19 20  1  0  0  0  0
 20 21  1  0  0  0  0
 20 22  1  0  0  0  0
 23 24  4  0  0  0  0
 23 28  4  0  0  0  0
 24 25  4  0  0  0  0
 25 26  4  0  0  0  0
 26 27  4  0  0  0  0
 27 28  4  0  0  0  0
M  END
>  <Name_Molregno>
410293

>  <HISTAMINE H3>
8.48

>  <Serotonin transporter>
7.34

$$$$
410294
  Marvin  02231216192D 0   1.00000     0.00000     0

 32 35  0  0  1  0  0  0  0  0999 V2000
    0.3994   -4.1350    0.0000 F   0  0  0  0  0  0  0  0  0
    1.1139   -3.7225    0.0000 C   0  0  0  0  0  0  0  0  0
    1.1139   -2.8975    0.0000 C   0  0  0  0  0  0  0  0  0
    1.8284   -2.4850    0.0000 C   0  0  0  0  0  0  0  0  0
    2.5429   -2.8975    0.0000 N   0  0  0  0  0  0  0  0  0
    2.5429   -3.7225    0.0000 C   0  0  0  0  0  0  0  0  0
    1.8284   -4.1350    0.0000 C   0  0  0  0  0  0  0  0  0
    3.2573   -2.4850    0.0000 C   0  0  0  0  0  0  0  0  0
    3.9718   -2.8975    0.0000 C   0  0  0  0  0  0  0  0  0
    4.6863   -2.4850    0.0000 C   0  0  0  0  0  0  0  0  0
    5.4007   -2.8975    0.0000 O   0  0  0  0  0  0  0  0  0
    6.1152   -2.4850    0.0000 C   0  0  0  0  0  0  0  0  0
    6.8297   -2.8975    0.0000 C   0  0  0  0  0  0  0  0  0
    7.5442   -2.4850    0.0000 C   0  0  0  0  0  0  0  0  0
    7.5442   -1.6600    0.0000 C   0  0  0  0  0  0  0  0  0
    6.8297   -1.2475    0.0000 C   0  0  0  0  0  0  0  0  0
    6.1152   -1.6600    0.0000 C   0  0  0  0  0  0  0  0  0
    8.2586   -1.2475    0.0000 C   0  0  0  0  0  0  0  0  0
    8.9731   -1.6600    0.0000 C   0  0  0  0  0  0  0  0  0
    8.9731   -2.4850    0.0000 N   0  0  0  0  0  0  0  0  0
    8.2586   -2.8975    0.0000 C   0  0  0  0  0  0  0  0  0
    9.6876   -2.8975    0.0000 C   0  0  0  0  0  0  0  0  0
    8.2586   -0.4225    0.0000 C   0  0  0  0  0  0  0  0  0
    7.5442   -0.0100    0.0000 C   0  0  0  0  0  0  0  0  0
    7.5442    0.8150    0.0000 C   0  0  0  0  0  0  0  0  0
    8.2586    1.2275    0.0000 C   0  0  0  0  0  0  0  0  0
    8.9731    0.8150    0.0000 C   0  0  0  0  0  0  0  0  0
    8.9731   -0.0100    0.0000 C   0  0  0  0  0  0  0  0  0
    8.2586    2.0525    0.0000 C   0  0  0  0  0  0  0  0  0
    8.2586    2.8775    0.0000 F   0  0  0  0  0  0  0  0  0
    9.0836    2.0525    0.0000 F   0  0  0  0  0  0  0  0  0
    7.4336    2.0525    0.0000 F   0  0  0  0  0  0  0  0  0
  1  2  1  0  0  0  0
  2  3  1  0  0  0  0
  2  7  1  0  0  0  0
  3  4  1  0  0  0  0
  4  5  1  0  0  0  0
  5  6  1  0  0  0  0
  5  8  1  0  0  0  0
  6  7  1  0  0  0  0
  8  9  1  0  0  0  0
  9 10  1  0  0  0  0
 10 11  1  0  0  0  0
 11 12  1  0  0  0  0
 12 13  4  0  0  0  0
 12 17  4  0  0  0  0
 13 14  4  0  0  0  0
 14 15  4  0  0  0  0
 14 21  1  0  0  0  0
 15 16  4  0  0  0  0
 15 18  1  0  0  0  0
 16 17  4  0  0  0  0
 18 19  1  0  0  0  0
 18 23  1  0  0  0  0
 19 20  1  0  0  0  0
 20 21  1  0  0  0  0
 20 22  1  0  0  0  0
 23 24  4  0  0  0  0
 23 28  4  0  0  0  0
 24 25  4  0  0  0  0
 25 26  4  0  0  0  0
 26 27  4  0  0  0  0
 26 29  1  0  0  0  0
 27 28  4  0  0  0  0
 29 30  1  0  0  0  0
 29 31  1  0  0  0  0
 29 32  1  0  0  0  0
M  END
>  <Name_Molregno>
410294

>  <HISTAMINE H3>
7.74

>  <Serotonin transporter>
8.07

$$$$
410295
  Marvin  02231216192D 0   1.00000     0.00000     0

 32 35  0  0  1  0  0  0  0  0999 V2000
    0.7049   -1.2384    0.0000 F   0  0  0  0  0  0  0  0  0
    1.4194   -0.8259    0.0000 C   0  0  0  0  0  0  0  0  0
    1.4194   -0.0009    0.0000 C   0  0  0  0  0  0  0  0  0
    2.1339    0.4116    0.0000 C   0  0  0  0  0  0  0  0  0
    2.8483   -0.0009    0.0000 N   0  0  0  0  0  0  0  0  0
    2.8483   -0.8259    0.0000 C   0  0  0  0  0  0  0  0  0
    2.1339   -1.2384    0.0000 C   0  0  0  0  0  0  0  0  0
    3.5628    0.4116    0.0000 C   0  0  0  0  0  0  0  0  0
    4.2773   -0.0009    0.0000 C   0  0  0  0  0  0  0  0  0
    4.9917    0.4116    0.0000 C   0  0  0  0  0  0  0  0  0
    5.7062   -0.0009    0.0000 O   0  0  0  0  0  0  0  0  0
    6.4207    0.4116    0.0000 C   0  0  0  0  0  0  0  0  0
    7.1351   -0.0009    0.0000 C   0  0  0  0  0  0  0  0  0
    7.8496    0.4116    0.0000 C   0  0  0  0  0  0  0  0  0
    7.8496    1.2366    0.0000 C   0  0  0  0  0  0  0  0  0
    7.1351    1.6491    0.0000 C   0  0  0  0  0  0  0  0  0
    6.4207    1.2366    0.0000 C   0  0  0  0  0  0  0  0  0
    8.5641    1.6491    0.0000 C   0  0  0  0  0  0  0  0  0
    9.2786    1.2366    0.0000 C   0  0  0  0  0  0  0  0  0
    9.2786    0.4116    0.0000 N   0  0  0  0  0  0  0  0  0
    8.5641   -0.0009    0.0000 C   0  0  0  0  0  0  0  0  0
    9.9930   -0.0009    0.0000 C   0  0  0  0  0  0  0  0  0
    8.5641    2.4741    0.0000 C   0  0  0  0  0  0  0  0  0
    7.8496    2.8866    0.0000 C   0  0  0  0  0  0  0  0  0
    7.8496    3.7116    0.0000 C   0  0  0  0  0  0  0  0  0
    8.5641    4.1241    0.0000 C   0  0  0  0  0  0  0  0  0
    9.2786    3.7116    0.0000 C   0  0  0  0  0  0  0  0  0
    9.2786    2.8866    0.0000 C   0  0  0  0  0  0  0  0  0
    7.1351    4.1241    0.0000 C   0  0  0  0  0  0  0  0  0
    6.4207    4.5366    0.0000 F   0  0  0  0  0  0  0  0  0
    7.5476    4.8385    0.0000 F   0  0  0  0  0  0  0  0  0
    6.7226    3.4096    0.0000 F   0  0  0  0  0  0  0  0  0
  1  2  1  0  0  0  0
  2  3  1  0  0  0  0
  2  7  1  0  0  0  0
  3  4  1  0  0  0  0
  4  5  1  0  0  0  0
  5  6  1  0  0  0  0
  5  8  1  0  0  0  0
  6  7  1  0  0  0  0
  8  9  1  0  0  0  0
  9 10  1  0  0  0  0
 10 11  1  0  0  0  0
 11 12  1  0  0  0  0
 12 13  4  0  0  0  0
 12 17  4  0  0  0  0
 13 14  4  0  0  0  0
 14 15  4  0  0  0  0
 14 21  1  0  0  0  0
 15 16  4  0  0  0  0
 15 18  1  0  0  0  0
 16 17  4  0  0  0  0
 18 19  1  0  0  0  0
 18 23  1  0  0  0  0
 19 20  1  0  0  0  0
 20 21  1  0  0  0  0
 20 22  1  0  0  0  0
 23 24  4  0  0  0  0
 23 28  4  0  0  0  0
 24 25  4  0  0  0  0
 25 26  4  0  0  0  0
 25 29  1  0  0  0  0
 26 27  4  0  0  0  0
 27 28  4  0  0  0  0
 29 30  1  0  0  0  0
 29 31  1  0  0  0  0
 29 32  1  0  0  0  0
M  END
>  <Name_Molregno>
410295

>  <HISTAMINE H3>
7.96

>  <Serotonin transporter>
7.82

$$$$
410296
  Marvin  02231216192D 0   1.00000     0.00000     0

 30 33  0  0  1  0  0  0  0  0999 V2000
   -6.4953   -3.8369    0.0000 S   0  0  0  0  0  0  0  0  0
   -7.2098   -4.2494    0.0000 C   0  0  0  0  0  0  0  0  0
   -6.4953   -3.0119    0.0000 C   0  0  0  0  0  0  0  0  0
   -7.2098   -2.5994    0.0000 C   0  0  0  0  0  0  0  0  0
   -7.2098   -1.7744    0.0000 C   0  0  0  0  0  0  0  0  0
   -6.4953   -1.3619    0.0000 C   0  0  0  0  0  0  0  0  0
   -5.7808   -1.7744    0.0000 C   0  0  0  0  0  0  0  0  0
   -5.7808   -2.5994    0.0000 C   0  0  0  0  0  0  0  0  0
   -6.4953   -0.5369    0.0000 C   0  0  0  0  0  0  0  0  0
   -5.7808   -0.1244    0.0000 C   0  0  0  0  0  0  0  0  0
   -5.7808    0.7006    0.0000 C   0  0  0  0  0  0  0  0  0
   -5.0664    1.1131    0.0000 C   0  0  0  0  0  0  0  0  0
   -4.3519    0.7006    0.0000 C   0  0  0  0  0  0  0  0  0
   -3.6374    1.1131    0.0000 O   0  0  0  0  0  0  0  0  0
   -3.6374    1.9381    0.0000 C   0  0  0  0  0  0  0  0  0
   -2.9230    2.3506    0.0000 C   0  0  0  0  0  0  0  0  0
   -2.9230    3.1756    0.0000 C   0  0  0  0  0  0  0  0  0
   -2.2085    3.5881    0.0000 N   0  0  0  0  0  0  0  0  0
   -2.2085    4.4131    0.0000 C   0  0  0  0  0  0  0  0  0
   -1.4940    4.8256    0.0000 C   0  0  0  0  0  0  0  0  0
   -0.7795    4.4131    0.0000 C   0  0  0  0  0  0  0  0  0
   -0.0651    4.8256    0.0000 F   0  0  0  0  0  0  0  0  0
   -0.7795    3.5881    0.0000 C   0  0  0  0  0  0  0  0  0
   -1.4940    3.1756    0.0000 C   0  0  0  0  0  0  0  0  0
   -4.3519   -0.1244    0.0000 C   0  0  0  0  0  0  0  0  0
   -5.0664   -0.5369    0.0000 C   0  0  0  0  0  0  0  0  0
   -6.4953    1.1131    0.0000 C   0  0  0  0  0  0  0  0  0
   -7.2098    0.7006    0.0000 N   0  0  0  0  0  0  0  0  0
   -7.2098   -0.1244    0.0000 C   0  0  0  0  0  0  0  0  0
   -7.9243    1.1131    0.0000 C   0  0  0  0  0  0  0  0  0
  1  2  1  0  0  0  0
  1  3  1  0  0  0  0
  3  4  4  0  0  0  0
  3  8  4  0  0  0  0
  4  5  4  0  0  0  0
  5  6  4  0  0  0  0
  6  7  4  0  0  0  0
  6  9  1  0  0  0  0
  7  8  4  0  0  0  0
  9 10  1  0  0  0  0
  9 29  1  0  0  0  0
 10 11  4  0  0  0  0
 10 26  4  0  0  0  0
 11 12  4  0  0  0  0
 11 27  1  0  0  0  0
 12 13  4  0  0  0  0
 13 14  1  0  0  0  0
 13 25  4  0  0  0  0
 14 15  1  0  0  0  0
 15 16  1  0  0  0  0
 16 17  1  0  0  0  0
 17 18  1  0  0  0  0
 18 19  1  0  0  0  0
 18 24  1  0  0  0  0
 19 20  1  0  0  0  0
 20 21  1  0  0  0  0
 21 22  1  0  0  0  0
 21 23  1  0  0  0  0
 23 24  1  0  0  0  0
 25 26  4  0  0  0  0
 27 28  1  0  0  0  0
 28 29  1  0  0  0  0
 28 30  1  0  0  0  0
M  END
>  <Name_Molregno>
410296

>  <Dopamine transporter>
7.34

>  <HISTAMINE H3>
7.93

>  <Norepinephrine transporter>
6.93

>  <Serotonin transporter>
8.38

$$$$
410297
  Marvin  02231216192D 0   1.00000     0.00000     0

 30 33  0  0  1  0  0  0  0  0999 V2000
    0.3039   -3.7355    0.0000 F   0  0  0  0  0  0  0  0  0
    1.0184   -3.3230    0.0000 C   0  0  0  0  0  0  0  0  0
    1.0184   -2.4980    0.0000 C   0  0  0  0  0  0  0  0  0
    1.7328   -2.0855    0.0000 C   0  0  0  0  0  0  0  0  0
    2.4473   -2.4980    0.0000 N   0  0  0  0  0  0  0  0  0
    2.4473   -3.3230    0.0000 C   0  0  0  0  0  0  0  0  0
    1.7328   -3.7355    0.0000 C   0  0  0  0  0  0  0  0  0
    3.1618   -2.0855    0.0000 C   0  0  0  0  0  0  0  0  0
    3.8762   -2.4980    0.0000 C   0  0  0  0  0  0  0  0  0
    4.5907   -2.0855    0.0000 C   0  0  0  0  0  0  0  0  0
    5.3052   -2.4980    0.0000 O   0  0  0  0  0  0  0  0  0
    6.0196   -2.0855    0.0000 C   0  0  0  0  0  0  0  0  0
    6.7341   -2.4980    0.0000 C   0  0  0  0  0  0  0  0  0
    7.4486   -2.0855    0.0000 C   0  0  0  0  0  0  0  0  0
    7.4486   -1.2605    0.0000 C   0  0  0  0  0  0  0  0  0
    6.7341   -0.8480    0.0000 C   0  0  0  0  0  0  0  0  0
    6.0196   -1.2605    0.0000 C   0  0  0  0  0  0  0  0  0
    8.1631   -0.8480    0.0000 C   0  0  0  0  0  0  0  0  0
    8.8775   -1.2605    0.0000 C   0  0  0  0  0  0  0  0  0
    8.8775   -2.0855    0.0000 N   0  0  0  0  0  0  0  0  0
    8.1631   -2.4980    0.0000 C   0  0  0  0  0  0  0  0  0
    9.5920   -2.4980    0.0000 C   0  0  0  0  0  0  0  0  0
    8.1631   -0.0230    0.0000 C   0  0  0  0  0  0  0  0  0
    7.4486    0.3895    0.0000 C   0  0  0  0  0  0  0  0  0
    7.4486    1.2145    0.0000 C   0  0  0  0  0  0  0  0  0
    8.1631    1.6270    0.0000 C   0  0  0  0  0  0  0  0  0
    8.8775    1.2145    0.0000 C   0  0  0  0  0  0  0  0  0
    8.8775    0.3895    0.0000 C   0  0  0  0  0  0  0  0  0
    8.1631    2.4520    0.0000 C   0  0  0  0  0  0  0  0  0
    8.1631    3.2770    0.0000 N   0  0  0  0  0  0  0  0  0
  1  2  1  0  0  0  0
  2  3  1  0  0  0  0
  2  7  1  0  0  0  0
  3  4  1  0  0  0  0
  4  5  1  0  0  0  0
  5  6  1  0  0  0  0
  5  8  1  0  0  0  0
  6  7  1  0  0  0  0
  8  9  1  0  0  0  0
  9 10  1  0  0  0  0
 10 11  1  0  0  0  0
 11 12  1  0  0  0  0
 12 13  4  0  0  0  0
 12 17  4  0  0  0  0
 13 14  4  0  0  0  0
 14 15  4  0  0  0  0
 14 21  1  0  0  0  0
 15 16  4  0  0  0  0
 15 18  1  0  0  0  0
 16 17  4  0  0  0  0
 18 19  1  0  0  0  0
 18 23  1  0  0  0  0
 19 20  1  0  0  0  0
 20 21  1  0  0  0  0
 20 22  1  0  0  0  0
 23 24  4  0  0  0  0
 23 28  4  0  0  0  0
 24 25  4  0  0  0  0
 25 26  4  0  0  0  0
 26 27  4  0  0  0  0
 26 29  1  0  0  0  0
 27 28  4  0  0  0  0
 29 30  3  0  0  0  0
M  END
>  <Name_Molregno>
410297

>  <HISTAMINE H3>
8.46

>  <Serotonin transporter>
7.8

$$$$
410298
  Marvin  02231216192D 0   1.00000     0.00000     0

 29 32  0  0  1  0  0  0  0  0999 V2000
    0.2502   -1.5491    0.0000 F   0  0  0  0  0  0  0  0  0
    0.9647   -1.1366    0.0000 C   0  0  0  0  0  0  0  0  0
    0.9647   -0.3116    0.0000 C   0  0  0  0  0  0  0  0  0
    1.6792    0.1009    0.0000 C   0  0  0  0  0  0  0  0  0
    2.3936   -0.3116    0.0000 N   0  0  0  0  0  0  0  0  0
    2.3936   -1.1366    0.0000 C   0  0  0  0  0  0  0  0  0
    1.6792   -1.5491    0.0000 C   0  0  0  0  0  0  0  0  0
    3.1081    0.1009    0.0000 C   0  0  0  0  0  0  0  0  0
    3.8226   -0.3116    0.0000 C   0  0  0  0  0  0  0  0  0
    4.5371    0.1009    0.0000 C   0  0  0  0  0  0  0  0  0
    5.2515   -0.3116    0.0000 O   0  0  0  0  0  0  0  0  0
    5.9660    0.1009    0.0000 C   0  0  0  0  0  0  0  0  0
    6.6805   -0.3116    0.0000 C   0  0  0  0  0  0  0  0  0
    7.3949    0.1009    0.0000 C   0  0  0  0  0  0  0  0  0
    7.3949    0.9259    0.0000 C   0  0  0  0  0  0  0  0  0
    6.6805    1.3384    0.0000 C   0  0  0  0  0  0  0  0  0
    5.9660    0.9259    0.0000 C   0  0  0  0  0  0  0  0  0
    8.1094    1.3384    0.0000 C   0  0  0  0  0  0  0  0  0
    8.8239    0.9259    0.0000 C   0  0  0  0  0  0  0  0  0
    8.8239    0.1009    0.0000 N   0  0  0  0  0  0  0  0  0
    8.1094   -0.3116    0.0000 C   0  0  0  0  0  0  0  0  0
    9.5384   -0.3116    0.0000 C   0  0  0  0  0  0  0  0  0
    8.1094    2.1634    0.0000 C   0  0  0  0  0  0  0  0  0
    7.3949    2.5759    0.0000 C   0  0  0  0  0  0  0  0  0
    7.3949    3.4009    0.0000 C   0  0  0  0  0  0  0  0  0
    8.1094    3.8134    0.0000 C   0  0  0  0  0  0  0  0  0
    8.8239    3.4009    0.0000 C   0  0  0  0  0  0  0  0  0
    8.8239    2.5759    0.0000 C   0  0  0  0  0  0  0  0  0
    8.1094    4.6384    0.0000 C   0  0  0  0  0  0  0  0  0
  1  2  1  0  0  0  0
  2  3  1  0  0  0  0
  2  7  1  0  0  0  0
  3  4  1  0  0  0  0
  4  5  1  0  0  0  0
  5  6  1  0  0  0  0
  5  8  1  0  0  0  0
  6  7  1  0  0  0  0
  8  9  1  0  0  0  0
  9 10  1  0  0  0  0
 10 11  1  0  0  0  0
 11 12  1  0  0  0  0
 12 13  4  0  0  0  0
 12 17  4  0  0  0  0
 13 14  4  0  0  0  0
 14 15  4  0  0  0  0
 14 21  1  0  0  0  0
 15 16  4  0  0  0  0
 15 18  1  0  0  0  0
 16 17  4  0  0  0  0
 18 19  1  0  0  0  0
 18 23  1  0  0  0  0
 19 20  1  0  0  0  0
 20 21  1  0  0  0  0
 20 22  1  0  0  0  0
 23 24  4  0  0  0  0
 23 28  4  0  0  0  0
 24 25  4  0  0  0  0
 25 26  4  0  0  0  0
 26 27  4  0  0  0  0
 26 29  1  0  0  0  0
 27 28  4  0  0  0  0
M  END
>  <Name_Molregno>
410298

>  <HISTAMINE H3>
8.08

>  <Serotonin transporter>
7.89

$$$$
410299
  Marvin  02231216192D 0   1.00000     0.00000     0

 33 36  0  0  1  0  0  0  0  0999 V2000
   -5.7329   -4.7163    0.0000 S   0  0  0  0  0  0  0  0  0
   -6.4474   -5.1288    0.0000 C   0  0  0  0  0  0  0  0  0
   -7.1619   -5.5413    0.0000 F   0  0  0  0  0  0  0  0  0
   -6.0349   -5.8432    0.0000 F   0  0  0  0  0  0  0  0  0
   -6.8599   -4.4143    0.0000 F   0  0  0  0  0  0  0  0  0
   -5.7329   -3.8913    0.0000 C   0  0  0  0  0  0  0  0  0
   -6.4474   -3.4788    0.0000 C   0  0  0  0  0  0  0  0  0
   -6.4474   -2.6538    0.0000 C   0  0  0  0  0  0  0  0  0
   -5.7329   -2.2413    0.0000 C   0  0  0  0  0  0  0  0  0
   -5.0184   -2.6538    0.0000 C   0  0  0  0  0  0  0  0  0
   -5.0184   -3.4788    0.0000 C   0  0  0  0  0  0  0  0  0
   -5.7329   -1.4163    0.0000 C   0  0  0  0  0  0  0  0  0
   -5.0184   -1.0038    0.0000 C   0  0  0  0  0  0  0  0  0
   -5.0184   -0.1788    0.0000 C   0  0  0  0  0  0  0  0  0
   -4.3040    0.2337    0.0000 C   0  0  0  0  0  0  0  0  0
   -3.5895   -0.1788    0.0000 C   0  0  0  0  0  0  0  0  0
   -2.8750    0.2337    0.0000 O   0  0  0  0  0  0  0  0  0
   -2.8750    1.0587    0.0000 C   0  0  0  0  0  0  0  0  0
   -2.1606    1.4712    0.0000 C   0  0  0  0  0  0  0  0  0
   -2.1606    2.2962    0.0000 C   0  0  0  0  0  0  0  0  0
   -1.4461    2.7087    0.0000 N   0  0  0  0  0  0  0  0  0
   -1.4461    3.5337    0.0000 C   0  0  0  0  0  0  0  0  0
   -0.7316    3.9462    0.0000 C   0  0  0  0  0  0  0  0  0
   -0.0172    3.5337    0.0000 C   0  0  0  0  0  0  0  0  0
    0.6973    3.9462    0.0000 F   0  0  0  0  0  0  0  0  0
   -0.0172    2.7087    0.0000 C   0  0  0  0  0  0  0  0  0
   -0.7316    2.2962    0.0000 C   0  0  0  0  0  0  0  0  0
   -3.5895   -1.0038    0.0000 C   0  0  0  0  0  0  0  0  0
   -4.3040   -1.4163    0.0000 C   0  0  0  0  0  0  0  0  0
   -5.7329    0.2337    0.0000 C   0  0  0  0  0  0  0  0  0
   -6.4474   -0.1788    0.0000 N   0  0  0  0  0  0  0  0  0
   -6.4474   -1.0038    0.0000 C   0  0  0  0  0  0  0  0  0
   -7.1619    0.2337    0.0000 C   0  0  0  0  0  0  0  0  0
  1  2  1  0  0  0  0
  1  6  1  0  0  0  0
  2  3  1  0  0  0  0
  2  4  1  0  0  0  0
  2  5  1  0  0  0  0
  6  7  4  0  0  0  0
  6 11  4  0  0  0  0
  7  8  4  0  0  0  0
  8  9  4  0  0  0  0
  9 10  4  0  0  0  0
  9 12  1  0  0  0  0
 10 11  4  0  0  0  0
 12 13  1  0  0  0  0
 12 32  1  0  0  0  0
 13 14  4  0  0  0  0
 13 29  4  0  0  0  0
 14 15  4  0  0  0  0
 14 30  1  0  0  0  0
 15 16  4  0  0  0  0
 16 17  1  0  0  0  0
 16 28  4  0  0  0  0
 17 18  1  0  0  0  0
 18 19  1  0  0  0  0
 19 20  1  0  0  0  0
 20 21  1  0  0  0  0
 21 22  1  0  0  0  0
 21 27  1  0  0  0  0
 22 23  1  0  0  0  0
 23 24  1  0  0  0  0
 24 25  1  0  0  0  0
 24 26  1  0  0  0  0
 26 27  1  0  0  0  0
 28 29  4  0  0  0  0
 30 31  1  0  0  0  0
 31 32  1  0  0  0  0
 31 33  1  0  0  0  0
M  END
>  <Name_Molregno>
410299

>  <HISTAMINE H3>
7.34

>  <Serotonin transporter>
7.47

$$$$
410300
  Marvin  02231216192D 0   1.00000     0.00000     0

 32 35  0  0  1  0  0  0  0  0999 V2000
   -6.1112   -4.8247    0.0000 S   0  0  0  0  0  0  0  0  0
   -6.1112   -5.6497    0.0000 O   0  0  0  0  0  0  0  0  0
   -5.2862   -4.8247    0.0000 O   0  0  0  0  0  0  0  0  0
   -6.9362   -4.8247    0.0000 C   0  0  0  0  0  0  0  0  0
   -6.1112   -3.9997    0.0000 C   0  0  0  0  0  0  0  0  0
   -6.8257   -3.5872    0.0000 C   0  0  0  0  0  0  0  0  0
   -6.8257   -2.7622    0.0000 C   0  0  0  0  0  0  0  0  0
   -6.1112   -2.3497    0.0000 C   0  0  0  0  0  0  0  0  0
   -5.3967   -2.7622    0.0000 C   0  0  0  0  0  0  0  0  0
   -5.3967   -3.5872    0.0000 C   0  0  0  0  0  0  0  0  0
   -6.1112   -1.5247    0.0000 C   0  0  0  0  0  0  0  0  0
   -5.3967   -1.1122    0.0000 C   0  0  0  0  0  0  0  0  0
   -5.3967   -0.2872    0.0000 C   0  0  0  0  0  0  0  0  0
   -4.6823    0.1253    0.0000 C   0  0  0  0  0  0  0  0  0
   -3.9678   -0.2872    0.0000 C   0  0  0  0  0  0  0  0  0
   -3.2533    0.1253    0.0000 O   0  0  0  0  0  0  0  0  0
   -3.2533    0.9503    0.0000 C   0  0  0  0  0  0  0  0  0
   -2.5388    1.3628    0.0000 C   0  0  0  0  0  0  0  0  0
   -2.5388    2.1878    0.0000 C   0  0  0  0  0  0  0  0  0
   -1.8244    2.6003    0.0000 N   0  0  0  0  0  0  0  0  0
   -1.8244    3.4253    0.0000 C   0  0  0  0  0  0  0  0  0
   -1.1099    3.8378    0.0000 C   0  0  0  0  0  0  0  0  0
   -0.3954    3.4253    0.0000 C   0  0  0  0  0  0  0  0  0
    0.3190    3.8378    0.0000 F   0  0  0  0  0  0  0  0  0
   -0.3954    2.6003    0.0000 C   0  0  0  0  0  0  0  0  0
   -1.1099    2.1878    0.0000 C   0  0  0  0  0  0  0  0  0
   -3.9678   -1.1122    0.0000 C   0  0  0  0  0  0  0  0  0
   -4.6823   -1.5247    0.0000 C   0  0  0  0  0  0  0  0  0
   -6.1112    0.1253    0.0000 C   0  0  0  0  0  0  0  0  0
   -6.8257   -0.2872    0.0000 N   0  0  0  0  0  0  0  0  0
   -6.8257   -1.1122    0.0000 C   0  0  0  0  0  0  0  0  0
   -7.5401    0.1253    0.0000 C   0  0  0  0  0  0  0  0  0
  1  2  2  0  0  0  0
  1  3  2  0  0  0  0
  1  4  1  0  0  0  0
  1  5  1  0  0  0  0
  5  6  4  0  0  0  0
  5 10  4  0  0  0  0
  6  7  4  0  0  0  0
  7  8  4  0  0  0  0
  8  9  4  0  0  0  0
  8 11  1  0  0  0  0
  9 10  4  0  0  0  0
 11 12  1  0  0  0  0
 11 31  1  0  0  0  0
 12 13  4  0  0  0  0
 12 28  4  0  0  0  0
 13 14  4  0  0  0  0
 13 29  1  0  0  0  0
 14 15  4  0  0  0  0
 15 16  1  0  0  0  0
 15 27  4  0  0  0  0
 16 17  1  0  0  0  0
 17 18  1  0  0  0  0
 18 19  1  0  0  0  0
 19 20  1  0  0  0  0
 20 21  1  0  0  0  0
 20 26  1  0  0  0  0
 21 22  1  0  0  0  0
 22 23  1  0  0  0  0
 23 24  1  0  0  0  0
 23 25  1  0  0  0  0
 25 26  1  0  0  0  0
 27 28  4  0  0  0  0
 29 30  1  0  0  0  0
 30 31  1  0  0  0  0
 30 32  1  0  0  0  0
M  END
>  <Name_Molregno>
410300

>  <HISTAMINE H3>
8.7

>  <Serotonin transporter>
6.87

$$$$
410301
  Marvin  02231216192D 0   1.00000     0.00000     0

 32 35  0  0  1  0  0  0  0  0999 V2000
    7.4579   -5.8986    0.0000 F   0  0  0  0  0  0  0  0  0
    6.7434   -5.4861    0.0000 C   0  0  0  0  0  0  0  0  0
    6.0289   -5.8986    0.0000 C   0  0  0  0  0  0  0  0  0
    5.3145   -5.4861    0.0000 C   0  0  0  0  0  0  0  0  0
    5.3145   -4.6611    0.0000 N   0  0  0  0  0  0  0  0  0
    6.0289   -4.2486    0.0000 C   0  0  0  0  0  0  0  0  0
    6.7434   -4.6611    0.0000 C   0  0  0  0  0  0  0  0  0
    4.6000   -4.2486    0.0000 C   0  0  0  0  0  0  0  0  0
    4.6000   -3.4236    0.0000 C   0  0  0  0  0  0  0  0  0
    3.8855   -3.0111    0.0000 C   0  0  0  0  0  0  0  0  0
    3.8855   -2.1861    0.0000 O   0  0  0  0  0  0  0  0  0
    4.6000   -1.7736    0.0000 C   0  0  0  0  0  0  0  0  0
    5.3145   -2.1861    0.0000 C   0  0  0  0  0  0  0  0  0
    6.0289   -1.7736    0.0000 C   0  0  0  0  0  0  0  0  0
    6.0289   -0.9486    0.0000 C   0  0  0  0  0  0  0  0  0
    5.3145   -0.5361    0.0000 C   0  0  0  0  0  0  0  0  0
    4.6000   -0.9486    0.0000 C   0  0  0  0  0  0  0  0  0
    6.7434   -0.5361    0.0000 C   0  0  0  0  0  0  0  0  0
    7.4579   -0.9486    0.0000 C   0  0  0  0  0  0  0  0  0
    7.4579   -1.7736    0.0000 N   0  0  0  0  0  0  0  0  0
    6.7434   -2.1861    0.0000 C   0  0  0  0  0  0  0  0  0
    8.1724   -2.1861    0.0000 C   0  0  0  0  0  0  0  0  0
    6.7434    0.2889    0.0000 C   0  0  0  0  0  0  0  0  0
    6.0289    0.7014    0.0000 C   0  0  0  0  0  0  0  0  0
    6.0289    1.5264    0.0000 C   0  0  0  0  0  0  0  0  0
    6.7434    1.9389    0.0000 C   0  0  0  0  0  0  0  0  0
    6.7434    2.7639    0.0000 O   0  0  0  0  0  0  0  0  0
    7.4579    3.1764    0.0000 C   0  0  0  0  0  0  0  0  0
    7.4579    4.0014    0.0000 F   0  0  0  0  0  0  0  0  0
    8.1724    2.7639    0.0000 F   0  0  0  0  0  0  0  0  0
    7.4579    1.5264    0.0000 C   0  0  0  0  0  0  0  0  0
    7.4579    0.7014    0.0000 C   0  0  0  0  0  0  0  0  0
  1  2  1  0  0  0  0
  2  3  1  0  0  0  0
  2  7  1  0  0  0  0
  3  4  1  0  0  0  0
  4  5  1  0  0  0  0
  5  6  1  0  0  0  0
  5  8  1  0  0  0  0
  6  7  1  0  0  0  0
  8  9  1  0  0  0  0
  9 10  1  0  0  0  0
 10 11  1  0  0  0  0
 11 12  1  0  0  0  0
 12 13  4  0  0  0  0
 12 17  4  0  0  0  0
 13 14  4  0  0  0  0
 14 15  4  0  0  0  0
 14 21  1  0  0  0  0
 15 16  4  0  0  0  0
 15 18  1  0  0  0  0
 16 17  4  0  0  0  0
 18 19  1  0  0  0  0
 18 23  1  0  0  0  0
 19 20  1  0  0  0  0
 20 21  1  0  0  0  0
 20 22  1  0  0  0  0
 23 24  4  0  0  0  0
 23 32  4  0  0  0  0
 24 25  4  0  0  0  0
 25 26  4  0  0  0  0
 26 27  1  0  0  0  0
 26 31  4  0  0  0  0
 27 28  1  0  0  0  0
 28 29  1  0  0  0  0
 28 30  1  0  0  0  0
 31 32  4  0  0  0  0
M  END
>  <Name_Molregno>
410301

>  <HISTAMINE H3>
8

>  <Serotonin transporter>
8.37

$$$$
410302
  Marvin  02231216192D 0   1.00000     0.00000     0

 29 32  0  0  1  0  0  0  0  0999 V2000
   -6.1879   -3.6353    0.0000 S   0  0  0  0  0  0  0  0  0
   -5.4734   -4.0478    0.0000 C   0  0  0  0  0  0  0  0  0
   -6.1879   -2.8103    0.0000 C   0  0  0  0  0  0  0  0  0
   -6.9023   -2.3978    0.0000 C   0  0  0  0  0  0  0  0  0
   -6.9023   -1.5728    0.0000 C   0  0  0  0  0  0  0  0  0
   -6.1879   -1.1603    0.0000 C   0  0  0  0  0  0  0  0  0
   -5.4734   -1.5728    0.0000 C   0  0  0  0  0  0  0  0  0
   -5.4734   -2.3978    0.0000 C   0  0  0  0  0  0  0  0  0
   -6.1879   -0.3353    0.0000 C   0  0  0  0  0  0  0  0  0
   -5.4734    0.0772    0.0000 C   0  0  0  0  0  0  0  0  0
   -5.4734    0.9022    0.0000 C   0  0  0  0  0  0  0  0  0
   -4.7589    1.3147    0.0000 C   0  0  0  0  0  0  0  0  0
   -4.0445    0.9022    0.0000 C   0  0  0  0  0  0  0  0  0
   -3.3300    1.3147    0.0000 O   0  0  0  0  0  0  0  0  0
   -3.3300    2.1397    0.0000 C   0  0  0  0  0  0  0  0  0
   -2.6155    2.5522    0.0000 C   0  0  0  0  0  0  0  0  0
   -2.6155    3.3772    0.0000 C   0  0  0  0  0  0  0  0  0
   -1.9010    3.7897    0.0000 N   0  0  0  0  0  0  0  0  0
   -1.9010    4.6147    0.0000 C   0  0  0  0  0  0  0  0  0
   -1.1866    5.0272    0.0000 C   0  0  0  0  0  0  0  0  0
   -0.4721    4.6147    0.0000 O   0  0  0  0  0  0  0  0  0
   -0.4721    3.7897    0.0000 C   0  0  0  0  0  0  0  0  0
   -1.1866    3.3772    0.0000 C   0  0  0  0  0  0  0  0  0
   -4.0445    0.0772    0.0000 C   0  0  0  0  0  0  0  0  0
   -4.7589   -0.3353    0.0000 C   0  0  0  0  0  0  0  0  0
   -6.1879    1.3147    0.0000 C   0  0  0  0  0  0  0  0  0
   -6.9023    0.9022    0.0000 N   0  0  0  0  0  0  0  0  0
   -6.9023    0.0772    0.0000 C   0  0  0  0  0  0  0  0  0
   -7.6168    1.3147    0.0000 C   0  0  0  0  0  0  0  0  0
  1  2  1  0  0  0  0
  1  3  1  0  0  0  0
  3  4  4  0  0  0  0
  3  8  4  0  0  0  0
  4  5  4  0  0  0  0
  5  6  4  0  0  0  0
  6  7  4  0  0  0  0
  6  9  1  0  0  0  0
  7  8  4  0  0  0  0
  9 10  1  0  0  0  0
  9 28  1  0  0  0  0
 10 11  4  0  0  0  0
 10 25  4  0  0  0  0
 11 12  4  0  0  0  0
 11 26  1  0  0  0  0
 12 13  4  0  0  0  0
 13 14  1  0  0  0  0
 13 24  4  0  0  0  0
 14 15  1  0  0  0  0
 15 16  1  0  0  0  0
 16 17  1  0  0  0  0
 17 18  1  0  0  0  0
 18 19  1  0  0  0  0
 18 23  1  0  0  0  0
 19 20  1  0  0  0  0
 20 21  1  0  0  0  0
 21 22  1  0  0  0  0
 22 23  1  0  0  0  0
 24 25  4  0  0  0  0
 26 27  1  0  0  0  0
 27 28  1  0  0  0  0
 27 29  1  0  0  0  0
M  END
>  <Name_Molregno>
410302

>  <Dopamine transporter>
7.54

>  <HISTAMINE H3>
7.95

>  <Norepinephrine transporter>
6.97

>  <Serotonin transporter>
8.32

$$$$
410303
  Marvin  02231216192D 0   1.00000     0.00000     0

 30 33  0  0  1  0  0  0  0  0999 V2000
  -10.1544   -3.2776    0.0000 O   0  0  0  0  0  0  0  0  0
  -10.1544   -2.4526    0.0000 C   0  0  0  0  0  0  0  0  0
   -9.4400   -2.0401    0.0000 C   0  0  0  0  0  0  0  0  0
   -8.7255   -2.4526    0.0000 N   0  0  0  0  0  0  0  0  0
   -8.7255   -3.2776    0.0000 C   0  0  0  0  0  0  0  0  0
   -9.4400   -3.6901    0.0000 C   0  0  0  0  0  0  0  0  0
   -8.0110   -2.0401    0.0000 C   0  0  0  0  0  0  0  0  0
   -7.2965   -2.4526    0.0000 C   0  0  0  0  0  0  0  0  0
   -6.5821   -2.0401    0.0000 C   0  0  0  0  0  0  0  0  0
   -5.8676   -2.4526    0.0000 O   0  0  0  0  0  0  0  0  0
   -5.1531   -2.0401    0.0000 C   0  0  0  0  0  0  0  0  0
   -4.4387   -2.4526    0.0000 C   0  0  0  0  0  0  0  0  0
   -3.7242   -2.0401    0.0000 C   0  0  0  0  0  0  0  0  0
   -3.7242   -1.2151    0.0000 C   0  0  0  0  0  0  0  0  0
   -4.4387   -0.8026    0.0000 C   0  0  0  0  0  0  0  0  0
   -5.1531   -1.2151    0.0000 C   0  0  0  0  0  0  0  0  0
   -3.0097   -0.8026    0.0000 C   0  0  0  0  0  0  0  0  0
   -2.2953   -1.2151    0.0000 C   0  0  0  0  0  0  0  0  0
   -2.2953   -2.0401    0.0000 N   0  0  0  0  0  0  0  0  0
   -3.0097   -2.4526    0.0000 C   0  0  0  0  0  0  0  0  0
   -1.5808   -2.4526    0.0000 C   0  0  0  0  0  0  0  0  0
   -3.0097    0.0224    0.0000 C   0  0  0  0  0  0  0  0  0
   -3.7242    0.4349    0.0000 C   0  0  0  0  0  0  0  0  0
   -3.7242    1.2599    0.0000 C   0  0  0  0  0  0  0  0  0
   -3.0097    1.6724    0.0000 C   0  0  0  0  0  0  0  0  0
   -3.0097    2.4974    0.0000 O   0  0  0  0  0  0  0  0  0
   -2.2953    2.9099    0.0000 C   0  0  0  0  0  0  0  0  0
   -2.2953    1.2599    0.0000 C   0  0  0  0  0  0  0  0  0
   -2.2953    0.4349    0.0000 C   0  0  0  0  0  0  0  0  0
   -9.4400   -1.2151    0.0000 C   0  0  0  0  0  0  0  0  0
  1  2  1  0  0  0  0
  1  6  1  0  0  0  0
  2  3  1  0  0  0  0
  3  4  1  0  0  0  0
  3 30  1  0  0  0  0
  4  5  1  0  0  0  0
  4  7  1  0  0  0  0
  5  6  1  0  0  0  0
  7  8  1  0  0  0  0
  8  9  1  0  0  0  0
  9 10  1  0  0  0  0
 10 11  1  0  0  0  0
 11 12  4  0  0  0  0
 11 16  4  0  0  0  0
 12 13  4  0  0  0  0
 13 14  4  0  0  0  0
 13 20  1  0  0  0  0
 14 15  4  0  0  0  0
 14 17  1  0  0  0  0
 15 16  4  0  0  0  0
 17 18  1  0  0  0  0
 17 22  1  0  0  0  0
 18 19  1  0  0  0  0
 19 20  1  0  0  0  0
 19 21  1  0  0  0  0
 22 23  4  0  0  0  0
 22 29  4  0  0  0  0
 23 24  4  0  0  0  0
 24 25  4  0  0  0  0
 25 26  1  0  0  0  0
 25 28  4  0  0  0  0
 26 27  1  0  0  0  0
 28 29  4  0  0  0  0
M  END
>  <Name_Molregno>
410303

>  <Dopamine transporter>
6.99

>  <HISTAMINE H3>
8.2

>  <Norepinephrine transporter>
6.92

>  <Serotonin transporter>
7.89

$$$$
411856
  Marvin  02231216192D 0   1.00000     0.00000     0

 24 26  0  0  1  0  0  0  0  0999 V2000
   -0.3224   -1.4039    0.0000 O   0  0  0  0  0  0  0  0  0
    0.3921   -0.9914    0.0000 C   0  0  0  0  0  0  0  0  0
    1.1065   -1.4039    0.0000 C   0  0  0  0  0  0  0  0  0
    1.8210   -0.9914    0.0000 C   0  0  0  0  0  0  0  0  0
    2.5355   -1.4039    0.0000 N   0  0  0  0  0  0  0  0  0
    3.2892   -1.0683    0.0000 C   0  0  0  0  0  0  0  0  0
    3.8412   -1.6814    0.0000 C   0  0  0  0  0  0  0  0  0
    3.4287   -2.3959    0.0000 C   0  0  0  0  0  0  0  0  0
    2.6217   -2.2244    0.0000 C   0  0  0  0  0  0  0  0  0
    2.0086   -2.7764    0.0000 C   0  0  0  0  0  0  0  0  0
   -1.0369   -0.9914    0.0000 C   0  0  0  0  0  0  0  0  0
   -1.7513   -1.4039    0.0000 C   0  0  0  0  0  0  0  0  0
   -2.4658   -0.9914    0.0000 C   0  0  0  0  0  0  0  0  0
   -2.4658   -0.1664    0.0000 C   0  0  0  0  0  0  0  0  0
   -1.7513    0.2461    0.0000 C   0  0  0  0  0  0  0  0  0
   -1.0369   -0.1664    0.0000 C   0  0  0  0  0  0  0  0  0
   -3.1803    0.2461    0.0000 C   0  0  0  0  0  0  0  0  0
   -3.8948   -0.1664    0.0000 C   0  0  0  0  0  0  0  0  0
   -4.6092    0.2461    0.0000 C   0  0  0  0  0  0  0  0  0
   -4.6092    1.0711    0.0000 C   0  0  0  0  0  0  0  0  0
   -3.8948    1.4836    0.0000 C   0  0  0  0  0  0  0  0  0
   -3.1803    1.0711    0.0000 C   0  0  0  0  0  0  0  0  0
   -5.3237    1.4836    0.0000 C   0  0  0  0  0  0  0  0  0
   -6.0382    1.8961    0.0000 N   0  0  0  0  0  0  0  0  0
  1  2  1  0  0  0  0
  1 11  1  0  0  0  0
  2  3  1  0  0  0  0
  3  4  1  0  0  0  0
  4  5  1  0  0  0  0
  5  6  1  0  0  0  0
  5  9  1  0  0  0  0
  6  7  1  0  0  0  0
  7  8  1  0  0  0  0
  8  9  1  0  0  0  0
  9 10  1  0  0  0  0
 11 12  4  0  0  0  0
 11 16  4  0  0  0  0
 12 13  4  0  0  0  0
 13 14  4  0  0  0  0
 14 15  4  0  0  0  0
 14 17  1  0  0  0  0
 15 16  4  0  0  0  0
 17 18  4  0  0  0  0
 17 22  4  0  0  0  0
 18 19  4  0  0  0  0
 19 20  4  0  0  0  0
 20 21  4  0  0  0  0
 20 23  1  0  0  0  0
 21 22  4  0  0  0  0
 23 24  3  0  0  0  0
M  END
>  <Name_Molregno>
411856

>  <HISTAMINE H3>
9.66

$$$$
411857
  Marvin  02231216192D 0   1.00000     0.00000     0

 23 25  0  0  0  0  0  0  0  0999 V2000
    0.6241   -1.5304    0.0000 N   0  0  0  0  0  0  0  0  0
    1.3386   -1.9429    0.0000 C   0  0  0  0  0  0  0  0  0
    1.3386   -2.7679    0.0000 C   0  0  0  0  0  0  0  0  0
    0.6241   -3.1804    0.0000 C   0  0  0  0  0  0  0  0  0
   -0.0904   -2.7679    0.0000 C   0  0  0  0  0  0  0  0  0
   -0.0904   -1.9429    0.0000 C   0  0  0  0  0  0  0  0  0
    0.6241   -0.7054    0.0000 C   0  0  0  0  0  0  0  0  0
    1.3386   -0.2929    0.0000 C   0  0  0  0  0  0  0  0  0
    1.3386    0.5321    0.0000 C   0  0  0  0  0  0  0  0  0
    2.0530    0.9446    0.0000 C   0  0  0  0  0  0  0  0  0
    2.7675    0.5321    0.0000 C   0  0  0  0  0  0  0  0  0
    2.7675   -0.2929    0.0000 C   0  0  0  0  0  0  0  0  0
    2.0530   -0.7054    0.0000 C   0  0  0  0  0  0  0  0  0
    3.4820    0.9446    0.0000 C   0  0  0  0  0  0  0  0  0
    4.1964    1.3571    0.0000 C   0  0  0  0  0  0  0  0  0
    4.9109    1.7696    0.0000 C   0  0  0  0  0  0  0  0  0
    4.9109    2.5946    0.0000 C   0  0  0  0  0  0  0  0  0
    5.6254    3.0071    0.0000 N   0  0  0  0  0  0  0  0  0
    5.6254    3.8321    0.0000 C   0  0  0  0  0  0  0  0  0
    6.3399    4.2446    0.0000 C   0  0  0  0  0  0  0  0  0
    7.0543    3.8321    0.0000 C   0  0  0  0  0  0  0  0  0
    7.0543    3.0071    0.0000 C   0  0  0  0  0  0  0  0  0
    6.3399    2.5946    0.0000 C   0  0  0  0  0  0  0  0  0
  1  2  1  0  0  0  0
  1  6  1  0  0  0  0
  1  7  1  0  0  0  0
  2  3  1  0  0  0  0
  3  4  1  0  0  0  0
  4  5  1  0  0  0  0
  5  6  1  0  0  0  0
  7  8  1  0  0  0  0
  8  9  4  0  0  0  0
  8 13  4  0  0  0  0
  9 10  4  0  0  0  0
 10 11  4  0  0  0  0
 11 12  4  0  0  0  0
 11 14  1  0  0  0  0
 12 13  4  0  0  0  0
 14 15  3  0  0  0  0
 15 16  1  0  0  0  0
 16 17  1  0  0  0  0
 17 18  1  0  0  0  0
 18 19  1  0  0  0  0
 18 23  1  0  0  0  0
 19 20  1  0  0  0  0
 20 21  1  0  0  0  0
 21 22  1  0  0  0  0
 22 23  1  0  0  0  0
M  END
>  <Name_Molregno>
411857

>  <HISTAMINE H3>
9.05

$$$$
411859
  Marvin  02231216192D 0   1.00000     0.00000     0

 26 29  0  0  1  0  0  0  0  0999 V2000
    0.4955   -2.0292    0.0000 N   0  0  0  0  0  0  0  0  0
    1.2100   -1.6167    0.0000 C   0  0  0  0  0  0  0  0  0
    1.9245   -1.2042    0.0000 C   0  0  0  0  0  0  0  0  0
    1.9245   -0.3792    0.0000 C   0  0  0  0  0  0  0  0  0
    2.6390    0.0333    0.0000 C   0  0  0  0  0  0  0  0  0
    3.3534   -0.3792    0.0000 C   0  0  0  0  0  0  0  0  0
    3.3534   -1.2042    0.0000 C   0  0  0  0  0  0  0  0  0
    2.6390   -1.6167    0.0000 C   0  0  0  0  0  0  0  0  0
    4.0679    0.0333    0.0000 C   0  0  0  0  0  0  0  0  0
    4.7824   -0.3792    0.0000 C   0  0  0  0  0  0  0  0  0
    5.4968    0.0333    0.0000 C   0  0  0  0  0  0  0  0  0
    5.4968    0.8583    0.0000 C   0  0  0  0  0  0  0  0  0
    6.2113    1.2708    0.0000 C   0  0  0  0  0  0  0  0  0
    6.9258    0.8583    0.0000 C   0  0  0  0  0  0  0  0  0
    6.9258    0.0333    0.0000 C   0  0  0  0  0  0  0  0  0
    6.2113   -0.3792    0.0000 C   0  0  0  0  0  0  0  0  0
    7.6403    1.2708    0.0000 C   0  0  0  0  0  0  0  0  0
    7.6403    2.0958    0.0000 C   0  0  0  0  0  0  0  0  0
    8.3547    2.5083    0.0000 N   0  0  0  0  0  0  0  0  0
    8.4410    3.3288    0.0000 C   0  0  0  0  0  0  0  0  0
    9.2479    3.5003    0.0000 C   0  0  0  0  0  0  0  0  0
    9.6604    2.7858    0.0000 C   0  0  0  0  0  0  0  0  0
    9.1084    2.1728    0.0000 C   0  0  0  0  0  0  0  0  0
    9.2799    1.3658    0.0000 C   0  0  0  0  0  0  0  0  0
    4.7824    1.2708    0.0000 C   0  0  0  0  0  0  0  0  0
    4.0679    0.8583    0.0000 C   0  0  0  0  0  0  0  0  0
  1  2  3  0  0  0  0
  2  3  1  0  0  0  0
  3  4  4  0  0  0  0
  3  8  4  0  0  0  0
  4  5  4  0  0  0  0
  5  6  4  0  0  0  0
  6  7  4  0  0  0  0
  6  9  1  0  0  0  0
  7  8  4  0  0  0  0
  9 10  4  0  0  0  0
  9 26  4  0  0  0  0
 10 11  4  0  0  0  0
 11 12  4  0  0  0  0
 11 16  4  0  0  0  0
 12 13  4  0  0  0  0
 12 25  4  0  0  0  0
 13 14  4  0  0  0  0
 14 15  4  0  0  0  0
 14 17  1  0  0  0  0
 15 16  4  0  0  0  0
 17 18  1  0  0  0  0
 18 19  1  0  0  0  0
 19 20  1  0  0  0  0
 19 23  1  0  0  0  0
 20 21  1  0  0  0  0
 21 22  1  0  0  0  0
 22 23  1  0  0  0  0
 23 24  1  0  0  0  0
 25 26  4  0  0  0  0
M  END
>  <Name_Molregno>
411859

>  <HISTAMINE H3>
9.76

$$$$
411864
  Marvin  02231216192D 0   1.00000     0.00000     0

 25 28  0  0  0  0  0  0  0  0999 V2000
    0.4987   -2.0312    0.0000 N   0  0  0  0  0  0  0  0  0
    1.2132   -1.6187    0.0000 C   0  0  0  0  0  0  0  0  0
    1.9277   -1.2062    0.0000 C   0  0  0  0  0  0  0  0  0
    1.9277   -0.3812    0.0000 C   0  0  0  0  0  0  0  0  0
    2.6421    0.0313    0.0000 C   0  0  0  0  0  0  0  0  0
    3.3566   -0.3812    0.0000 C   0  0  0  0  0  0  0  0  0
    3.3566   -1.2062    0.0000 C   0  0  0  0  0  0  0  0  0
    2.6421   -1.6187    0.0000 C   0  0  0  0  0  0  0  0  0
    4.0711    0.0313    0.0000 C   0  0  0  0  0  0  0  0  0
    4.7856   -0.3812    0.0000 C   0  0  0  0  0  0  0  0  0
    5.5000    0.0313    0.0000 C   0  0  0  0  0  0  0  0  0
    5.5000    0.8563    0.0000 C   0  0  0  0  0  0  0  0  0
    6.2145    1.2688    0.0000 C   0  0  0  0  0  0  0  0  0
    6.9290    0.8563    0.0000 C   0  0  0  0  0  0  0  0  0
    6.9290    0.0313    0.0000 C   0  0  0  0  0  0  0  0  0
    6.2145   -0.3812    0.0000 C   0  0  0  0  0  0  0  0  0
    7.6434    1.2688    0.0000 C   0  0  0  0  0  0  0  0  0
    7.6434    2.0938    0.0000 C   0  0  0  0  0  0  0  0  0
    8.3579    2.5063    0.0000 N   0  0  0  0  0  0  0  0  0
    8.4441    3.3268    0.0000 C   0  0  0  0  0  0  0  0  0
    9.2511    3.4983    0.0000 C   0  0  0  0  0  0  0  0  0
    9.6636    2.7838    0.0000 C   0  0  0  0  0  0  0  0  0
    9.1116    2.1707    0.0000 C   0  0  0  0  0  0  0  0  0
    4.7856    1.2688    0.0000 C   0  0  0  0  0  0  0  0  0
    4.0711    0.8563    0.0000 C   0  0  0  0  0  0  0  0  0
  1  2  3  0  0  0  0
  2  3  1  0  0  0  0
  3  4  4  0  0  0  0
  3  8  4  0  0  0  0
  4  5  4  0  0  0  0
  5  6  4  0  0  0  0
  6  7  4  0  0  0  0
  6  9  1  0  0  0  0
  7  8  4  0  0  0  0
  9 10  4  0  0  0  0
  9 25  4  0  0  0  0
 10 11  4  0  0  0  0
 11 12  4  0  0  0  0
 11 16  4  0  0  0  0
 12 13  4  0  0  0  0
 12 24  4  0  0  0  0
 13 14  4  0  0  0  0
 14 15  4  0  0  0  0
 14 17  1  0  0  0  0
 15 16  4  0  0  0  0
 17 18  1  0  0  0  0
 18 19  1  0  0  0  0
 19 20  1  0  0  0  0
 19 23  1  0  0  0  0
 20 21  1  0  0  0  0
 21 22  1  0  0  0  0
 22 23  1  0  0  0  0
 24 25  4  0  0  0  0
M  END
>  <Name_Molregno>
411864

>  <HISTAMINE H3>
9.31

$$$$
411865
  Marvin  02231216192D 0   1.00000     0.00000     0

 25 28  0  0  1  0  0  0  0  0999 V2000
    0.0205   -1.6988    0.0000 N   0  0  0  0  0  0  0  0  0
    0.5725   -1.0857    0.0000 C   0  0  0  0  0  0  0  0  0
    1.3262   -1.4212    0.0000 C   0  0  0  0  0  0  0  0  0
    1.2400   -2.2417    0.0000 C   0  0  0  0  0  0  0  0  0
    0.4330   -2.4132    0.0000 C   0  0  0  0  0  0  0  0  0
    2.0407   -1.0087    0.0000 C   0  0  0  0  0  0  0  0  0
    2.7552   -1.4212    0.0000 C   0  0  0  0  0  0  0  0  0
    3.4696   -1.0087    0.0000 C   0  0  0  0  0  0  0  0  0
    4.1841   -1.4212    0.0000 C   0  0  0  0  0  0  0  0  0
    4.8986   -1.0087    0.0000 C   0  0  0  0  0  0  0  0  0
    4.8986   -0.1837    0.0000 C   0  0  0  0  0  0  0  0  0
    5.6130    0.2288    0.0000 C   0  0  0  0  0  0  0  0  0
    6.3275   -0.1837    0.0000 C   0  0  0  0  0  0  0  0  0
    6.3275   -1.0087    0.0000 C   0  0  0  0  0  0  0  0  0
    5.6130   -1.4212    0.0000 C   0  0  0  0  0  0  0  0  0
    7.0420    0.2288    0.0000 C   0  0  0  0  0  0  0  0  0
    7.0420    1.0538    0.0000 C   0  0  0  0  0  0  0  0  0
    7.7565    1.4663    0.0000 C   0  0  0  0  0  0  0  0  0
    8.4709    1.0538    0.0000 C   0  0  0  0  0  0  0  0  0
    8.4709    0.2288    0.0000 C   0  0  0  0  0  0  0  0  0
    7.7565   -0.1837    0.0000 C   0  0  0  0  0  0  0  0  0
    9.1854    1.4663    0.0000 C   0  0  0  0  0  0  0  0  0
    9.8999    1.8788    0.0000 N   0  0  0  0  0  0  0  0  0
    4.1841    0.2288    0.0000 C   0  0  0  0  0  0  0  0  0
    3.4696   -0.1837    0.0000 C   0  0  0  0  0  0  0  0  0
  1  2  1  0  0  0  0
  1  5  1  0  0  0  0
  2  3  1  0  0  0  0
  3  4  1  0  0  0  0
  3  6  1  0  0  0  0
  4  5  1  0  0  0  0
  6  7  1  0  0  0  0
  7  8  1  0  0  0  0
  8  9  4  0  0  0  0
  8 25  4  0  0  0  0
  9 10  4  0  0  0  0
 10 11  4  0  0  0  0
 10 15  4  0  0  0  0
 11 12  4  0  0  0  0
 11 24  4  0  0  0  0
 12 13  4  0  0  0  0
 13 14  4  0  0  0  0
 13 16  1  0  0  0  0
 14 15  4  0  0  0  0
 16 17  4  0  0  0  0
 16 21  4  0  0  0  0
 17 18  4  0  0  0  0
 18 19  4  0  0  0  0
 19 20  4  0  0  0  0
 19 22  1  0  0  0  0
 20 21  4  0  0  0  0
 22 23  3  0  0  0  0
 24 25  4  0  0  0  0
M  END
>  <Name_Molregno>
411865

>  <HISTAMINE H3>
8.48

$$$$
411866
  Marvin  02231216192D 0   1.00000     0.00000     0

 27 30  0  0  1  0  0  0  0  0999 V2000
    0.2668   -1.5770    0.0000 N   0  0  0  0  0  0  0  0  0
    0.9813   -1.1645    0.0000 C   0  0  0  0  0  0  0  0  0
    1.6957   -0.7520    0.0000 C   0  0  0  0  0  0  0  0  0
    1.6957    0.0730    0.0000 C   0  0  0  0  0  0  0  0  0
    2.4102    0.4855    0.0000 C   0  0  0  0  0  0  0  0  0
    3.1247    0.0730    0.0000 C   0  0  0  0  0  0  0  0  0
    3.1247   -0.7520    0.0000 C   0  0  0  0  0  0  0  0  0
    2.4102   -1.1645    0.0000 C   0  0  0  0  0  0  0  0  0
    3.8392    0.4855    0.0000 C   0  0  0  0  0  0  0  0  0
    4.5536    0.0730    0.0000 C   0  0  0  0  0  0  0  0  0
    5.2681    0.4855    0.0000 C   0  0  0  0  0  0  0  0  0
    5.2681    1.3105    0.0000 C   0  0  0  0  0  0  0  0  0
    5.9826    1.7230    0.0000 C   0  0  0  0  0  0  0  0  0
    6.6970    1.3105    0.0000 C   0  0  0  0  0  0  0  0  0
    6.6970    0.4855    0.0000 C   0  0  0  0  0  0  0  0  0
    5.9826    0.0730    0.0000 C   0  0  0  0  0  0  0  0  0
    7.4115    1.7230    0.0000 C   0  0  0  0  0  0  0  0  0
    8.1260    1.3105    0.0000 C   0  0  0  0  0  0  0  0  0
    8.8405    1.7230    0.0000 N   0  0  0  0  0  0  0  0  0
    8.9267    2.5434    0.0000 C   0  0  0  0  0  0  0  0  0
    9.7337    2.7150    0.0000 C   0  0  0  0  0  0  0  0  0
   10.1462    2.0005    0.0000 C   0  0  0  0  0  0  0  0  0
    9.5941    1.3874    0.0000 C   0  0  0  0  0  0  0  0  0
    9.7657    0.5804    0.0000 C   0  0  0  0  0  0  0  0  0
   10.5503    0.3255    0.0000 C   0  0  0  0  0  0  0  0  0
    4.5536    1.7230    0.0000 C   0  0  0  0  0  0  0  0  0
    3.8392    1.3105    0.0000 C   0  0  0  0  0  0  0  0  0
  1  2  3  0  0  0  0
  2  3  1  0  0  0  0
  3  4  4  0  0  0  0
  3  8  4  0  0  0  0
  4  5  4  0  0  0  0
  5  6  4  0  0  0  0
  6  7  4  0  0  0  0
  6  9  1  0  0  0  0
  7  8  4  0  0  0  0
  9 10  4  0  0  0  0
  9 27  4  0  0  0  0
 10 11  4  0  0  0  0
 11 12  4  0  0  0  0
 11 16  4  0  0  0  0
 12 13  4  0  0  0  0
 12 26  4  0  0  0  0
 13 14  4  0  0  0  0
 14 15  4  0  0  0  0
 14 17  1  0  0  0  0
 15 16  4  0  0  0  0
 17 18  1  0  0  0  0
 18 19  1  0  0  0  0
 19 20  1  0  0  0  0
 19 23  1  0  0  0  0
 20 21  1  0  0  0  0
 21 22  1  0  0  0  0
 22 23  1  0  0  0  0
 23 24  1  0  0  0  0
 24 25  1  0  0  0  0
 26 27  4  0  0  0  0
M  END
>  <Name_Molregno>
411866

>  <HISTAMINE H3>
8.06

$$$$
411929
  Marvin  02231216192D 0   1.00000     0.00000     0

 28 31  0  0  1  0  0  0  0  0999 V2000
    0.2369   -1.4807    0.0000 N   0  0  0  0  0  0  0  0  0
    0.9514   -1.0682    0.0000 C   0  0  0  0  0  0  0  0  0
    1.6658   -0.6557    0.0000 C   0  0  0  0  0  0  0  0  0
    1.6658    0.1693    0.0000 C   0  0  0  0  0  0  0  0  0
    2.3803    0.5818    0.0000 C   0  0  0  0  0  0  0  0  0
    3.0948    0.1693    0.0000 C   0  0  0  0  0  0  0  0  0
    3.0948   -0.6557    0.0000 C   0  0  0  0  0  0  0  0  0
    2.3803   -1.0682    0.0000 C   0  0  0  0  0  0  0  0  0
    3.8092    0.5818    0.0000 C   0  0  0  0  0  0  0  0  0
    4.5237    0.1693    0.0000 C   0  0  0  0  0  0  0  0  0
    5.2382    0.5818    0.0000 C   0  0  0  0  0  0  0  0  0
    5.2382    1.4068    0.0000 C   0  0  0  0  0  0  0  0  0
    5.9527    1.8193    0.0000 C   0  0  0  0  0  0  0  0  0
    6.6671    1.4068    0.0000 C   0  0  0  0  0  0  0  0  0
    6.6671    0.5818    0.0000 C   0  0  0  0  0  0  0  0  0
    5.9527    0.1693    0.0000 C   0  0  0  0  0  0  0  0  0
    7.3816    1.8193    0.0000 C   0  0  0  0  0  0  0  0  0
    8.0961    1.4068    0.0000 C   0  0  0  0  0  0  0  0  0
    8.8105    1.8193    0.0000 N   0  0  0  0  0  0  0  0  0
    8.8968    2.6398    0.0000 C   0  0  0  0  0  0  0  0  0
    9.7037    2.8113    0.0000 C   0  0  0  0  0  0  0  0  0
   10.1162    2.0969    0.0000 C   0  0  0  0  0  0  0  0  0
    9.5642    1.4838    0.0000 C   0  0  0  0  0  0  0  0  0
    9.7357    0.6768    0.0000 C   0  0  0  0  0  0  0  0  0
   10.5204    0.4218    0.0000 C   0  0  0  0  0  0  0  0  0
    9.1226    0.1248    0.0000 C   0  0  0  0  0  0  0  0  0
    4.5237    1.8193    0.0000 C   0  0  0  0  0  0  0  0  0
    3.8092    1.4068    0.0000 C   0  0  0  0  0  0  0  0  0
  1  2  3  0  0  0  0
  2  3  1  0  0  0  0
  3  4  4  0  0  0  0
  3  8  4  0  0  0  0
  4  5  4  0  0  0  0
  5  6  4  0  0  0  0
  6  7  4  0  0  0  0
  6  9  1  0  0  0  0
  7  8  4  0  0  0  0
  9 10  4  0  0  0  0
  9 28  4  0  0  0  0
 10 11  4  0  0  0  0
 11 12  4  0  0  0  0
 11 16  4  0  0  0  0
 12 13  4  0  0  0  0
 12 27  4  0  0  0  0
 13 14  4  0  0  0  0
 14 15  4  0  0  0  0
 14 17  1  0  0  0  0
 15 16  4  0  0  0  0
 17 18  1  0  0  0  0
 18 19  1  0  0  0  0
 19 20  1  0  0  0  0
 19 23  1  0  0  0  0
 20 21  1  0  0  0  0
 21 22  1  0  0  0  0
 22 23  1  0  0  0  0
 23 24  1  0  0  0  0
 24 25  1  0  0  0  0
 24 26  1  0  0  0  0
 27 28  4  0  0  0  0
M  END
>  <Name_Molregno>
411929

>  <HISTAMINE H3>
7.56

$$$$
411930
  Marvin  02231216192D 0   1.00000     0.00000     0

 29 32  0  0  1  0  0  0  0  0999 V2000
    0.3918   -1.3346    0.0000 N   0  0  0  0  0  0  0  0  0
    1.1062   -0.9221    0.0000 C   0  0  0  0  0  0  0  0  0
    1.8207   -0.5096    0.0000 C   0  0  0  0  0  0  0  0  0
    1.8207    0.3154    0.0000 C   0  0  0  0  0  0  0  0  0
    2.5352    0.7279    0.0000 C   0  0  0  0  0  0  0  0  0
    3.2497    0.3154    0.0000 C   0  0  0  0  0  0  0  0  0
    3.2497   -0.5096    0.0000 C   0  0  0  0  0  0  0  0  0
    2.5352   -0.9221    0.0000 C   0  0  0  0  0  0  0  0  0
    3.9641    0.7279    0.0000 C   0  0  0  0  0  0  0  0  0
    4.6786    0.3154    0.0000 C   0  0  0  0  0  0  0  0  0
    5.3931    0.7279    0.0000 C   0  0  0  0  0  0  0  0  0
    5.3931    1.5529    0.0000 C   0  0  0  0  0  0  0  0  0
    6.1075    1.9654    0.0000 C   0  0  0  0  0  0  0  0  0
    6.8220    1.5529    0.0000 C   0  0  0  0  0  0  0  0  0
    6.8220    0.7279    0.0000 C   0  0  0  0  0  0  0  0  0
    6.1075    0.3154    0.0000 C   0  0  0  0  0  0  0  0  0
    7.5365    1.9654    0.0000 C   0  0  0  0  0  0  0  0  0
    8.2510    1.5529    0.0000 C   0  0  0  0  0  0  0  0  0
    8.9654    1.9654    0.0000 N   0  0  0  0  0  0  0  0  0
    9.0517    2.7859    0.0000 C   0  0  0  0  0  0  0  0  0
    9.8586    2.9574    0.0000 C   0  0  0  0  0  0  0  0  0
   10.2711    2.2430    0.0000 C   0  0  0  0  0  0  0  0  0
    9.7191    1.6299    0.0000 C   0  0  0  0  0  0  0  0  0
    9.8906    0.8229    0.0000 C   0  0  0  0  0  0  0  0  0
    9.2775    0.2709    0.0000 C   0  0  0  0  0  0  0  0  0
    9.4491   -0.5361    0.0000 C   0  0  0  0  0  0  0  0  0
    8.4929    0.5258    0.0000 C   0  0  0  0  0  0  0  0  0
    4.6786    1.9654    0.0000 C   0  0  0  0  0  0  0  0  0
    3.9641    1.5529    0.0000 C   0  0  0  0  0  0  0  0  0
  1  2  3  0  0  0  0
  2  3  1  0  0  0  0
  3  4  4  0  0  0  0
  3  8  4  0  0  0  0
  4  5  4  0  0  0  0
  5  6  4  0  0  0  0
  6  7  4  0  0  0  0
  6  9  1  0  0  0  0
  7  8  4  0  0  0  0
  9 10  4  0  0  0  0
  9 29  4  0  0  0  0
 10 11  4  0  0  0  0
 11 12  4  0  0  0  0
 11 16  4  0  0  0  0
 12 13  4  0  0  0  0
 12 28  4  0  0  0  0
 13 14  4  0  0  0  0
 14 15  4  0  0  0  0
 14 17  1  0  0  0  0
 15 16  4  0  0  0  0
 17 18  1  0  0  0  0
 18 19  1  0  0  0  0
 19 20  1  0  0  0  0
 19 23  1  0  0  0  0
 20 21  1  0  0  0  0
 21 22  1  0  0  0  0
 22 23  1  0  0  0  0
 23 24  1  0  0  0  0
 24 25  1  0  0  0  0
 25 26  1  0  0  0  0
 25 27  1  0  0  0  0
 28 29  4  0  0  0  0
M  END
>  <Name_Molregno>
411930

>  <HISTAMINE H3>
6.56

$$$$
411931
  Marvin  02231216192D 0   1.00000     0.00000     0

 27 30  0  0  1  0  0  0  0  0999 V2000
   -0.1427    0.8713    0.0000 O   0  0  0  0  0  0  0  0  0
    0.6419    0.6164    0.0000 C   0  0  0  0  0  0  0  0  0
    0.8135   -0.1906    0.0000 C   0  0  0  0  0  0  0  0  0
    1.5671   -0.5262    0.0000 N   0  0  0  0  0  0  0  0  0
    1.4809   -1.3467    0.0000 C   0  0  0  0  0  0  0  0  0
    0.6739   -1.5182    0.0000 C   0  0  0  0  0  0  0  0  0
    0.2614   -0.8037    0.0000 C   0  0  0  0  0  0  0  0  0
    2.2816   -0.1137    0.0000 C   0  0  0  0  0  0  0  0  0
    2.9961   -0.5262    0.0000 C   0  0  0  0  0  0  0  0  0
    3.7106   -0.1137    0.0000 C   0  0  0  0  0  0  0  0  0
    4.4250   -0.5262    0.0000 C   0  0  0  0  0  0  0  0  0
    5.1395   -0.1137    0.0000 C   0  0  0  0  0  0  0  0  0
    5.1395    0.7113    0.0000 C   0  0  0  0  0  0  0  0  0
    5.8540    1.1238    0.0000 C   0  0  0  0  0  0  0  0  0
    6.5684    0.7113    0.0000 C   0  0  0  0  0  0  0  0  0
    6.5684   -0.1137    0.0000 C   0  0  0  0  0  0  0  0  0
    5.8540   -0.5262    0.0000 C   0  0  0  0  0  0  0  0  0
    7.2829    1.1238    0.0000 C   0  0  0  0  0  0  0  0  0
    7.2829    1.9488    0.0000 C   0  0  0  0  0  0  0  0  0
    7.9974    2.3613    0.0000 C   0  0  0  0  0  0  0  0  0
    8.7119    1.9488    0.0000 C   0  0  0  0  0  0  0  0  0
    8.7119    1.1238    0.0000 C   0  0  0  0  0  0  0  0  0
    7.9974    0.7113    0.0000 C   0  0  0  0  0  0  0  0  0
    9.4263    2.3613    0.0000 C   0  0  0  0  0  0  0  0  0
   10.1408    2.7738    0.0000 N   0  0  0  0  0  0  0  0  0
    4.4250    1.1238    0.0000 C   0  0  0  0  0  0  0  0  0
    3.7106    0.7113    0.0000 C   0  0  0  0  0  0  0  0  0
  1  2  1  0  0  0  0
  2  3  1  0  0  0  0
  3  4  1  0  0  0  0
  3  7  1  0  0  0  0
  4  5  1  0  0  0  0
  4  8  1  0  0  0  0
  5  6  1  0  0  0  0
  6  7  1  0  0  0  0
  8  9  1  0  0  0  0
  9 10  1  0  0  0  0
 10 11  4  0  0  0  0
 10 27  4  0  0  0  0
 11 12  4  0  0  0  0
 12 13  4  0  0  0  0
 12 17  4  0  0  0  0
 13 14  4  0  0  0  0
 13 26  4  0  0  0  0
 14 15  4  0  0  0  0
 15 16  4  0  0  0  0
 15 18  1  0  0  0  0
 16 17  4  0  0  0  0
 18 19  4  0  0  0  0
 18 23  4  0  0  0  0
 19 20  4  0  0  0  0
 20 21  4  0  0  0  0
 21 22  4  0  0  0  0
 21 24  1  0  0  0  0
 22 23  4  0  0  0  0
 24 25  3  0  0  0  0
 26 27  4  0  0  0  0
M  END
>  <Name_Molregno>
411931

>  <HISTAMINE H3>
8.95

$$$$
411933
  Marvin  02231216192D 0   1.00000     0.00000     0

 27 30  0  0  1  0  0  0  0  0999 V2000
   -0.1427    0.8713    0.0000 F   0  0  0  0  0  0  0  0  0
    0.6419    0.6164    0.0000 C   0  0  0  0  0  0  0  0  0
    0.8135   -0.1906    0.0000 C   0  0  0  0  0  0  0  0  0
    1.5671   -0.5262    0.0000 N   0  0  0  0  0  0  0  0  0
    1.4809   -1.3467    0.0000 C   0  0  0  0  0  0  0  0  0
    0.6739   -1.5182    0.0000 C   0  0  0  0  0  0  0  0  0
    0.2614   -0.8037    0.0000 C   0  0  0  0  0  0  0  0  0
    2.2816   -0.1137    0.0000 C   0  0  0  0  0  0  0  0  0
    2.9961   -0.5262    0.0000 C   0  0  0  0  0  0  0  0  0
    3.7106   -0.1137    0.0000 C   0  0  0  0  0  0  0  0  0
    4.4250   -0.5262    0.0000 C   0  0  0  0  0  0  0  0  0
    5.1395   -0.1137    0.0000 C   0  0  0  0  0  0  0  0  0
    5.1395    0.7113    0.0000 C   0  0  0  0  0  0  0  0  0
    5.8540    1.1238    0.0000 C   0  0  0  0  0  0  0  0  0
    6.5684    0.7113    0.0000 C   0  0  0  0  0  0  0  0  0
    6.5684   -0.1137    0.0000 C   0  0  0  0  0  0  0  0  0
    5.8540   -0.5262    0.0000 C   0  0  0  0  0  0  0  0  0
    7.2829    1.1238    0.0000 C   0  0  0  0  0  0  0  0  0
    7.2829    1.9488    0.0000 C   0  0  0  0  0  0  0  0  0
    7.9974    2.3613    0.0000 C   0  0  0  0  0  0  0  0  0
    8.7119    1.9488    0.0000 C   0  0  0  0  0  0  0  0  0
    8.7119    1.1238    0.0000 C   0  0  0  0  0  0  0  0  0
    7.9974    0.7113    0.0000 C   0  0  0  0  0  0  0  0  0
    9.4263    2.3613    0.0000 C   0  0  0  0  0  0  0  0  0
   10.1408    2.7738    0.0000 N   0  0  0  0  0  0  0  0  0
    4.4250    1.1238    0.0000 C   0  0  0  0  0  0  0  0  0
    3.7106    0.7113    0.0000 C   0  0  0  0  0  0  0  0  0
  1  2  1  0  0  0  0
  2  3  1  0  0  0  0
  3  4  1  0  0  0  0
  3  7  1  0  0  0  0
  4  5  1  0  0  0  0
  4  8  1  0  0  0  0
  5  6  1  0  0  0  0
  6  7  1  0  0  0  0
  8  9  1  0  0  0  0
  9 10  1  0  0  0  0
 10 11  4  0  0  0  0
 10 27  4  0  0  0  0
 11 12  4  0  0  0  0
 12 13  4  0  0  0  0
 12 17  4  0  0  0  0
 13 14  4  0  0  0  0
 13 26  4  0  0  0  0
 14 15  4  0  0  0  0
 15 16  4  0  0  0  0
 15 18  1  0  0  0  0
 16 17  4  0  0  0  0
 18 19  4  0  0  0  0
 18 23  4  0  0  0  0
 19 20  4  0  0  0  0
 20 21  4  0  0  0  0
 21 22  4  0  0  0  0
 21 24  1  0  0  0  0
 22 23  4  0  0  0  0
 24 25  3  0  0  0  0
 26 27  4  0  0  0  0
M  END
>  <Name_Molregno>
411933

>  <HISTAMINE H3>
9.09

$$$$
411935
  Marvin  02231216192D 0   1.00000     0.00000     0

 28 31  0  0  1  0  0  0  0  0999 V2000
   -9.1015   -4.0102    0.0000 N   0  0  0  0  0  0  0  0  0
   -9.9220   -4.0964    0.0000 C   0  0  0  0  0  0  0  0  0
   -8.6166   -4.6776    0.0000 C   0  0  0  0  0  0  0  0  0
   -8.7659   -3.2565    0.0000 C   0  0  0  0  0  0  0  0  0
   -9.1784   -2.5421    0.0000 C   0  0  0  0  0  0  0  0  0
   -8.6264   -1.9290    0.0000 C   0  0  0  0  0  0  0  0  0
   -7.8727   -2.2645    0.0000 N   0  0  0  0  0  0  0  0  0
   -7.9589   -3.0850    0.0000 C   0  0  0  0  0  0  0  0  0
   -7.1582   -1.8520    0.0000 C   0  0  0  0  0  0  0  0  0
   -6.4438   -2.2645    0.0000 C   0  0  0  0  0  0  0  0  0
   -5.7293   -1.8520    0.0000 C   0  0  0  0  0  0  0  0  0
   -5.0148   -2.2645    0.0000 C   0  0  0  0  0  0  0  0  0
   -4.3004   -1.8520    0.0000 C   0  0  0  0  0  0  0  0  0
   -4.3004   -1.0270    0.0000 C   0  0  0  0  0  0  0  0  0
   -3.5859   -0.6145    0.0000 C   0  0  0  0  0  0  0  0  0
   -2.8714   -1.0270    0.0000 C   0  0  0  0  0  0  0  0  0
   -2.8714   -1.8520    0.0000 C   0  0  0  0  0  0  0  0  0
   -3.5859   -2.2645    0.0000 C   0  0  0  0  0  0  0  0  0
   -2.1569   -0.6145    0.0000 C   0  0  0  0  0  0  0  0  0
   -2.1569    0.2105    0.0000 C   0  0  0  0  0  0  0  0  0
   -1.4425    0.6230    0.0000 C   0  0  0  0  0  0  0  0  0
   -0.7280    0.2105    0.0000 C   0  0  0  0  0  0  0  0  0
   -0.7280   -0.6145    0.0000 C   0  0  0  0  0  0  0  0  0
   -1.4425   -1.0270    0.0000 C   0  0  0  0  0  0  0  0  0
   -0.0135    0.6230    0.0000 C   0  0  0  0  0  0  0  0  0
    0.7009    1.0355    0.0000 N   0  0  0  0  0  0  0  0  0
   -5.0148   -0.6145    0.0000 C   0  0  0  0  0  0  0  0  0
   -5.7293   -1.0270    0.0000 C   0  0  0  0  0  0  0  0  0
  1  2  1  0  0  0  0
  1  3  1  0  0  0  0
  1  4  1  0  0  0  0
  4  5  1  0  0  0  0
  4  8  1  0  0  0  0
  5  6  1  0  0  0  0
  6  7  1  0  0  0  0
  7  8  1  0  0  0  0
  7  9  1  0  0  0  0
  9 10  1  0  0  0  0
 10 11  1  0  0  0  0
 11 12  4  0  0  0  0
 11 28  4  0  0  0  0
 12 13  4  0  0  0  0
 13 14  4  0  0  0  0
 13 18  4  0  0  0  0
 14 15  4  0  0  0  0
 14 27  4  0  0  0  0
 15 16  4  0  0  0  0
 16 17  4  0  0  0  0
 16 19  1  0  0  0  0
 17 18  4  0  0  0  0
 19 20  4  0  0  0  0
 19 24  4  0  0  0  0
 20 21  4  0  0  0  0
 21 22  4  0  0  0  0
 22 23  4  0  0  0  0
 22 25  1  0  0  0  0
 23 24  4  0  0  0  0
 25 26  3  0  0  0  0
 27 28  4  0  0  0  0
M  END
>  <Name_Molregno>
411935

>  <HISTAMINE H3>
7.7

$$$$
411937
  Marvin  02231216192D 0   1.00000     0.00000     0

 26 29  0  0  1  0  0  0  0  0999 V2000
    0.8025   -3.2861    0.0000 O   0  0  0  0  0  0  0  0  0
    1.1381   -2.5324    0.0000 C   0  0  0  0  0  0  0  0  0
    0.7256   -1.8179    0.0000 C   0  0  0  0  0  0  0  0  0
    1.2776   -1.2048    0.0000 C   0  0  0  0  0  0  0  0  0
    2.0313   -1.5404    0.0000 N   0  0  0  0  0  0  0  0  0
    1.9450   -2.3609    0.0000 C   0  0  0  0  0  0  0  0  0
    2.7458   -1.1279    0.0000 C   0  0  0  0  0  0  0  0  0
    3.4602   -1.5404    0.0000 C   0  0  0  0  0  0  0  0  0
    4.1747   -1.1279    0.0000 C   0  0  0  0  0  0  0  0  0
    4.8892   -1.5404    0.0000 C   0  0  0  0  0  0  0  0  0
    5.6036   -1.1279    0.0000 C   0  0  0  0  0  0  0  0  0
    5.6036   -0.3029    0.0000 C   0  0  0  0  0  0  0  0  0
    6.3181    0.1096    0.0000 C   0  0  0  0  0  0  0  0  0
    7.0326   -0.3029    0.0000 C   0  0  0  0  0  0  0  0  0
    7.0326   -1.1279    0.0000 C   0  0  0  0  0  0  0  0  0
    6.3181   -1.5404    0.0000 C   0  0  0  0  0  0  0  0  0
    7.7470    0.1096    0.0000 C   0  0  0  0  0  0  0  0  0
    7.7470    0.9346    0.0000 C   0  0  0  0  0  0  0  0  0
    8.4615    1.3471    0.0000 C   0  0  0  0  0  0  0  0  0
    9.1760    0.9346    0.0000 C   0  0  0  0  0  0  0  0  0
    9.1760    0.1096    0.0000 C   0  0  0  0  0  0  0  0  0
    8.4615   -0.3029    0.0000 C   0  0  0  0  0  0  0  0  0
    9.8905    1.3471    0.0000 C   0  0  0  0  0  0  0  0  0
   10.6049    1.7596    0.0000 N   0  0  0  0  0  0  0  0  0
    4.8892    0.1096    0.0000 C   0  0  0  0  0  0  0  0  0
    4.1747   -0.3029    0.0000 C   0  0  0  0  0  0  0  0  0
  1  2  1  0  0  0  0
  2  3  1  0  0  0  0
  2  6  1  0  0  0  0
  3  4  1  0  0  0  0
  4  5  1  0  0  0  0
  5  6  1  0  0  0  0
  5  7  1  0  0  0  0
  7  8  1  0  0  0  0
  8  9  1  0  0  0  0
  9 10  4  0  0  0  0
  9 26  4  0  0  0  0
 10 11  4  0  0  0  0
 11 12  4  0  0  0  0
 11 16  4  0  0  0  0
 12 13  4  0  0  0  0
 12 25  4  0  0  0  0
 13 14  4  0  0  0  0
 14 15  4  0  0  0  0
 14 17  1  0  0  0  0
 15 16  4  0  0  0  0
 17 18  4  0  0  0  0
 17 22  4  0  0  0  0
 18 19  4  0  0  0  0
 19 20  4  0  0  0  0
 20 21  4  0  0  0  0
 20 23  1  0  0  0  0
 21 22  4  0  0  0  0
 23 24  3  0  0  0  0
 25 26  4  0  0  0  0
M  END
>  <Name_Molregno>
411937

>  <HISTAMINE H3>
8.81

$$$$
411938
  Marvin  02231216192D 0   1.00000     0.00000     0

 27 30  0  0  1  0  0  0  0  0999 V2000
    0.5160   -2.0686    0.0000 N   0  0  0  0  0  0  0  0  0
    1.2304   -1.6561    0.0000 C   0  0  0  0  0  0  0  0  0
    1.9449   -1.2436    0.0000 C   0  0  0  0  0  0  0  0  0
    1.9449   -0.4186    0.0000 C   0  0  0  0  0  0  0  0  0
    2.6594   -0.0061    0.0000 C   0  0  0  0  0  0  0  0  0
    3.3738   -0.4186    0.0000 C   0  0  0  0  0  0  0  0  0
    3.3738   -1.2436    0.0000 C   0  0  0  0  0  0  0  0  0
    2.6594   -1.6561    0.0000 C   0  0  0  0  0  0  0  0  0
    4.0883   -0.0061    0.0000 C   0  0  0  0  0  0  0  0  0
    4.8028   -0.4186    0.0000 C   0  0  0  0  0  0  0  0  0
    5.5172   -0.0061    0.0000 C   0  0  0  0  0  0  0  0  0
    5.5172    0.8189    0.0000 C   0  0  0  0  0  0  0  0  0
    6.2317    1.2314    0.0000 C   0  0  0  0  0  0  0  0  0
    6.9462    0.8189    0.0000 C   0  0  0  0  0  0  0  0  0
    6.9462   -0.0061    0.0000 C   0  0  0  0  0  0  0  0  0
    6.2317   -0.4186    0.0000 C   0  0  0  0  0  0  0  0  0
    7.6607    1.2314    0.0000 C   0  0  0  0  0  0  0  0  0
    7.6607    2.0564    0.0000 C   0  0  0  0  0  0  0  0  0
    8.3751    2.4689    0.0000 N   0  0  0  0  0  0  0  0  0
    8.3751    3.2939    0.0000 C   0  0  0  0  0  0  0  0  0
    9.0896    3.7064    0.0000 C   0  0  0  0  0  0  0  0  0
    9.8041    3.2939    0.0000 C   0  0  0  0  0  0  0  0  0
    9.8041    2.4689    0.0000 C   0  0  0  0  0  0  0  0  0
    9.0896    2.0564    0.0000 C   0  0  0  0  0  0  0  0  0
    9.0896    1.2314    0.0000 C   0  0  0  0  0  0  0  0  0
    4.8028    1.2314    0.0000 C   0  0  0  0  0  0  0  0  0
    4.0883    0.8189    0.0000 C   0  0  0  0  0  0  0  0  0
  1  2  3  0  0  0  0
  2  3  1  0  0  0  0
  3  4  4  0  0  0  0
  3  8  4  0  0  0  0
  4  5  4  0  0  0  0
  5  6  4  0  0  0  0
  6  7  4  0  0  0  0
  6  9  1  0  0  0  0
  7  8  4  0  0  0  0
  9 10  4  0  0  0  0
  9 27  4  0  0  0  0
 10 11  4  0  0  0  0
 11 12  4  0  0  0  0
 11 16  4  0  0  0  0
 12 13  4  0  0  0  0
 12 26  4  0  0  0  0
 13 14  4  0  0  0  0
 14 15  4  0  0  0  0
 14 17  1  0  0  0  0
 15 16  4  0  0  0  0
 17 18  1  0  0  0  0
 18 19  1  0  0  0  0
 19 20  1  0  0  0  0
 19 24  1  0  0  0  0
 20 21  1  0  0  0  0
 21 22  1  0  0  0  0
 22 23  1  0  0  0  0
 23 24  1  0  0  0  0
 24 25  1  0  0  0  0
 26 27  4  0  0  0  0
M  END
>  <Name_Molregno>
411938

>  <HISTAMINE H3>
8.06

$$$$
411960
  Marvin  02231216192D 0   1.00000     0.00000     0

 23 25  0  0  0  0  0  0  0  0999 V2000
    0.5392   -3.1219    0.0000 N   0  0  0  0  0  0  0  0  0
    1.2536   -2.7094    0.0000 C   0  0  0  0  0  0  0  0  0
    1.2536   -1.8844    0.0000 C   0  0  0  0  0  0  0  0  0
    1.9681   -1.4719    0.0000 C   0  0  0  0  0  0  0  0  0
    2.6826   -1.8844    0.0000 C   0  0  0  0  0  0  0  0  0
    3.3971   -1.4719    0.0000 C   0  0  0  0  0  0  0  0  0
    3.3971   -0.6469    0.0000 C   0  0  0  0  0  0  0  0  0
    4.1115   -0.2344    0.0000 C   0  0  0  0  0  0  0  0  0
    4.8260   -0.6469    0.0000 C   0  0  0  0  0  0  0  0  0
    4.8260   -1.4719    0.0000 C   0  0  0  0  0  0  0  0  0
    4.1115   -1.8844    0.0000 C   0  0  0  0  0  0  0  0  0
    5.5405   -0.2344    0.0000 C   0  0  0  0  0  0  0  0  0
    5.5405    0.5906    0.0000 C   0  0  0  0  0  0  0  0  0
    6.2549    1.0031    0.0000 C   0  0  0  0  0  0  0  0  0
    6.9694    0.5906    0.0000 C   0  0  0  0  0  0  0  0  0
    6.9694   -0.2344    0.0000 C   0  0  0  0  0  0  0  0  0
    6.2549   -0.6469    0.0000 C   0  0  0  0  0  0  0  0  0
    7.6839    1.0031    0.0000 C   0  0  0  0  0  0  0  0  0
    8.3983    1.4156    0.0000 N   0  0  0  0  0  0  0  0  0
    2.6826   -0.2344    0.0000 C   0  0  0  0  0  0  0  0  0
    1.9681   -0.6469    0.0000 C   0  0  0  0  0  0  0  0  0
    0.5392   -3.9469    0.0000 C   0  0  0  0  0  0  0  0  0
   -0.1753   -2.7094    0.0000 C   0  0  0  0  0  0  0  0  0
  1  2  1  0  0  0  0
  1 22  1  0  0  0  0
  1 23  1  0  0  0  0
  2  3  1  0  0  0  0
  3  4  1  0  0  0  0
  4  5  4  0  0  0  0
  4 21  4  0  0  0  0
  5  6  4  0  0  0  0
  6  7  4  0  0  0  0
  6 11  4  0  0  0  0
  7  8  4  0  0  0  0
  7 20  4  0  0  0  0
  8  9  4  0  0  0  0
  9 10  4  0  0  0  0
  9 12  1  0  0  0  0
 10 11  4  0  0  0  0
 12 13  4  0  0  0  0
 12 17  4  0  0  0  0
 13 14  4  0  0  0  0
 14 15  4  0  0  0  0
 15 16  4  0  0  0  0
 15 18  1  0  0  0  0
 16 17  4  0  0  0  0
 18 19  3  0  0  0  0
 20 21  4  0  0  0  0
M  END
>  <Name_Molregno>
411960

>  <HISTAMINE H3>
8.58

$$$$
411961
  Marvin  02231216192D 0   1.00000     0.00000     0

 25 27  0  0  0  0  0  0  0  0999 V2000
    6.2763   -3.4446    0.0000 N   0  0  0  0  0  0  0  0  0
    5.5618   -3.0321    0.0000 C   0  0  0  0  0  0  0  0  0
    5.5618   -2.2071    0.0000 C   0  0  0  0  0  0  0  0  0
    4.8474   -1.7946    0.0000 C   0  0  0  0  0  0  0  0  0
    4.8474   -0.9696    0.0000 C   0  0  0  0  0  0  0  0  0
    4.1329   -0.5571    0.0000 C   0  0  0  0  0  0  0  0  0
    3.4184   -0.9696    0.0000 C   0  0  0  0  0  0  0  0  0
    2.7040   -0.5571    0.0000 C   0  0  0  0  0  0  0  0  0
    2.7040    0.2679    0.0000 C   0  0  0  0  0  0  0  0  0
    3.4184    0.6804    0.0000 C   0  0  0  0  0  0  0  0  0
    4.1329    0.2679    0.0000 C   0  0  0  0  0  0  0  0  0
    1.9895    0.6804    0.0000 C   0  0  0  0  0  0  0  0  0
    1.2750    0.2679    0.0000 C   0  0  0  0  0  0  0  0  0
    0.5606    0.6804    0.0000 C   0  0  0  0  0  0  0  0  0
    0.5606    1.5054    0.0000 C   0  0  0  0  0  0  0  0  0
    1.2750    1.9179    0.0000 C   0  0  0  0  0  0  0  0  0
    1.9895    1.5054    0.0000 C   0  0  0  0  0  0  0  0  0
   -0.1539    1.9179    0.0000 C   0  0  0  0  0  0  0  0  0
   -0.8684    2.3304    0.0000 N   0  0  0  0  0  0  0  0  0
    3.4184   -1.7946    0.0000 C   0  0  0  0  0  0  0  0  0
    4.1329   -2.2071    0.0000 C   0  0  0  0  0  0  0  0  0
    6.2763   -4.2696    0.0000 C   0  0  0  0  0  0  0  0  0
    6.9908   -4.6821    0.0000 C   0  0  0  0  0  0  0  0  0
    6.9908   -3.0321    0.0000 C   0  0  0  0  0  0  0  0  0
    7.7053   -3.4446    0.0000 C   0  0  0  0  0  0  0  0  0
  1  2  1  0  0  0  0
  1 22  1  0  0  0  0
  1 24  1  0  0  0  0
  2  3  1  0  0  0  0
  3  4  1  0  0  0  0
  4  5  4  0  0  0  0
  4 21  4  0  0  0  0
  5  6  4  0  0  0  0
  6  7  4  0  0  0  0
  6 11  4  0  0  0  0
  7  8  4  0  0  0  0
  7 20  4  0  0  0  0
  8  9  4  0  0  0  0
  9 10  4  0  0  0  0
  9 12  1  0  0  0  0
 10 11  4  0  0  0  0
 12 13  4  0  0  0  0
 12 17  4  0  0  0  0
 13 14  4  0  0  0  0
 14 15  4  0  0  0  0
 15 16  4  0  0  0  0
 15 18  1  0  0  0  0
 16 17  4  0  0  0  0
 18 19  3  0  0  0  0
 20 21  4  0  0  0  0
 22 23  1  0  0  0  0
 24 25  1  0  0  0  0
M  END
>  <Name_Molregno>
411961

>  <HISTAMINE H3>
9.07

$$$$
411962
  Marvin  02231216192D 0   1.00000     0.00000     0

 25 27  0  0  0  0  0  0  0  0999 V2000
    6.6961   -2.5213    0.0000 N   0  0  0  0  0  0  0  0  0
    5.9816   -2.1088    0.0000 C   0  0  0  0  0  0  0  0  0
    5.2671   -2.5213    0.0000 C   0  0  0  0  0  0  0  0  0
    4.5526   -2.1088    0.0000 C   0  0  0  0  0  0  0  0  0
    4.5526   -1.2838    0.0000 C   0  0  0  0  0  0  0  0  0
    3.8382   -0.8713    0.0000 C   0  0  0  0  0  0  0  0  0
    3.1237   -1.2838    0.0000 C   0  0  0  0  0  0  0  0  0
    2.4092   -0.8713    0.0000 C   0  0  0  0  0  0  0  0  0
    2.4092   -0.0463    0.0000 C   0  0  0  0  0  0  0  0  0
    3.1237    0.3662    0.0000 C   0  0  0  0  0  0  0  0  0
    3.8382   -0.0463    0.0000 C   0  0  0  0  0  0  0  0  0
    1.6948    0.3662    0.0000 C   0  0  0  0  0  0  0  0  0
    0.9803   -0.0463    0.0000 C   0  0  0  0  0  0  0  0  0
    0.2658    0.3662    0.0000 C   0  0  0  0  0  0  0  0  0
    0.2658    1.1912    0.0000 C   0  0  0  0  0  0  0  0  0
    0.9803    1.6037    0.0000 C   0  0  0  0  0  0  0  0  0
    1.6948    1.1912    0.0000 C   0  0  0  0  0  0  0  0  0
   -0.4487    1.6037    0.0000 C   0  0  0  0  0  0  0  0  0
   -1.1631    2.0162    0.0000 N   0  0  0  0  0  0  0  0  0
    3.1237   -2.1088    0.0000 C   0  0  0  0  0  0  0  0  0
    3.8382   -2.5213    0.0000 C   0  0  0  0  0  0  0  0  0
    7.4105   -2.1088    0.0000 C   0  0  0  0  0  0  0  0  0
    8.1250   -2.5213    0.0000 C   0  0  0  0  0  0  0  0  0
    8.8395   -2.1088    0.0000 C   0  0  0  0  0  0  0  0  0
    6.6961   -3.3463    0.0000 C   0  0  0  0  0  0  0  0  0
  1  2  1  0  0  0  0
  1 22  1  0  0  0  0
  1 25  1  0  0  0  0
  2  3  1  0  0  0  0
  3  4  1  0  0  0  0
  4  5  4  0  0  0  0
  4 21  4  0  0  0  0
  5  6  4  0  0  0  0
  6  7  4  0  0  0  0
  6 11  4  0  0  0  0
  7  8  4  0  0  0  0
  7 20  4  0  0  0  0
  8  9  4  0  0  0  0
  9 10  4  0  0  0  0
  9 12  1  0  0  0  0
 10 11  4  0  0  0  0
 12 13  4  0  0  0  0
 12 17  4  0  0  0  0
 13 14  4  0  0  0  0
 14 15  4  0  0  0  0
 15 16  4  0  0  0  0
 15 18  1  0  0  0  0
 16 17  4  0  0  0  0
 18 19  3  0  0  0  0
 20 21  4  0  0  0  0
 22 23  1  0  0  0  0
 23 24  1  0  0  0  0
M  END
>  <Name_Molregno>
411962

>  <HISTAMINE H3>
8.68

$$$$
411965
  Marvin  02231216192D 0   1.00000     0.00000     0

 26 28  0  0  0  0  0  0  0  0999 V2000
   -6.8639   -0.3380    0.0000 N   0  0  0  0  0  0  0  0  0
   -7.5784    0.0745    0.0000 C   0  0  0  0  0  0  0  0  0
   -8.2929    0.4870    0.0000 C   0  0  0  0  0  0  0  0  0
   -7.9909   -0.6399    0.0000 C   0  0  0  0  0  0  0  0  0
   -7.1659    0.7890    0.0000 C   0  0  0  0  0  0  0  0  0
   -6.1494    0.0745    0.0000 C   0  0  0  0  0  0  0  0  0
   -5.4350   -0.3380    0.0000 C   0  0  0  0  0  0  0  0  0
   -4.7205    0.0745    0.0000 C   0  0  0  0  0  0  0  0  0
   -4.0060   -0.3380    0.0000 C   0  0  0  0  0  0  0  0  0
   -3.2916    0.0745    0.0000 C   0  0  0  0  0  0  0  0  0
   -3.2916    0.8995    0.0000 C   0  0  0  0  0  0  0  0  0
   -2.5771    1.3120    0.0000 C   0  0  0  0  0  0  0  0  0
   -1.8626    0.8995    0.0000 C   0  0  0  0  0  0  0  0  0
   -1.8626    0.0745    0.0000 C   0  0  0  0  0  0  0  0  0
   -2.5771   -0.3380    0.0000 C   0  0  0  0  0  0  0  0  0
   -1.1482    1.3120    0.0000 C   0  0  0  0  0  0  0  0  0
   -1.1482    2.1370    0.0000 C   0  0  0  0  0  0  0  0  0
   -0.4337    2.5495    0.0000 C   0  0  0  0  0  0  0  0  0
    0.2808    2.1370    0.0000 C   0  0  0  0  0  0  0  0  0
    0.2808    1.3120    0.0000 C   0  0  0  0  0  0  0  0  0
   -0.4337    0.8995    0.0000 C   0  0  0  0  0  0  0  0  0
    0.9953    2.5495    0.0000 C   0  0  0  0  0  0  0  0  0
    1.7097    2.9620    0.0000 N   0  0  0  0  0  0  0  0  0
   -4.0060    1.3120    0.0000 C   0  0  0  0  0  0  0  0  0
   -4.7205    0.8995    0.0000 C   0  0  0  0  0  0  0  0  0
   -6.8639   -1.1630    0.0000 C   0  0  0  0  0  0  0  0  0
  1  2  1  0  0  0  0
  1  6  1  0  0  0  0
  1 26  1  0  0  0  0
  2  3  1  0  0  0  0
  2  4  1  0  0  0  0
  2  5  1  0  0  0  0
  6  7  1  0  0  0  0
  7  8  1  0  0  0  0
  8  9  4  0  0  0  0
  8 25  4  0  0  0  0
  9 10  4  0  0  0  0
 10 11  4  0  0  0  0
 10 15  4  0  0  0  0
 11 12  4  0  0  0  0
 11 24  4  0  0  0  0
 12 13  4  0  0  0  0
 13 14  4  0  0  0  0
 13 16  1  0  0  0  0
 14 15  4  0  0  0  0
 16 17  4  0  0  0  0
 16 21  4  0  0  0  0
 17 18  4  0  0  0  0
 18 19  4  0  0  0  0
 19 20  4  0  0  0  0
 19 22  1  0  0  0  0
 20 21  4  0  0  0  0
 22 23  3  0  0  0  0
 24 25  4  0  0  0  0
M  END
>  <Name_Molregno>
411965

>  <HISTAMINE H3>
8.96

$$$$
411972
  Marvin  02231216192D 0   1.00000     0.00000     0

 26 28  0  0  0  0  0  0  0  0999 V2000
   -0.7328   -3.4713    0.0000 N   0  0  0  0  0  0  0  0  0
   -0.7328   -4.2963    0.0000 C   0  0  0  0  0  0  0  0  0
   -0.0183   -4.7088    0.0000 C   0  0  0  0  0  0  0  0  0
   -1.4473   -4.7088    0.0000 C   0  0  0  0  0  0  0  0  0
   -1.4473   -3.0588    0.0000 C   0  0  0  0  0  0  0  0  0
   -1.4473   -2.2338    0.0000 C   0  0  0  0  0  0  0  0  0
   -2.1617   -1.8213    0.0000 C   0  0  0  0  0  0  0  0  0
   -2.1617   -0.9963    0.0000 C   0  0  0  0  0  0  0  0  0
   -2.8762   -0.5838    0.0000 C   0  0  0  0  0  0  0  0  0
   -3.5907   -0.9963    0.0000 C   0  0  0  0  0  0  0  0  0
   -4.3052   -0.5838    0.0000 C   0  0  0  0  0  0  0  0  0
   -4.3052    0.2412    0.0000 C   0  0  0  0  0  0  0  0  0
   -3.5907    0.6537    0.0000 C   0  0  0  0  0  0  0  0  0
   -2.8762    0.2412    0.0000 C   0  0  0  0  0  0  0  0  0
   -5.0196    0.6537    0.0000 C   0  0  0  0  0  0  0  0  0
   -5.7341    0.2412    0.0000 C   0  0  0  0  0  0  0  0  0
   -6.4486    0.6537    0.0000 C   0  0  0  0  0  0  0  0  0
   -6.4486    1.4787    0.0000 C   0  0  0  0  0  0  0  0  0
   -5.7341    1.8912    0.0000 C   0  0  0  0  0  0  0  0  0
   -5.0196    1.4787    0.0000 C   0  0  0  0  0  0  0  0  0
   -7.1630    1.8912    0.0000 C   0  0  0  0  0  0  0  0  0
   -7.8775    2.3037    0.0000 N   0  0  0  0  0  0  0  0  0
   -3.5907   -1.8213    0.0000 C   0  0  0  0  0  0  0  0  0
   -2.8762   -2.2338    0.0000 C   0  0  0  0  0  0  0  0  0
   -0.0183   -3.0588    0.0000 C   0  0  0  0  0  0  0  0  0
    0.6961   -3.4713    0.0000 C   0  0  0  0  0  0  0  0  0
  1  2  1  0  0  0  0
  1  5  1  0  0  0  0
  1 25  1  0  0  0  0
  2  3  1  0  0  0  0
  2  4  1  0  0  0  0
  5  6  1  0  0  0  0
  6  7  1  0  0  0  0
  7  8  4  0  0  0  0
  7 24  4  0  0  0  0
  8  9  4  0  0  0  0
  9 10  4  0  0  0  0
  9 14  4  0  0  0  0
 10 11  4  0  0  0  0
 10 23  4  0  0  0  0
 11 12  4  0  0  0  0
 12 13  4  0  0  0  0
 12 15  1  0  0  0  0
 13 14  4  0  0  0  0
 15 16  4  0  0  0  0
 15 20  4  0  0  0  0
 16 17  4  0  0  0  0
 17 18  4  0  0  0  0
 18 19  4  0  0  0  0
 18 21  1  0  0  0  0
 19 20  4  0  0  0  0
 21 22  3  0  0  0  0
 23 24  4  0  0  0  0
 25 26  1  0  0  0  0
M  END
>  <Name_Molregno>
411972

>  <HISTAMINE H3>
8.34

$$$$
411974
  Marvin  02231216192D 0   1.00000     0.00000     0

 23 25  0  0  1  0  0  0  0  0999 V2000
   -6.5614   -0.0157    0.0000 O   0  0  0  0  0  0  0  0  0
   -6.5614   -0.8407    0.0000 C   0  0  0  0  0  0  0  0  0
   -7.2759   -1.2532    0.0000 N   0  0  0  0  0  0  0  0  0
   -7.9903   -0.8407    0.0000 C   0  0  0  0  0  0  0  0  0
   -5.8469   -1.2532    0.0000 C   0  0  0  0  0  0  0  0  0
   -5.1325   -0.8407    0.0000 C   0  0  0  0  0  0  0  0  0
   -4.4180   -1.2532    0.0000 C   0  0  0  0  0  0  0  0  0
   -3.7035   -0.8407    0.0000 C   0  0  0  0  0  0  0  0  0
   -3.7035   -0.0157    0.0000 C   0  0  0  0  0  0  0  0  0
   -2.9890    0.3968    0.0000 C   0  0  0  0  0  0  0  0  0
   -2.2746   -0.0157    0.0000 C   0  0  0  0  0  0  0  0  0
   -2.2746   -0.8407    0.0000 C   0  0  0  0  0  0  0  0  0
   -2.9890   -1.2532    0.0000 C   0  0  0  0  0  0  0  0  0
   -1.5601    0.3968    0.0000 C   0  0  0  0  0  0  0  0  0
   -1.5601    1.2218    0.0000 C   0  0  0  0  0  0  0  0  0
   -0.8456    1.6343    0.0000 C   0  0  0  0  0  0  0  0  0
   -0.1312    1.2218    0.0000 C   0  0  0  0  0  0  0  0  0
   -0.1312    0.3968    0.0000 C   0  0  0  0  0  0  0  0  0
   -0.8456   -0.0157    0.0000 C   0  0  0  0  0  0  0  0  0
    0.5833    1.6343    0.0000 C   0  0  0  0  0  0  0  0  0
    1.2978    2.0468    0.0000 N   0  0  0  0  0  0  0  0  0
   -4.4180    0.3968    0.0000 C   0  0  0  0  0  0  0  0  0
   -5.1325   -0.0157    0.0000 C   0  0  0  0  0  0  0  0  0
  1  2  1  0  0  0  0
  2  3  1  0  0  0  0
  2  5  1  0  0  0  0
  3  4  1  0  0  0  0
  5  6  1  0  0  0  0
  6  7  4  0  0  0  0
  6 23  4  0  0  0  0
  7  8  4  0  0  0  0
  8  9  4  0  0  0  0
  8 13  4  0  0  0  0
  9 10  4  0  0  0  0
  9 22  4  0  0  0  0
 10 11  4  0  0  0  0
 11 12  4  0  0  0  0
 11 14  1  0  0  0  0
 12 13  4  0  0  0  0
 14 15  4  0  0  0  0
 14 19  4  0  0  0  0
 15 16  4  0  0  0  0
 16 17  4  0  0  0  0
 17 18  4  0  0  0  0
 17 20  1  0  0  0  0
 18 19  4  0  0  0  0
 20 21  3  0  0  0  0
 22 23  4  0  0  0  0
M  END
>  <Name_Molregno>
411974

>  <HISTAMINE H3>
7.98

$$$$
412281
  Marvin  02231216192D 0   1.00000     0.00000     0

 34 39  0  0  1  0  0  0  0  0999 V2000
   -2.0807    4.0431    0.0000 O   0  0  0  0  0  0  0  0  0
   -1.6907    3.3161    0.0000 C   0  0  0  0  0  0  0  0  0
   -2.1253    2.6148    0.0000 C   0  0  0  0  0  0  0  0  0
   -2.9499    2.6406    0.0000 N   0  0  0  0  0  0  0  0  0
   -3.3399    3.3676    0.0000 C   0  0  0  0  0  0  0  0  0
   -2.9053    4.0688    0.0000 C   0  0  0  0  0  0  0  0  0
   -3.3846    1.9393    0.0000 C   0  0  0  0  0  0  0  0  0
   -4.2092    1.9651    0.0000 C   0  0  0  0  0  0  0  0  0
   -4.6438    1.2639    0.0000 C   0  0  0  0  0  0  0  0  0
   -5.4684    1.2896    0.0000 O   0  0  0  0  0  0  0  0  0
   -5.9030    0.5884    0.0000 C   0  0  0  0  0  0  0  0  0
   -6.7276    0.6141    0.0000 C   0  0  0  0  0  0  0  0  0
   -7.1622   -0.0871    0.0000 C   0  0  0  0  0  0  0  0  0
   -6.7722   -0.8141    0.0000 C   0  0  0  0  0  0  0  0  0
   -5.9476   -0.8399    0.0000 C   0  0  0  0  0  0  0  0  0
   -5.5130   -0.1386    0.0000 C   0  0  0  0  0  0  0  0  0
   -7.2068   -1.5153    0.0000 C   0  0  0  0  0  0  0  0  0
   -8.0314   -1.4896    0.0000 C   0  0  0  0  0  0  0  0  0
   -8.4214   -0.7626    0.0000 N   0  0  0  0  0  0  0  0  0
   -7.9868   -0.0613    0.0000 C   0  0  0  0  0  0  0  0  0
   -8.5194    0.5687    0.0000 C   0  0  0  0  0  0  0  0  0
   -9.2832    0.2568    0.0000 C   0  0  0  0  0  0  0  0  0
   -9.2226   -0.5659    0.0000 C   0  0  0  0  0  0  0  0  0
   -6.8168   -2.2423    0.0000 C   0  0  0  0  0  0  0  0  0
   -5.9922   -2.2681    0.0000 C   0  0  0  0  0  0  0  0  0
   -5.6022   -2.9951    0.0000 C   0  0  0  0  0  0  0  0  0
   -6.0368   -3.6964    0.0000 C   0  0  0  0  0  0  0  0  0
   -5.6469   -4.4234    0.0000 N   0  0  0  0  0  0  0  0  0
   -4.8295   -4.5352    0.0000 N   0  0  0  0  0  0  0  0  0
   -4.6832   -5.3471    0.0000 C   0  0  0  0  0  0  0  0  0
   -5.4102   -5.7371    0.0000 C   0  0  0  0  0  0  0  0  0
   -6.0058   -5.1662    0.0000 C   0  0  0  0  0  0  0  0  0
   -6.8614   -3.6706    0.0000 C   0  0  0  0  0  0  0  0  0
   -7.2514   -2.9436    0.0000 C   0  0  0  0  0  0  0  0  0
  1  2  1  0  0  0  0
  1  6  1  0  0  0  0
  2  3  1  0  0  0  0
  3  4  1  0  0  0  0
  4  5  1  0  0  0  0
  4  7  1  0  0  0  0
  5  6  1  0  0  0  0
  7  8  1  0  0  0  0
  8  9  1  0  0  0  0
  9 10  1  0  0  0  0
 10 11  1  0  0  0  0
 11 12  4  0  0  0  0
 11 16  4  0  0  0  0
 12 13  4  0  0  0  0
 13 14  4  0  0  0  0
 13 20  1  0  0  0  0
 14 15  4  0  0  0  0
 14 17  1  0  0  0  0
 15 16  4  0  0  0  0
 17 18  1  0  0  0  0
 17 24  1  0  0  0  0
 18 19  1  0  0  0  0
 19 20  1  0  0  0  0
 19 23  1  0  0  0  0
 20 21  1  0  0  0  0
 21 22  1  0  0  0  0
 22 23  1  0  0  0  0
 24 25  4  0  0  0  0
 24 34  4  0  0  0  0
 25 26  4  0  0  0  0
 26 27  4  0  0  0  0
 27 28  1  0  0  0  0
 27 33  4  0  0  0  0
 28 29  4  0  0  0  0
 28 32  4  0  0  0  0
 29 30  4  0  0  0  0
 30 31  4  0  0  0  0
 31 32  4  0  0  0  0
 33 34  4  0  0  0  0
M  END
>  <Name_Molregno>
412281

>  <HISTAMINE H3>
8.28

>  <Serotonin transporter>
7.91

$$$$
412283
  Marvin  02231216192D 0   1.00000     0.00000     0

 34 39  0  0  1  0  0  0  0  0999 V2000
   -2.0807    4.0431    0.0000 O   0  0  0  0  0  0  0  0  0
   -1.6907    3.3161    0.0000 C   0  0  0  0  0  0  0  0  0
   -2.1253    2.6148    0.0000 C   0  0  0  0  0  0  0  0  0
   -2.9499    2.6406    0.0000 N   0  0  0  0  0  0  0  0  0
   -3.3399    3.3676    0.0000 C   0  0  0  0  0  0  0  0  0
   -2.9053    4.0688    0.0000 C   0  0  0  0  0  0  0  0  0
   -3.3846    1.9393    0.0000 C   0  0  0  0  0  0  0  0  0
   -4.2092    1.9651    0.0000 C   0  0  0  0  0  0  0  0  0
   -4.6438    1.2639    0.0000 C   0  0  0  0  0  0  0  0  0
   -5.4684    1.2896    0.0000 O   0  0  0  0  0  0  0  0  0
   -5.9030    0.5884    0.0000 C   0  0  0  0  0  0  0  0  0
   -6.7276    0.6141    0.0000 C   0  0  0  0  0  0  0  0  0
   -7.1622   -0.0871    0.0000 C   0  0  0  0  0  0  0  0  0
   -6.7722   -0.8141    0.0000 C   0  0  0  0  0  0  0  0  0
   -5.9476   -0.8399    0.0000 C   0  0  0  0  0  0  0  0  0
   -5.5130   -0.1386    0.0000 C   0  0  0  0  0  0  0  0  0
   -7.2068   -1.5153    0.0000 C   0  0  0  0  0  0  0  0  0
   -8.0314   -1.4896    0.0000 C   0  0  0  0  0  0  0  0  0
   -8.4214   -0.7626    0.0000 N   0  0  0  0  0  0  0  0  0
   -7.9868   -0.0613    0.0000 C   0  0  0  0  0  0  0  0  0
   -8.5194    0.5687    0.0000 C   0  0  0  0  0  0  0  0  0
   -9.2832    0.2568    0.0000 C   0  0  0  0  0  0  0  0  0
   -9.2226   -0.5659    0.0000 C   0  0  0  0  0  0  0  0  0
   -6.8168   -2.2423    0.0000 C   0  0  0  0  0  0  0  0  0
   -5.9922   -2.2681    0.0000 C   0  0  0  0  0  0  0  0  0
   -5.6022   -2.9951    0.0000 C   0  0  0  0  0  0  0  0  0
   -6.0368   -3.6964    0.0000 C   0  0  0  0  0  0  0  0  0
   -5.6469   -4.4234    0.0000 N   0  0  0  0  0  0  0  0  0
   -4.8295   -4.5352    0.0000 C   0  0  0  0  0  0  0  0  0
   -4.6832   -5.3471    0.0000 C   0  0  0  0  0  0  0  0  0
   -5.4102   -5.7371    0.0000 N   0  0  0  0  0  0  0  0  0
   -6.0058   -5.1662    0.0000 C   0  0  0  0  0  0  0  0  0
   -6.8614   -3.6706    0.0000 C   0  0  0  0  0  0  0  0  0
   -7.2514   -2.9436    0.0000 C   0  0  0  0  0  0  0  0  0
  1  2  1  0  0  0  0
  1  6  1  0  0  0  0
  2  3  1  0  0  0  0
  3  4  1  0  0  0  0
  4  5  1  0  0  0  0
  4  7  1  0  0  0  0
  5  6  1  0  0  0  0
  7  8  1  0  0  0  0
  8  9  1  0  0  0  0
  9 10  1  0  0  0  0
 10 11  1  0  0  0  0
 11 12  4  0  0  0  0
 11 16  4  0  0  0  0
 12 13  4  0  0  0  0
 13 14  4  0  0  0  0
 13 20  1  0  0  0  0
 14 15  4  0  0  0  0
 14 17  1  0  0  0  0
 15 16  4  0  0  0  0
 17 18  1  0  0  0  0
 17 24  1  0  0  0  0
 18 19  1  0  0  0  0
 19 20  1  0  0  0  0
 19 23  1  0  0  0  0
 20 21  1  0  0  0  0
 21 22  1  0  0  0  0
 22 23  1  0  0  0  0
 24 25  4  0  0  0  0
 24 34  4  0  0  0  0
 25 26  4  0  0  0  0
 26 27  4  0  0  0  0
 27 28  1  0  0  0  0
 27 33  4  0  0  0  0
 28 29  4  0  0  0  0
 28 32  4  0  0  0  0
 29 30  4  0  0  0  0
 30 31  4  0  0  0  0
 31 32  4  0  0  0  0
 33 34  4  0  0  0  0
M  END
>  <Name_Molregno>
412283

>  <HISTAMINE H3>
8.24

>  <Serotonin transporter>
7.78

$$$$
412284
  Marvin  02231216192D 0   1.00000     0.00000     0

 29 33  0  0  1  0  0  0  0  0999 V2000
   -0.4759    0.3104    0.0000 O   0  0  0  0  0  0  0  0  0
    0.3487    0.2846    0.0000 C   0  0  0  0  0  0  0  0  0
    0.7833    0.9859    0.0000 C   0  0  0  0  0  0  0  0  0
    1.6079    0.9601    0.0000 C   0  0  0  0  0  0  0  0  0
    2.0425    1.6614    0.0000 N   0  0  0  0  0  0  0  0  0
    1.6525    2.3884    0.0000 C   0  0  0  0  0  0  0  0  0
    2.0871    3.0896    0.0000 C   0  0  0  0  0  0  0  0  0
    2.9117    3.0639    0.0000 C   0  0  0  0  0  0  0  0  0
    3.3017    2.3368    0.0000 C   0  0  0  0  0  0  0  0  0
    2.8671    1.6356    0.0000 C   0  0  0  0  0  0  0  0  0
   -0.9105   -0.3908    0.0000 C   0  0  0  0  0  0  0  0  0
   -1.7351   -0.3651    0.0000 C   0  0  0  0  0  0  0  0  0
   -2.1697   -1.0663    0.0000 C   0  0  0  0  0  0  0  0  0
   -1.7798   -1.7933    0.0000 C   0  0  0  0  0  0  0  0  0
   -0.9552   -1.8191    0.0000 C   0  0  0  0  0  0  0  0  0
   -0.5205   -1.1178    0.0000 C   0  0  0  0  0  0  0  0  0
   -2.2144   -2.4946    0.0000 C   0  0  0  0  0  0  0  0  0
   -3.0390   -2.4688    0.0000 C   0  0  0  0  0  0  0  0  0
   -3.4290   -1.7418    0.0000 N   0  0  0  0  0  0  0  0  0
   -2.9943   -1.0405    0.0000 C   0  0  0  0  0  0  0  0  0
   -3.5270   -0.4105    0.0000 C   0  0  0  0  0  0  0  0  0
   -4.2907   -0.7224    0.0000 C   0  0  0  0  0  0  0  0  0
   -4.2302   -1.5451    0.0000 C   0  0  0  0  0  0  0  0  0
   -1.8244   -3.2216    0.0000 C   0  0  0  0  0  0  0  0  0
   -0.9998   -3.2473    0.0000 C   0  0  0  0  0  0  0  0  0
   -0.6098   -3.9743    0.0000 C   0  0  0  0  0  0  0  0  0
   -1.0444   -4.6756    0.0000 N   0  0  0  0  0  0  0  0  0
   -1.8690   -4.6498    0.0000 C   0  0  0  0  0  0  0  0  0
   -2.2590   -3.9228    0.0000 C   0  0  0  0  0  0  0  0  0
  1  2  1  0  0  0  0
  1 11  1  0  0  0  0
  2  3  1  0  0  0  0
  3  4  1  0  0  0  0
  4  5  1  0  0  0  0
  5  6  1  0  0  0  0
  5 10  1  0  0  0  0
  6  7  1  0  0  0  0
  7  8  1  0  0  0  0
  8  9  1  0  0  0  0
  9 10  1  0  0  0  0
 11 12  4  0  0  0  0
 11 16  4  0  0  0  0
 12 13  4  0  0  0  0
 13 14  4  0  0  0  0
 13 20  1  0  0  0  0
 14 15  4  0  0  0  0
 14 17  1  0  0  0  0
 15 16  4  0  0  0  0
 17 18  1  0  0  0  0
 17 24  1  0  0  0  0
 18 19  1  0  0  0  0
 19 20  1  0  0  0  0
 19 23  1  0  0  0  0
 20 21  1  0  0  0  0
 21 22  1  0  0  0  0
 22 23  1  0  0  0  0
 24 25  4  0  0  0  0
 24 29  4  0  0  0  0
 25 26  4  0  0  0  0
 26 27  4  0  0  0  0
 27 28  4  0  0  0  0
 28 29  4  0  0  0  0
M  END
>  <Name_Molregno>
412284

>  <HISTAMINE H3>
9

>  <Serotonin transporter>
7.18

$$$$
412300
  Marvin  02231216192D 0   1.00000     0.00000     0

 29 33  0  0  1  0  0  0  0  0999 V2000
   -0.4759    0.3104    0.0000 O   0  0  0  0  0  0  0  0  0
    0.3487    0.2846    0.0000 C   0  0  0  0  0  0  0  0  0
    0.7833    0.9859    0.0000 C   0  0  0  0  0  0  0  0  0
    1.6079    0.9601    0.0000 C   0  0  0  0  0  0  0  0  0
    2.0425    1.6614    0.0000 N   0  0  0  0  0  0  0  0  0
    1.6525    2.3884    0.0000 C   0  0  0  0  0  0  0  0  0
    2.0871    3.0896    0.0000 C   0  0  0  0  0  0  0  0  0
    2.9117    3.0639    0.0000 C   0  0  0  0  0  0  0  0  0
    3.3017    2.3368    0.0000 C   0  0  0  0  0  0  0  0  0
    2.8671    1.6356    0.0000 C   0  0  0  0  0  0  0  0  0
   -0.9105   -0.3908    0.0000 C   0  0  0  0  0  0  0  0  0
   -1.7351   -0.3651    0.0000 C   0  0  0  0  0  0  0  0  0
   -2.1697   -1.0663    0.0000 C   0  0  0  0  0  0  0  0  0
   -1.7798   -1.7933    0.0000 C   0  0  0  0  0  0  0  0  0
   -0.9552   -1.8191    0.0000 C   0  0  0  0  0  0  0  0  0
   -0.5205   -1.1178    0.0000 C   0  0  0  0  0  0  0  0  0
   -2.2144   -2.4946    0.0000 C   0  0  0  0  0  0  0  0  0
   -3.0390   -2.4688    0.0000 C   0  0  0  0  0  0  0  0  0
   -3.4290   -1.7418    0.0000 N   0  0  0  0  0  0  0  0  0
   -2.9943   -1.0405    0.0000 C   0  0  0  0  0  0  0  0  0
   -3.5270   -0.4105    0.0000 C   0  0  0  0  0  0  0  0  0
   -4.2907   -0.7224    0.0000 C   0  0  0  0  0  0  0  0  0
   -4.2302   -1.5451    0.0000 C   0  0  0  0  0  0  0  0  0
   -1.8244   -3.2216    0.0000 C   0  0  0  0  0  0  0  0  0
   -0.9998   -3.2473    0.0000 C   0  0  0  0  0  0  0  0  0
   -0.6098   -3.9743    0.0000 C   0  0  0  0  0  0  0  0  0
   -1.0444   -4.6756    0.0000 C   0  0  0  0  0  0  0  0  0
   -1.8690   -4.6498    0.0000 N   0  0  0  0  0  0  0  0  0
   -2.2590   -3.9228    0.0000 C   0  0  0  0  0  0  0  0  0
  1  2  1  0  0  0  0
  1 11  1  0  0  0  0
  2  3  1  0  0  0  0
  3  4  1  0  0  0  0
  4  5  1  0  0  0  0
  5  6  1  0  0  0  0
  5 10  1  0  0  0  0
  6  7  1  0  0  0  0
  7  8  1  0  0  0  0
  8  9  1  0  0  0  0
  9 10  1  0  0  0  0
 11 12  4  0  0  0  0
 11 16  4  0  0  0  0
 12 13  4  0  0  0  0
 13 14  4  0  0  0  0
 13 20  1  0  0  0  0
 14 15  4  0  0  0  0
 14 17  1  0  0  0  0
 15 16  4  0  0  0  0
 17 18  1  0  0  0  0
 17 24  1  0  0  0  0
 18 19  1  0  0  0  0
 19 20  1  0  0  0  0
 19 23  1  0  0  0  0
 20 21  1  0  0  0  0
 21 22  1  0  0  0  0
 22 23  1  0  0  0  0
 24 25  4  0  0  0  0
 24 29  4  0  0  0  0
 25 26  4  0  0  0  0
 26 27  4  0  0  0  0
 27 28  4  0  0  0  0
 28 29  4  0  0  0  0
M  END
>  <Name_Molregno>
412300

>  <Dopamine transporter>
6.97

>  <HISTAMINE H3>
9.1

>  <Norepinephrine transporter>
6.34

>  <Serotonin transporter>
8.08

$$$$
412303
  Marvin  02231216192D 0   1.00000     0.00000     0

 29 33  0  0  1  0  0  0  0  0999 V2000
   -1.4133    2.8167    0.0000 O   0  0  0  0  0  0  0  0  0
   -1.0233    2.0897    0.0000 C   0  0  0  0  0  0  0  0  0
   -1.4579    1.3884    0.0000 C   0  0  0  0  0  0  0  0  0
   -2.2825    1.4142    0.0000 N   0  0  0  0  0  0  0  0  0
   -2.6725    2.1412    0.0000 C   0  0  0  0  0  0  0  0  0
   -2.2379    2.8424    0.0000 C   0  0  0  0  0  0  0  0  0
   -2.7171    0.7130    0.0000 C   0  0  0  0  0  0  0  0  0
   -3.5417    0.7387    0.0000 C   0  0  0  0  0  0  0  0  0
   -3.9763    0.0375    0.0000 C   0  0  0  0  0  0  0  0  0
   -4.8009    0.0632    0.0000 O   0  0  0  0  0  0  0  0  0
   -5.2355   -0.6380    0.0000 C   0  0  0  0  0  0  0  0  0
   -6.0601   -0.6122    0.0000 C   0  0  0  0  0  0  0  0  0
   -6.4947   -1.3135    0.0000 C   0  0  0  0  0  0  0  0  0
   -6.1047   -2.0405    0.0000 C   0  0  0  0  0  0  0  0  0
   -5.2801   -2.0662    0.0000 C   0  0  0  0  0  0  0  0  0
   -4.8455   -1.3650    0.0000 C   0  0  0  0  0  0  0  0  0
   -6.5393   -2.7417    0.0000 C   0  0  0  0  0  0  0  0  0
   -7.3639   -2.7160    0.0000 C   0  0  0  0  0  0  0  0  0
   -7.7539   -1.9890    0.0000 N   0  0  0  0  0  0  0  0  0
   -7.3193   -1.2877    0.0000 C   0  0  0  0  0  0  0  0  0
   -7.8519   -0.6577    0.0000 C   0  0  0  0  0  0  0  0  0
   -8.6157   -0.9695    0.0000 C   0  0  0  0  0  0  0  0  0
   -8.5551   -1.7923    0.0000 C   0  0  0  0  0  0  0  0  0
   -6.1493   -3.4687    0.0000 C   0  0  0  0  0  0  0  0  0
   -5.3247   -3.4945    0.0000 C   0  0  0  0  0  0  0  0  0
   -4.9348   -4.2215    0.0000 C   0  0  0  0  0  0  0  0  0
   -5.3694   -4.9227    0.0000 C   0  0  0  0  0  0  0  0  0
   -6.1940   -4.8970    0.0000 N   0  0  0  0  0  0  0  0  0
   -6.5840   -4.1700    0.0000 C   0  0  0  0  0  0  0  0  0
  1  2  1  0  0  0  0
  1  6  1  0  0  0  0
  2  3  1  0  0  0  0
  3  4  1  0  0  0  0
  4  5  1  0  0  0  0
  4  7  1  0  0  0  0
  5  6  1  0  0  0  0
  7  8  1  0  0  0  0
  8  9  1  0  0  0  0
  9 10  1  0  0  0  0
 10 11  1  0  0  0  0
 11 12  4  0  0  0  0
 11 16  4  0  0  0  0
 12 13  4  0  0  0  0
 13 14  4  0  0  0  0
 13 20  1  0  0  0  0
 14 15  4  0  0  0  0
 14 17  1  0  0  0  0
 15 16  4  0  0  0  0
 17 18  1  0  0  0  0
 17 24  1  0  0  0  0
 18 19  1  0  0  0  0
 19 20  1  0  0  0  0
 19 23  1  0  0  0  0
 20 21  1  0  0  0  0
 21 22  1  0  0  0  0
 22 23  1  0  0  0  0
 24 25  4  0  0  0  0
 24 29  4  0  0  0  0
 25 26  4  0  0  0  0
 26 27  4  0  0  0  0
 27 28  4  0  0  0  0
 28 29  4  0  0  0  0
M  END
>  <Name_Molregno>
412303

>  <HISTAMINE H3>
8.8

>  <Serotonin transporter>
7.91

$$$$
412304
  Marvin  02231216192D 0   1.00000     0.00000     0

 29 33  0  0  1  0  0  0  0  0999 V2000
   -0.4759    0.3104    0.0000 O   0  0  0  0  0  0  0  0  0
    0.3487    0.2846    0.0000 C   0  0  0  0  0  0  0  0  0
    0.7833    0.9859    0.0000 C   0  0  0  0  0  0  0  0  0
    1.6079    0.9601    0.0000 C   0  0  0  0  0  0  0  0  0
    2.0425    1.6614    0.0000 N   0  0  0  0  0  0  0  0  0
    1.6525    2.3884    0.0000 C   0  0  0  0  0  0  0  0  0
    2.0871    3.0896    0.0000 C   0  0  0  0  0  0  0  0  0
    2.9117    3.0639    0.0000 C   0  0  0  0  0  0  0  0  0
    3.3017    2.3368    0.0000 C   0  0  0  0  0  0  0  0  0
    2.8671    1.6356    0.0000 C   0  0  0  0  0  0  0  0  0
   -0.9105   -0.3908    0.0000 C   0  0  0  0  0  0  0  0  0
   -1.7351   -0.3651    0.0000 C   0  0  0  0  0  0  0  0  0
   -2.1697   -1.0663    0.0000 C   0  0  0  0  0  0  0  0  0
   -1.7798   -1.7933    0.0000 C   0  0  0  0  0  0  0  0  0
   -0.9552   -1.8191    0.0000 C   0  0  0  0  0  0  0  0  0
   -0.5205   -1.1178    0.0000 C   0  0  0  0  0  0  0  0  0
   -2.2144   -2.4946    0.0000 C   0  0  0  0  0  0  0  0  0
   -3.0390   -2.4688    0.0000 C   0  0  0  0  0  0  0  0  0
   -3.4290   -1.7418    0.0000 N   0  0  0  0  0  0  0  0  0
   -2.9943   -1.0405    0.0000 C   0  0  0  0  0  0  0  0  0
   -3.5270   -0.4105    0.0000 C   0  0  0  0  0  0  0  0  0
   -4.2907   -0.7224    0.0000 C   0  0  0  0  0  0  0  0  0
   -4.2302   -1.5451    0.0000 C   0  0  0  0  0  0  0  0  0
   -1.8244   -3.2216    0.0000 C   0  0  0  0  0  0  0  0  0
   -0.9998   -3.2473    0.0000 N   0  0  0  0  0  0  0  0  0
   -0.6098   -3.9743    0.0000 C   0  0  0  0  0  0  0  0  0
   -1.0444   -4.6756    0.0000 C   0  0  0  0  0  0  0  0  0
   -1.8690   -4.6498    0.0000 C   0  0  0  0  0  0  0  0  0
   -2.2590   -3.9228    0.0000 C   0  0  0  0  0  0  0  0  0
  1  2  1  0  0  0  0
  1 11  1  0  0  0  0
  2  3  1  0  0  0  0
  3  4  1  0  0  0  0
  4  5  1  0  0  0  0
  5  6  1  0  0  0  0
  5 10  1  0  0  0  0
  6  7  1  0  0  0  0
  7  8  1  0  0  0  0
  8  9  1  0  0  0  0
  9 10  1  0  0  0  0
 11 12  4  0  0  0  0
 11 16  4  0  0  0  0
 12 13  4  0  0  0  0
 13 14  4  0  0  0  0
 13 20  1  0  0  0  0
 14 15  4  0  0  0  0
 14 17  1  0  0  0  0
 15 16  4  0  0  0  0
 17 18  1  0  0  0  0
 17 24  1  0  0  0  0
 18 19  1  0  0  0  0
 19 20  1  0  0  0  0
 19 23  1  0  0  0  0
 20 21  1  0  0  0  0
 21 22  1  0  0  0  0
 22 23  1  0  0  0  0
 24 25  4  0  0  0  0
 24 29  4  0  0  0  0
 25 26  4  0  0  0  0
 26 27  4  0  0  0  0
 27 28  4  0  0  0  0
 28 29  4  0  0  0  0
M  END
>  <Name_Molregno>
412304

>  <HISTAMINE H3>
9.1

>  <Serotonin transporter>
7.73

$$$$
412306
  Marvin  02231216192D 0   1.00000     0.00000     0

 29 33  0  0  1  0  0  0  0  0999 V2000
   -1.4133    2.8167    0.0000 O   0  0  0  0  0  0  0  0  0
   -1.0233    2.0897    0.0000 C   0  0  0  0  0  0  0  0  0
   -1.4579    1.3884    0.0000 C   0  0  0  0  0  0  0  0  0
   -2.2825    1.4142    0.0000 N   0  0  0  0  0  0  0  0  0
   -2.6725    2.1412    0.0000 C   0  0  0  0  0  0  0  0  0
   -2.2379    2.8424    0.0000 C   0  0  0  0  0  0  0  0  0
   -2.7171    0.7130    0.0000 C   0  0  0  0  0  0  0  0  0
   -3.5417    0.7387    0.0000 C   0  0  0  0  0  0  0  0  0
   -3.9763    0.0375    0.0000 C   0  0  0  0  0  0  0  0  0
   -4.8009    0.0632    0.0000 O   0  0  0  0  0  0  0  0  0
   -5.2355   -0.6380    0.0000 C   0  0  0  0  0  0  0  0  0
   -6.0601   -0.6122    0.0000 C   0  0  0  0  0  0  0  0  0
   -6.4947   -1.3135    0.0000 C   0  0  0  0  0  0  0  0  0
   -6.1047   -2.0405    0.0000 C   0  0  0  0  0  0  0  0  0
   -5.2801   -2.0662    0.0000 C   0  0  0  0  0  0  0  0  0
   -4.8455   -1.3650    0.0000 C   0  0  0  0  0  0  0  0  0
   -6.5393   -2.7417    0.0000 C   0  0  0  0  0  0  0  0  0
   -7.3639   -2.7160    0.0000 C   0  0  0  0  0  0  0  0  0
   -7.7539   -1.9890    0.0000 N   0  0  0  0  0  0  0  0  0
   -7.3193   -1.2877    0.0000 C   0  0  0  0  0  0  0  0  0
   -7.8519   -0.6577    0.0000 C   0  0  0  0  0  0  0  0  0
   -8.6157   -0.9695    0.0000 C   0  0  0  0  0  0  0  0  0
   -8.5551   -1.7923    0.0000 C   0  0  0  0  0  0  0  0  0
   -6.1493   -3.4687    0.0000 C   0  0  0  0  0  0  0  0  0
   -5.3247   -3.4945    0.0000 N   0  0  0  0  0  0  0  0  0
   -4.9348   -4.2215    0.0000 C   0  0  0  0  0  0  0  0  0
   -5.3694   -4.9227    0.0000 C   0  0  0  0  0  0  0  0  0
   -6.1940   -4.8970    0.0000 C   0  0  0  0  0  0  0  0  0
   -6.5840   -4.1700    0.0000 C   0  0  0  0  0  0  0  0  0
  1  2  1  0  0  0  0
  1  6  1  0  0  0  0
  2  3  1  0  0  0  0
  3  4  1  0  0  0  0
  4  5  1  0  0  0  0
  4  7  1  0  0  0  0
  5  6  1  0  0  0  0
  7  8  1  0  0  0  0
  8  9  1  0  0  0  0
  9 10  1  0  0  0  0
 10 11  1  0  0  0  0
 11 12  4  0  0  0  0
 11 16  4  0  0  0  0
 12 13  4  0  0  0  0
 13 14  4  0  0  0  0
 13 20  1  0  0  0  0
 14 15  4  0  0  0  0
 14 17  1  0  0  0  0
 15 16  4  0  0  0  0
 17 18  1  0  0  0  0
 17 24  1  0  0  0  0
 18 19  1  0  0  0  0
 19 20  1  0  0  0  0
 19 23  1  0  0  0  0
 20 21  1  0  0  0  0
 21 22  1  0  0  0  0
 22 23  1  0  0  0  0
 24 25  4  0  0  0  0
 24 29  4  0  0  0  0
 25 26  4  0  0  0  0
 26 27  4  0  0  0  0
 27 28  4  0  0  0  0
 28 29  4  0  0  0  0
M  END
>  <Name_Molregno>
412306

>  <HISTAMINE H3>
8.57

>  <Serotonin transporter>
7.5

$$$$
412308
  Marvin  02231216192D 0   1.00000     0.00000     0

 29 33  0  0  1  0  0  0  0  0999 V2000
   -1.4133    2.8167    0.0000 O   0  0  0  0  0  0  0  0  0
   -1.0233    2.0897    0.0000 C   0  0  0  0  0  0  0  0  0
   -1.4579    1.3884    0.0000 C   0  0  0  0  0  0  0  0  0
   -2.2825    1.4142    0.0000 N   0  0  0  0  0  0  0  0  0
   -2.6725    2.1412    0.0000 C   0  0  0  0  0  0  0  0  0
   -2.2379    2.8424    0.0000 C   0  0  0  0  0  0  0  0  0
   -2.7171    0.7130    0.0000 C   0  0  0  0  0  0  0  0  0
   -3.5417    0.7387    0.0000 C   0  0  0  0  0  0  0  0  0
   -3.9763    0.0375    0.0000 C   0  0  0  0  0  0  0  0  0
   -4.8009    0.0632    0.0000 O   0  0  0  0  0  0  0  0  0
   -5.2355   -0.6380    0.0000 C   0  0  0  0  0  0  0  0  0
   -6.0601   -0.6122    0.0000 C   0  0  0  0  0  0  0  0  0
   -6.4947   -1.3135    0.0000 C   0  0  0  0  0  0  0  0  0
   -6.1047   -2.0405    0.0000 C   0  0  0  0  0  0  0  0  0
   -5.2801   -2.0662    0.0000 C   0  0  0  0  0  0  0  0  0
   -4.8455   -1.3650    0.0000 C   0  0  0  0  0  0  0  0  0
   -6.5393   -2.7417    0.0000 C   0  0  0  0  0  0  0  0  0
   -7.3639   -2.7160    0.0000 C   0  0  0  0  0  0  0  0  0
   -7.7539   -1.9890    0.0000 N   0  0  0  0  0  0  0  0  0
   -7.3193   -1.2877    0.0000 C   0  0  0  0  0  0  0  0  0
   -7.8519   -0.6577    0.0000 C   0  0  0  0  0  0  0  0  0
   -8.6157   -0.9695    0.0000 C   0  0  0  0  0  0  0  0  0
   -8.5551   -1.7923    0.0000 C   0  0  0  0  0  0  0  0  0
   -6.1493   -3.4687    0.0000 C   0  0  0  0  0  0  0  0  0
   -5.3247   -3.4945    0.0000 N   0  0  0  0  0  0  0  0  0
   -4.9348   -4.2215    0.0000 C   0  0  0  0  0  0  0  0  0
   -5.3694   -4.9227    0.0000 C   0  0  0  0  0  0  0  0  0
   -6.1940   -4.8970    0.0000 N   0  0  0  0  0  0  0  0  0
   -6.5840   -4.1700    0.0000 C   0  0  0  0  0  0  0  0  0
  1  2  1  0  0  0  0
  1  6  1  0  0  0  0
  2  3  1  0  0  0  0
  3  4  1  0  0  0  0
  4  5  1  0  0  0  0
  4  7  1  0  0  0  0
  5  6  1  0  0  0  0
  7  8  1  0  0  0  0
  8  9  1  0  0  0  0
  9 10  1  0  0  0  0
 10 11  1  0  0  0  0
 11 12  4  0  0  0  0
 11 16  4  0  0  0  0
 12 13  4  0  0  0  0
 13 14  4  0  0  0  0
 13 20  1  0  0  0  0
 14 15  4  0  0  0  0
 14 17  1  0  0  0  0
 15 16  4  0  0  0  0
 17 18  1  0  0  0  0
 17 24  1  0  0  0  0
 18 19  1  0  0  0  0
 19 20  1  0  0  0  0
 19 23  1  0  0  0  0
 20 21  1  0  0  0  0
 21 22  1  0  0  0  0
 22 23  1  0  0  0  0
 24 25  4  0  0  0  0
 24 29  4  0  0  0  0
 25 26  4  0  0  0  0
 26 27  4  0  0  0  0
 27 28  4  0  0  0  0
 28 29  4  0  0  0  0
M  END
>  <Name_Molregno>
412308

>  <HISTAMINE H3>
8.4

>  <Serotonin transporter>
7.06

$$$$
412311
  Marvin  02231216192D 0   1.00000     0.00000     0

 28 32  0  0  1  0  0  0  0  0999 V2000
   -0.9178   -5.2369    0.0000 S   0  0  0  0  0  0  0  0  0
   -0.7716   -6.0489    0.0000 C   0  0  0  0  0  0  0  0  0
   -1.4986   -6.4389    0.0000 C   0  0  0  0  0  0  0  0  0
   -2.0941   -5.8680    0.0000 C   0  0  0  0  0  0  0  0  0
   -1.7352   -5.1251    0.0000 C   0  0  0  0  0  0  0  0  0
   -2.1252   -4.3981    0.0000 C   0  0  0  0  0  0  0  0  0
   -1.6906   -3.6969    0.0000 C   0  0  0  0  0  0  0  0  0
   -2.0806   -2.9699    0.0000 C   0  0  0  0  0  0  0  0  0
   -1.6459   -2.2686    0.0000 C   0  0  0  0  0  0  0  0  0
   -0.8213   -2.2944    0.0000 C   0  0  0  0  0  0  0  0  0
   -0.3867   -1.5932    0.0000 O   0  0  0  0  0  0  0  0  0
   -0.7767   -0.8662    0.0000 C   0  0  0  0  0  0  0  0  0
   -0.3421   -0.1649    0.0000 C   0  0  0  0  0  0  0  0  0
   -0.7321    0.5621    0.0000 C   0  0  0  0  0  0  0  0  0
   -0.2975    1.2633    0.0000 N   0  0  0  0  0  0  0  0  0
   -0.6875    1.9903    0.0000 C   0  0  0  0  0  0  0  0  0
   -0.2529    2.6916    0.0000 C   0  0  0  0  0  0  0  0  0
    0.5717    2.6658    0.0000 C   0  0  0  0  0  0  0  0  0
    0.9617    1.9388    0.0000 C   0  0  0  0  0  0  0  0  0
    0.5271    1.2376    0.0000 C   0  0  0  0  0  0  0  0  0
   -0.4314   -3.0214    0.0000 C   0  0  0  0  0  0  0  0  0
   -0.8660   -3.7227    0.0000 C   0  0  0  0  0  0  0  0  0
   -2.9051   -2.9441    0.0000 C   0  0  0  0  0  0  0  0  0
   -3.3398   -3.6454    0.0000 N   0  0  0  0  0  0  0  0  0
   -2.9498   -4.3724    0.0000 C   0  0  0  0  0  0  0  0  0
   -4.1410   -3.4487    0.0000 C   0  0  0  0  0  0  0  0  0
   -4.2016   -2.6259    0.0000 C   0  0  0  0  0  0  0  0  0
   -3.4378   -2.3141    0.0000 C   0  0  0  0  0  0  0  0  0
  1  2  4  0  0  0  0
  1  5  4  0  0  0  0
  2  3  4  0  0  0  0
  3  4  4  0  0  0  0
  4  5  4  0  0  0  0
  5  6  1  0  0  0  0
  6  7  1  0  0  0  0
  6 25  1  0  0  0  0
  7  8  4  0  0  0  0
  7 22  4  0  0  0  0
  8  9  4  0  0  0  0
  8 23  1  0  0  0  0
  9 10  4  0  0  0  0
 10 11  1  0  0  0  0
 10 21  4  0  0  0  0
 11 12  1  0  0  0  0
 12 13  1  0  0  0  0
 13 14  1  0  0  0  0
 14 15  1  0  0  0  0
 15 16  1  0  0  0  0
 15 20  1  0  0  0  0
 16 17  1  0  0  0  0
 17 18  1  0  0  0  0
 18 19  1  0  0  0  0
 19 20  1  0  0  0  0
 21 22  4  0  0  0  0
 23 24  1  0  0  0  0
 23 28  1  0  0  0  0
 24 25  1  0  0  0  0
 24 26  1  0  0  0  0
 26 27  1  0  0  0  0
 27 28  1  0  0  0  0
M  END
>  <Name_Molregno>
412311

>  <HISTAMINE H3>
9

>  <Serotonin transporter>
8.57

$$$$
412313
  Marvin  02231216192D 0   1.00000     0.00000     0

 28 32  0  0  1  0  0  0  0  0999 V2000
   -0.9178   -5.2369    0.0000 S   0  0  0  0  0  0  0  0  0
   -0.7716   -6.0489    0.0000 C   0  0  0  0  0  0  0  0  0
   -1.4986   -6.4389    0.0000 C   0  0  0  0  0  0  0  0  0
   -2.0941   -5.8680    0.0000 C   0  0  0  0  0  0  0  0  0
   -1.7352   -5.1251    0.0000 C   0  0  0  0  0  0  0  0  0
   -2.1252   -4.3981    0.0000 C   0  0  0  0  0  0  0  0  0
   -1.6906   -3.6969    0.0000 C   0  0  0  0  0  0  0  0  0
   -2.0806   -2.9699    0.0000 C   0  0  0  0  0  0  0  0  0
   -1.6459   -2.2686    0.0000 C   0  0  0  0  0  0  0  0  0
   -0.8213   -2.2944    0.0000 C   0  0  0  0  0  0  0  0  0
   -0.3867   -1.5932    0.0000 O   0  0  0  0  0  0  0  0  0
   -0.7767   -0.8662    0.0000 C   0  0  0  0  0  0  0  0  0
   -0.3421   -0.1649    0.0000 C   0  0  0  0  0  0  0  0  0
   -0.7321    0.5621    0.0000 C   0  0  0  0  0  0  0  0  0
   -0.2975    1.2633    0.0000 N   0  0  0  0  0  0  0  0  0
   -0.6875    1.9903    0.0000 C   0  0  0  0  0  0  0  0  0
   -0.2529    2.6916    0.0000 C   0  0  0  0  0  0  0  0  0
    0.5717    2.6658    0.0000 O   0  0  0  0  0  0  0  0  0
    0.9617    1.9388    0.0000 C   0  0  0  0  0  0  0  0  0
    0.5271    1.2376    0.0000 C   0  0  0  0  0  0  0  0  0
   -0.4314   -3.0214    0.0000 C   0  0  0  0  0  0  0  0  0
   -0.8660   -3.7227    0.0000 C   0  0  0  0  0  0  0  0  0
   -2.9051   -2.9441    0.0000 C   0  0  0  0  0  0  0  0  0
   -3.3398   -3.6454    0.0000 N   0  0  0  0  0  0  0  0  0
   -2.9498   -4.3724    0.0000 C   0  0  0  0  0  0  0  0  0
   -4.1410   -3.4487    0.0000 C   0  0  0  0  0  0  0  0  0
   -4.2016   -2.6259    0.0000 C   0  0  0  0  0  0  0  0  0
   -3.4378   -2.3141    0.0000 C   0  0  0  0  0  0  0  0  0
  1  2  4  0  0  0  0
  1  5  4  0  0  0  0
  2  3  4  0  0  0  0
  3  4  4  0  0  0  0
  4  5  4  0  0  0  0
  5  6  1  0  0  0  0
  6  7  1  0  0  0  0
  6 25  1  0  0  0  0
  7  8  4  0  0  0  0
  7 22  4  0  0  0  0
  8  9  4  0  0  0  0
  8 23  1  0  0  0  0
  9 10  4  0  0  0  0
 10 11  1  0  0  0  0
 10 21  4  0  0  0  0
 11 12  1  0  0  0  0
 12 13  1  0  0  0  0
 13 14  1  0  0  0  0
 14 15  1  0  0  0  0
 15 16  1  0  0  0  0
 15 20  1  0  0  0  0
 16 17  1  0  0  0  0
 17 18  1  0  0  0  0
 18 19  1  0  0  0  0
 19 20  1  0  0  0  0
 21 22  4  0  0  0  0
 23 24  1  0  0  0  0
 23 28  1  0  0  0  0
 24 25  1  0  0  0  0
 24 26  1  0  0  0  0
 26 27  1  0  0  0  0
 27 28  1  0  0  0  0
M  END
>  <Name_Molregno>
412313

>  <HISTAMINE H3>
8.52

>  <Serotonin transporter>
8.22

$$$$
412316
  Marvin  02231216192D 0   1.00000     0.00000     0

 28 32  0  0  1  0  0  0  0  0999 V2000
   -2.9612   -6.0400    0.0000 S   0  0  0  0  0  0  0  0  0
   -3.5567   -5.4691    0.0000 C   0  0  0  0  0  0  0  0  0
   -3.1978   -4.7263    0.0000 C   0  0  0  0  0  0  0  0  0
   -2.3804   -4.8381    0.0000 C   0  0  0  0  0  0  0  0  0
   -2.2342   -5.6500    0.0000 C   0  0  0  0  0  0  0  0  0
   -3.5878   -3.9993    0.0000 C   0  0  0  0  0  0  0  0  0
   -3.1532   -3.2980    0.0000 C   0  0  0  0  0  0  0  0  0
   -3.5431   -2.5710    0.0000 C   0  0  0  0  0  0  0  0  0
   -3.1085   -1.8698    0.0000 C   0  0  0  0  0  0  0  0  0
   -2.2839   -1.8955    0.0000 C   0  0  0  0  0  0  0  0  0
   -1.8493   -1.1943    0.0000 O   0  0  0  0  0  0  0  0  0
   -2.2393   -0.4673    0.0000 C   0  0  0  0  0  0  0  0  0
   -1.8047    0.2339    0.0000 C   0  0  0  0  0  0  0  0  0
   -2.1947    0.9609    0.0000 C   0  0  0  0  0  0  0  0  0
   -1.7601    1.6622    0.0000 N   0  0  0  0  0  0  0  0  0
   -2.1501    2.3892    0.0000 C   0  0  0  0  0  0  0  0  0
   -1.7155    3.0904    0.0000 C   0  0  0  0  0  0  0  0  0
   -0.8909    3.0647    0.0000 C   0  0  0  0  0  0  0  0  0
   -0.5009    2.3377    0.0000 C   0  0  0  0  0  0  0  0  0
   -0.9355    1.6364    0.0000 C   0  0  0  0  0  0  0  0  0
   -1.8940   -2.6226    0.0000 C   0  0  0  0  0  0  0  0  0
   -2.3286   -3.3238    0.0000 C   0  0  0  0  0  0  0  0  0
   -4.3677   -2.5453    0.0000 C   0  0  0  0  0  0  0  0  0
   -4.8024   -3.2465    0.0000 N   0  0  0  0  0  0  0  0  0
   -4.4124   -3.9735    0.0000 C   0  0  0  0  0  0  0  0  0
   -5.6036   -3.0499    0.0000 C   0  0  0  0  0  0  0  0  0
   -5.6641   -2.2271    0.0000 C   0  0  0  0  0  0  0  0  0
   -4.9004   -1.9152    0.0000 C   0  0  0  0  0  0  0  0  0
  1  2  4  0  0  0  0
  1  5  4  0  0  0  0
  2  3  4  0  0  0  0
  3  4  4  0  0  0  0
  3  6  1  0  0  0  0
  4  5  4  0  0  0  0
  6  7  1  0  0  0  0
  6 25  1  0  0  0  0
  7  8  4  0  0  0  0
  7 22  4  0  0  0  0
  8  9  4  0  0  0  0
  8 23  1  0  0  0  0
  9 10  4  0  0  0  0
 10 11  1  0  0  0  0
 10 21  4  0  0  0  0
 11 12  1  0  0  0  0
 12 13  1  0  0  0  0
 13 14  1  0  0  0  0
 14 15  1  0  0  0  0
 15 16  1  0  0  0  0
 15 20  1  0  0  0  0
 16 17  1  0  0  0  0
 17 18  1  0  0  0  0
 18 19  1  0  0  0  0
 19 20  1  0  0  0  0
 21 22  4  0  0  0  0
 23 24  1  0  0  0  0
 23 28  1  0  0  0  0
 24 25  1  0  0  0  0
 24 26  1  0  0  0  0
 26 27  1  0  0  0  0
 27 28  1  0  0  0  0
M  END
>  <Name_Molregno>
412316

>  <HISTAMINE H3>
9.15

>  <Serotonin transporter>
8.89

$$$$
412319
  Marvin  02231216192D 0   1.00000     0.00000     0

 28 32  0  0  1  0  0  0  0  0999 V2000
   -2.9612   -6.0400    0.0000 S   0  0  0  0  0  0  0  0  0
   -3.5567   -5.4691    0.0000 C   0  0  0  0  0  0  0  0  0
   -3.1978   -4.7263    0.0000 C   0  0  0  0  0  0  0  0  0
   -2.3804   -4.8381    0.0000 C   0  0  0  0  0  0  0  0  0
   -2.2342   -5.6500    0.0000 C   0  0  0  0  0  0  0  0  0
   -3.5878   -3.9993    0.0000 C   0  0  0  0  0  0  0  0  0
   -3.1532   -3.2980    0.0000 C   0  0  0  0  0  0  0  0  0
   -3.5431   -2.5710    0.0000 C   0  0  0  0  0  0  0  0  0
   -3.1085   -1.8698    0.0000 C   0  0  0  0  0  0  0  0  0
   -2.2839   -1.8955    0.0000 C   0  0  0  0  0  0  0  0  0
   -1.8493   -1.1943    0.0000 O   0  0  0  0  0  0  0  0  0
   -2.2393   -0.4673    0.0000 C   0  0  0  0  0  0  0  0  0
   -1.8047    0.2339    0.0000 C   0  0  0  0  0  0  0  0  0
   -2.1947    0.9609    0.0000 C   0  0  0  0  0  0  0  0  0
   -1.7601    1.6622    0.0000 N   0  0  0  0  0  0  0  0  0
   -2.1501    2.3892    0.0000 C   0  0  0  0  0  0  0  0  0
   -1.7155    3.0904    0.0000 C   0  0  0  0  0  0  0  0  0
   -0.8909    3.0647    0.0000 O   0  0  0  0  0  0  0  0  0
   -0.5009    2.3377    0.0000 C   0  0  0  0  0  0  0  0  0
   -0.9355    1.6364    0.0000 C   0  0  0  0  0  0  0  0  0
   -1.8940   -2.6226    0.0000 C   0  0  0  0  0  0  0  0  0
   -2.3286   -3.3238    0.0000 C   0  0  0  0  0  0  0  0  0
   -4.3677   -2.5453    0.0000 C   0  0  0  0  0  0  0  0  0
   -4.8024   -3.2465    0.0000 N   0  0  0  0  0  0  0  0  0
   -4.4124   -3.9735    0.0000 C   0  0  0  0  0  0  0  0  0
   -5.6036   -3.0499    0.0000 C   0  0  0  0  0  0  0  0  0
   -5.6641   -2.2271    0.0000 C   0  0  0  0  0  0  0  0  0
   -4.9004   -1.9152    0.0000 C   0  0  0  0  0  0  0  0  0
  1  2  4  0  0  0  0
  1  5  4  0  0  0  0
  2  3  4  0  0  0  0
  3  4  4  0  0  0  0
  3  6  1  0  0  0  0
  4  5  4  0  0  0  0
  6  7  1  0  0  0  0
  6 25  1  0  0  0  0
  7  8  4  0  0  0  0
  7 22  4  0  0  0  0
  8  9  4  0  0  0  0
  8 23  1  0  0  0  0
  9 10  4  0  0  0  0
 10 11  1  0  0  0  0
 10 21  4  0  0  0  0
 11 12  1  0  0  0  0
 12 13  1  0  0  0  0
 13 14  1  0  0  0  0
 14 15  1  0  0  0  0
 15 16  1  0  0  0  0
 15 20  1  0  0  0  0
 16 17  1  0  0  0  0
 17 18  1  0  0  0  0
 18 19  1  0  0  0  0
 19 20  1  0  0  0  0
 21 22  4  0  0  0  0
 23 24  1  0  0  0  0
 23 28  1  0  0  0  0
 24 25  1  0  0  0  0
 24 26  1  0  0  0  0
 26 27  1  0  0  0  0
 27 28  1  0  0  0  0
M  END
>  <Name_Molregno>
412319

>  <HISTAMINE H3>
8.52

>  <Serotonin transporter>
8.3

$$$$
412320
  Marvin  02231216192D 0   1.00000     0.00000     0

 28 32  0  0  1  0  0  0  0  0999 V2000
   -0.9178   -5.2369    0.0000 S   0  0  0  0  0  0  0  0  0
   -0.7716   -6.0489    0.0000 C   0  0  0  0  0  0  0  0  0
   -1.4986   -6.4389    0.0000 N   0  0  0  0  0  0  0  0  0
   -2.0941   -5.8680    0.0000 C   0  0  0  0  0  0  0  0  0
   -1.7352   -5.1251    0.0000 C   0  0  0  0  0  0  0  0  0
   -2.1252   -4.3981    0.0000 C   0  0  0  0  0  0  0  0  0
   -1.6906   -3.6969    0.0000 C   0  0  0  0  0  0  0  0  0
   -2.0806   -2.9699    0.0000 C   0  0  0  0  0  0  0  0  0
   -1.6459   -2.2686    0.0000 C   0  0  0  0  0  0  0  0  0
   -0.8213   -2.2944    0.0000 C   0  0  0  0  0  0  0  0  0
   -0.3867   -1.5932    0.0000 O   0  0  0  0  0  0  0  0  0
   -0.7767   -0.8662    0.0000 C   0  0  0  0  0  0  0  0  0
   -0.3421   -0.1649    0.0000 C   0  0  0  0  0  0  0  0  0
   -0.7321    0.5621    0.0000 C   0  0  0  0  0  0  0  0  0
   -0.2975    1.2633    0.0000 N   0  0  0  0  0  0  0  0  0
   -0.6875    1.9903    0.0000 C   0  0  0  0  0  0  0  0  0
   -0.2529    2.6916    0.0000 C   0  0  0  0  0  0  0  0  0
    0.5717    2.6658    0.0000 O   0  0  0  0  0  0  0  0  0
    0.9617    1.9388    0.0000 C   0  0  0  0  0  0  0  0  0
    0.5271    1.2376    0.0000 C   0  0  0  0  0  0  0  0  0
   -0.4314   -3.0214    0.0000 C   0  0  0  0  0  0  0  0  0
   -0.8660   -3.7227    0.0000 C   0  0  0  0  0  0  0  0  0
   -2.9051   -2.9441    0.0000 C   0  0  0  0  0  0  0  0  0
   -3.3398   -3.6454    0.0000 N   0  0  0  0  0  0  0  0  0
   -2.9498   -4.3724    0.0000 C   0  0  0  0  0  0  0  0  0
   -4.1410   -3.4487    0.0000 C   0  0  0  0  0  0  0  0  0
   -4.2016   -2.6259    0.0000 C   0  0  0  0  0  0  0  0  0
   -3.4378   -2.3141    0.0000 C   0  0  0  0  0  0  0  0  0
  1  2  4  0  0  0  0
  1  5  4  0  0  0  0
  2  3  4  0  0  0  0
  3  4  4  0  0  0  0
  4  5  4  0  0  0  0
  5  6  1  0  0  0  0
  6  7  1  0  0  0  0
  6 25  1  0  0  0  0
  7  8  4  0  0  0  0
  7 22  4  0  0  0  0
  8  9  4  0  0  0  0
  8 23  1  0  0  0  0
  9 10  4  0  0  0  0
 10 11  1  0  0  0  0
 10 21  4  0  0  0  0
 11 12  1  0  0  0  0
 12 13  1  0  0  0  0
 13 14  1  0  0  0  0
 14 15  1  0  0  0  0
 15 16  1  0  0  0  0
 15 20  1  0  0  0  0
 16 17  1  0  0  0  0
 17 18  1  0  0  0  0
 18 19  1  0  0  0  0
 19 20  1  0  0  0  0
 21 22  4  0  0  0  0
 23 24  1  0  0  0  0
 23 28  1  0  0  0  0
 24 25  1  0  0  0  0
 24 26  1  0  0  0  0
 26 27  1  0  0  0  0
 27 28  1  0  0  0  0
M  END
>  <Name_Molregno>
412320

>  <HISTAMINE H3>
8.43

>  <Serotonin transporter>
7.71

$$$$
412321
  Marvin  02231216192D 0   1.00000     0.00000     0

 28 32  0  0  1  0  0  0  0  0999 V2000
   -0.9178   -5.2369    0.0000 S   0  0  0  0  0  0  0  0  0
   -0.7716   -6.0489    0.0000 C   0  0  0  0  0  0  0  0  0
   -1.4986   -6.4389    0.0000 C   0  0  0  0  0  0  0  0  0
   -2.0941   -5.8680    0.0000 N   0  0  0  0  0  0  0  0  0
   -1.7352   -5.1251    0.0000 C   0  0  0  0  0  0  0  0  0
   -2.1252   -4.3981    0.0000 C   0  0  0  0  0  0  0  0  0
   -1.6906   -3.6969    0.0000 C   0  0  0  0  0  0  0  0  0
   -2.0806   -2.9699    0.0000 C   0  0  0  0  0  0  0  0  0
   -1.6459   -2.2686    0.0000 C   0  0  0  0  0  0  0  0  0
   -0.8213   -2.2944    0.0000 C   0  0  0  0  0  0  0  0  0
   -0.3867   -1.5932    0.0000 O   0  0  0  0  0  0  0  0  0
   -0.7767   -0.8662    0.0000 C   0  0  0  0  0  0  0  0  0
   -0.3421   -0.1649    0.0000 C   0  0  0  0  0  0  0  0  0
   -0.7321    0.5621    0.0000 C   0  0  0  0  0  0  0  0  0
   -0.2975    1.2633    0.0000 N   0  0  0  0  0  0  0  0  0
   -0.6875    1.9903    0.0000 C   0  0  0  0  0  0  0  0  0
   -0.2529    2.6916    0.0000 C   0  0  0  0  0  0  0  0  0
    0.5717    2.6658    0.0000 O   0  0  0  0  0  0  0  0  0
    0.9617    1.9388    0.0000 C   0  0  0  0  0  0  0  0  0
    0.5271    1.2376    0.0000 C   0  0  0  0  0  0  0  0  0
   -0.4314   -3.0214    0.0000 C   0  0  0  0  0  0  0  0  0
   -0.8660   -3.7227    0.0000 C   0  0  0  0  0  0  0  0  0
   -2.9051   -2.9441    0.0000 C   0  0  0  0  0  0  0  0  0
   -3.3398   -3.6454    0.0000 N   0  0  0  0  0  0  0  0  0
   -2.9498   -4.3724    0.0000 C   0  0  0  0  0  0  0  0  0
   -4.1410   -3.4487    0.0000 C   0  0  0  0  0  0  0  0  0
   -4.2016   -2.6259    0.0000 C   0  0  0  0  0  0  0  0  0
   -3.4378   -2.3141    0.0000 C   0  0  0  0  0  0  0  0  0
  1  2  4  0  0  0  0
  1  5  4  0  0  0  0
  2  3  4  0  0  0  0
  3  4  4  0  0  0  0
  4  5  4  0  0  0  0
  5  6  1  0  0  0  0
  6  7  1  0  0  0  0
  6 25  1  0  0  0  0
  7  8  4  0  0  0  0
  7 22  4  0  0  0  0
  8  9  4  0  0  0  0
  8 23  1  0  0  0  0
  9 10  4  0  0  0  0
 10 11  1  0  0  0  0
 10 21  4  0  0  0  0
 11 12  1  0  0  0  0
 12 13  1  0  0  0  0
 13 14  1  0  0  0  0
 14 15  1  0  0  0  0
 15 16  1  0  0  0  0
 15 20  1  0  0  0  0
 16 17  1  0  0  0  0
 17 18  1  0  0  0  0
 18 19  1  0  0  0  0
 19 20  1  0  0  0  0
 21 22  4  0  0  0  0
 23 24  1  0  0  0  0
 23 28  1  0  0  0  0
 24 25  1  0  0  0  0
 24 26  1  0  0  0  0
 26 27  1  0  0  0  0
 27 28  1  0  0  0  0
M  END
>  <Name_Molregno>
412321

>  <HISTAMINE H3>
8.48

>  <Serotonin transporter>
6.54

$$$$
412324
  Marvin  02231216192D 0   1.00000     0.00000     0

 28 32  0  0  1  0  0  0  0  0999 V2000
   -1.3123    4.8826    0.0000 O   0  0  0  0  0  0  0  0  0
   -0.9223    4.1556    0.0000 C   0  0  0  0  0  0  0  0  0
   -1.3569    3.4543    0.0000 C   0  0  0  0  0  0  0  0  0
   -2.1815    3.4801    0.0000 N   0  0  0  0  0  0  0  0  0
   -2.5715    4.2071    0.0000 C   0  0  0  0  0  0  0  0  0
   -2.1369    4.9083    0.0000 C   0  0  0  0  0  0  0  0  0
   -2.6161    2.7789    0.0000 C   0  0  0  0  0  0  0  0  0
   -3.4407    2.8046    0.0000 C   0  0  0  0  0  0  0  0  0
   -3.8753    2.1034    0.0000 C   0  0  0  0  0  0  0  0  0
   -4.6999    2.1291    0.0000 O   0  0  0  0  0  0  0  0  0
   -5.1345    1.4279    0.0000 C   0  0  0  0  0  0  0  0  0
   -5.9591    1.4537    0.0000 C   0  0  0  0  0  0  0  0  0
   -6.3937    0.7524    0.0000 C   0  0  0  0  0  0  0  0  0
   -6.0037    0.0254    0.0000 C   0  0  0  0  0  0  0  0  0
   -5.1791   -0.0003    0.0000 C   0  0  0  0  0  0  0  0  0
   -4.7445    0.7009    0.0000 C   0  0  0  0  0  0  0  0  0
   -6.4384   -0.6758    0.0000 C   0  0  0  0  0  0  0  0  0
   -7.2630   -0.6501    0.0000 C   0  0  0  0  0  0  0  0  0
   -7.6529    0.0769    0.0000 N   0  0  0  0  0  0  0  0  0
   -7.2183    0.7782    0.0000 C   0  0  0  0  0  0  0  0  0
   -7.7509    1.4082    0.0000 C   0  0  0  0  0  0  0  0  0
   -8.5147    1.0964    0.0000 C   0  0  0  0  0  0  0  0  0
   -8.4542    0.2736    0.0000 C   0  0  0  0  0  0  0  0  0
   -6.0484   -1.4028    0.0000 C   0  0  0  0  0  0  0  0  0
   -5.2310   -1.5146    0.0000 N   0  0  0  0  0  0  0  0  0
   -5.0847   -2.3266    0.0000 N   0  0  0  0  0  0  0  0  0
   -5.8117   -2.7166    0.0000 C   0  0  0  0  0  0  0  0  0
   -6.4073   -2.1457    0.0000 C   0  0  0  0  0  0  0  0  0
  1  2  1  0  0  0  0
  1  6  1  0  0  0  0
  2  3  1  0  0  0  0
  3  4  1  0  0  0  0
  4  5  1  0  0  0  0
  4  7  1  0  0  0  0
  5  6  1  0  0  0  0
  7  8  1  0  0  0  0
  8  9  1  0  0  0  0
  9 10  1  0  0  0  0
 10 11  1  0  0  0  0
 11 12  4  0  0  0  0
 11 16  4  0  0  0  0
 12 13  4  0  0  0  0
 13 14  4  0  0  0  0
 13 20  1  0  0  0  0
 14 15  4  0  0  0  0
 14 17  1  0  0  0  0
 15 16  4  0  0  0  0
 17 18  1  0  0  0  0
 17 24  1  0  0  0  0
 18 19  1  0  0  0  0
 19 20  1  0  0  0  0
 19 23  1  0  0  0  0
 20 21  1  0  0  0  0
 21 22  1  0  0  0  0
 22 23  1  0  0  0  0
 24 25  4  0  0  0  0
 24 28  4  0  0  0  0
 25 26  4  0  0  0  0
 26 27  4  0  0  0  0
 27 28  4  0  0  0  0
M  STY  1   1 DAT
M  SAL   1  1  25
M  SDT   1 MRV_IMPLICIT_H                                        
M  SDD   1     0.0000    0.0000    DR    ALL  0       0  
M  SED   1 IMPL_H1
M  END
>  <Name_Molregno>
412324

>  <HISTAMINE H3>
8.4

>  <Serotonin transporter>
6.92

$$$$
412325
  Marvin  02231216192D 0   1.00000     0.00000     0

 32 37  0  0  1  0  0  0  0  0999 V2000
  -11.3945    0.9516    0.0000 O   0  0  0  0  0  0  0  0  0
  -11.1396    1.7362    0.0000 C   0  0  0  0  0  0  0  0  0
  -10.3326    1.9077    0.0000 C   0  0  0  0  0  0  0  0  0
   -9.7806    1.2946    0.0000 N   0  0  0  0  0  0  0  0  0
  -10.0355    0.5100    0.0000 C   0  0  0  0  0  0  0  0  0
  -10.8425    0.3385    0.0000 C   0  0  0  0  0  0  0  0  0
   -8.9736    1.4661    0.0000 C   0  0  0  0  0  0  0  0  0
   -8.4216    0.8531    0.0000 C   0  0  0  0  0  0  0  0  0
   -7.6146    1.0246    0.0000 C   0  0  0  0  0  0  0  0  0
   -7.0626    0.4115    0.0000 O   0  0  0  0  0  0  0  0  0
   -6.2556    0.5830    0.0000 C   0  0  0  0  0  0  0  0  0
   -5.7036   -0.0301    0.0000 C   0  0  0  0  0  0  0  0  0
   -4.8966    0.1414    0.0000 C   0  0  0  0  0  0  0  0  0
   -4.6417    0.9261    0.0000 C   0  0  0  0  0  0  0  0  0
   -5.1937    1.5392    0.0000 C   0  0  0  0  0  0  0  0  0
   -6.0007    1.3676    0.0000 C   0  0  0  0  0  0  0  0  0
   -3.8347    1.0976    0.0000 C   0  0  0  0  0  0  0  0  0
   -3.2827    0.4845    0.0000 C   0  0  0  0  0  0  0  0  0
   -3.5376   -0.3001    0.0000 N   0  0  0  0  0  0  0  0  0
   -4.3446   -0.4716    0.0000 C   0  0  0  0  0  0  0  0  0
   -4.4308   -1.2921    0.0000 C   0  0  0  0  0  0  0  0  0
   -3.6771   -1.6277    0.0000 C   0  0  0  0  0  0  0  0  0
   -3.1251   -1.0146    0.0000 C   0  0  0  0  0  0  0  0  0
   -3.5798    1.8822    0.0000 C   0  0  0  0  0  0  0  0  0
   -2.7951    2.1372    0.0000 N   0  0  0  0  0  0  0  0  0
   -2.7951    2.9622    0.0000 C   0  0  0  0  0  0  0  0  0
   -3.5798    3.2171    0.0000 N   0  0  0  0  0  0  0  0  0
   -4.0647    2.5497    0.0000 C   0  0  0  0  0  0  0  0  0
   -2.0807    3.3747    0.0000 C   0  0  0  0  0  0  0  0  0
   -1.3662    2.9622    0.0000 C   0  0  0  0  0  0  0  0  0
   -1.3662    2.1372    0.0000 C   0  0  0  0  0  0  0  0  0
   -2.0807    1.7247    0.0000 C   0  0  0  0  0  0  0  0  0
  1  2  1  0  0  0  0
  1  6  1  0  0  0  0
  2  3  1  0  0  0  0
  3  4  1  0  0  0  0
  4  5  1  0  0  0  0
  4  7  1  0  0  0  0
  5  6  1  0  0  0  0
  7  8  1  0  0  0  0
  8  9  1  0  0  0  0
  9 10  1  0  0  0  0
 10 11  1  0  0  0  0
 11 12  4  0  0  0  0
 11 16  4  0  0  0  0
 12 13  4  0  0  0  0
 13 14  4  0  0  0  0
 13 20  1  0  0  0  0
 14 15  4  0  0  0  0
 14 17  1  0  0  0  0
 15 16  4  0  0  0  0
 17 18  1  0  0  0  0
 17 24  1  0  0  0  0
 18 19  1  0  0  0  0
 19 20  1  0  0  0  0
 19 23  1  0  0  0  0
 20 21  1  0  0  0  0
 21 22  1  0  0  0  0
 22 23  1  0  0  0  0
 24 25  4  0  0  0  0
 24 28  4  0  0  0  0
 25 26  4  0  0  0  0
 25 32  4  0  0  0  0
 26 27  4  0  0  0  0
 26 29  4  0  0  0  0
 27 28  4  0  0  0  0
 29 30  4  0  0  0  0
 30 31  4  0  0  0  0
 31 32  4  0  0  0  0
M  END
>  <Name_Molregno>
412325

>  <HISTAMINE H3>
8.7

>  <Serotonin transporter>
6.92

$$$$
424791
  Marvin  02231216192D 0   1.00000     0.00000     0

 32 34  0  0  0  0  0  0  0  0999 V2000
    0.0852   -0.2520    0.0000 N   0  0  0  0  0  0  0  0  0
   -0.6292    0.1605    0.0000 C   0  0  0  0  0  0  0  0  0
   -1.3437   -0.2520    0.0000 C   0  0  0  0  0  0  0  0  0
   -2.0582    0.1605    0.0000 C   0  0  0  0  0  0  0  0  0
   -2.7727   -0.2520    0.0000 N   0  0  0  0  0  0  0  0  0
   -3.4871    0.1605    0.0000 C   0  0  0  0  0  0  0  0  0
   -2.7727   -1.0770    0.0000 C   0  0  0  0  0  0  0  0  0
    0.7997    0.1605    0.0000 C   0  0  0  0  0  0  0  0  0
    1.5142   -0.2520    0.0000 C   0  0  0  0  0  0  0  0  0
    2.2286    0.1605    0.0000 N   0  0  0  0  0  0  0  0  0
    2.3149    0.9809    0.0000 C   0  0  0  0  0  0  0  0  0
    3.1218    1.1525    0.0000 C   0  0  0  0  0  0  0  0  0
    3.5343    0.4380    0.0000 N   0  0  0  0  0  0  0  0  0
    4.3548    0.3518    0.0000 C   0  0  0  0  0  0  0  0  0
    4.8398    1.0192    0.0000 C   0  0  0  0  0  0  0  0  0
    5.6602    0.9330    0.0000 C   0  0  0  0  0  0  0  0  0
    6.1452    1.6004    0.0000 C   0  0  0  0  0  0  0  0  0
    5.8096    2.3541    0.0000 C   0  0  0  0  0  0  0  0  0
    4.9891    2.4403    0.0000 C   0  0  0  0  0  0  0  0  0
    4.5042    1.7729    0.0000 C   0  0  0  0  0  0  0  0  0
    6.9656    1.5142    0.0000 C   0  0  0  0  0  0  0  0  0
    7.3012    0.7605    0.0000 C   0  0  0  0  0  0  0  0  0
    6.8163    0.0931    0.0000 C   0  0  0  0  0  0  0  0  0
    5.9958    0.1793    0.0000 C   0  0  0  0  0  0  0  0  0
    2.9823   -0.1751    0.0000 C   0  0  0  0  0  0  0  0  0
    3.1538   -0.9821    0.0000 C   0  0  0  0  0  0  0  0  0
    2.5407   -1.5341    0.0000 C   0  0  0  0  0  0  0  0  0
    1.9277   -2.0861    0.0000 N   0  0  0  0  0  0  0  0  0
    3.9385   -1.2370    0.0000 C   0  0  0  0  0  0  0  0  0
    4.7231   -1.4919    0.0000 N   0  0  0  0  0  0  0  0  0
    0.0852   -1.0770    0.0000 C   0  0  0  0  0  0  0  0  0
    0.7997   -1.4895    0.0000 C   0  0  0  0  0  0  0  0  0
  1  2  1  0  0  0  0
  1  8  1  0  0  0  0
  1 31  1  0  0  0  0
  2  3  1  0  0  0  0
  3  4  1  0  0  0  0
  4  5  1  0  0  0  0
  5  6  1  0  0  0  0
  5  7  1  0  0  0  0
  8  9  1  0  0  0  0
  9 10  1  0  0  0  0
 10 11  1  0  0  0  0
 10 25  1  0  0  0  0
 11 12  1  0  0  0  0
 12 13  1  0  0  0  0
 13 14  1  0  0  0  0
 13 25  1  0  0  0  0
 14 15  1  0  0  0  0
 15 16  4  0  0  0  0
 15 20  4  0  0  0  0
 16 17  4  0  0  0  0
 16 24  4  0  0  0  0
 17 18  4  0  0  0  0
 17 21  4  0  0  0  0
 18 19  4  0  0  0  0
 19 20  4  0  0  0  0
 21 22  4  0  0  0  0
 22 23  4  0  0  0  0
 23 24  4  0  0  0  0
 25 26  2  0  0  0  0
 26 27  1  0  0  0  0
 26 29  1  0  0  0  0
 27 28  3  0  0  0  0
 29 30  3  0  0  0  0
 31 32  1  0  0  0  0
M  END
>  <Name_Molregno>
424791

>  <HISTAMINE H3>
7.08

$$$$
424792
  Marvin  02231216192D 0   1.00000     0.00000     0

 30 33  0  0  0  0  0  0  0  0999 V2000
    2.1137   -4.2705    0.0000 N   0  0  0  0  0  0  0  0  0
    2.2852   -3.4635    0.0000 C   0  0  0  0  0  0  0  0  0
    2.4567   -2.6565    0.0000 C   0  0  0  0  0  0  0  0  0
    3.2414   -2.4016    0.0000 C   0  0  0  0  0  0  0  0  0
    4.0260   -2.1466    0.0000 N   0  0  0  0  0  0  0  0  0
    1.8437   -2.1045    0.0000 C   0  0  0  0  0  0  0  0  0
    1.9299   -1.2840    0.0000 N   0  0  0  0  0  0  0  0  0
    1.1762   -0.9484    0.0000 C   0  0  0  0  0  0  0  0  0
    0.6242   -1.5615    0.0000 C   0  0  0  0  0  0  0  0  0
    1.0367   -2.2760    0.0000 N   0  0  0  0  0  0  0  0  0
    0.7011   -3.0297    0.0000 C   0  0  0  0  0  0  0  0  0
    1.1860   -3.6971    0.0000 C   0  0  0  0  0  0  0  0  0
    0.8505   -4.4508    0.0000 C   0  0  0  0  0  0  0  0  0
    0.0300   -4.5370    0.0000 N   0  0  0  0  0  0  0  0  0
   -0.3056   -5.2907    0.0000 C   0  0  0  0  0  0  0  0  0
   -1.1260   -5.3769    0.0000 C   0  0  0  0  0  0  0  0  0
   -1.6110   -4.7095    0.0000 C   0  0  0  0  0  0  0  0  0
   -1.2754   -3.9558    0.0000 C   0  0  0  0  0  0  0  0  0
   -0.4549   -3.8696    0.0000 C   0  0  0  0  0  0  0  0  0
    2.6444   -0.8715    0.0000 C   0  0  0  0  0  0  0  0  0
    2.6444   -0.0465    0.0000 C   0  0  0  0  0  0  0  0  0
    3.3588    0.3660    0.0000 C   0  0  0  0  0  0  0  0  0
    3.3588    1.1910    0.0000 C   0  0  0  0  0  0  0  0  0
    2.6444    1.6035    0.0000 C   0  0  0  0  0  0  0  0  0
    1.9299    1.1910    0.0000 C   0  0  0  0  0  0  0  0  0
    1.9299    0.3660    0.0000 C   0  0  0  0  0  0  0  0  0
    4.0733    1.6035    0.0000 C   0  0  0  0  0  0  0  0  0
    4.7878    1.1910    0.0000 C   0  0  0  0  0  0  0  0  0
    4.7878    0.3660    0.0000 C   0  0  0  0  0  0  0  0  0
    4.0733   -0.0465    0.0000 C   0  0  0  0  0  0  0  0  0
  1  2  3  0  0  0  0
  2  3  1  0  0  0  0
  3  4  1  0  0  0  0
  3  6  2  0  0  0  0
  4  5  3  0  0  0  0
  6  7  1  0  0  0  0
  6 10  1  0  0  0  0
  7  8  1  0  0  0  0
  7 20  1  0  0  0  0
  8  9  1  0  0  0  0
  9 10  1  0  0  0  0
 10 11  1  0  0  0  0
 11 12  1  0  0  0  0
 12 13  1  0  0  0  0
 13 14  1  0  0  0  0
 14 15  1  0  0  0  0
 14 19  1  0  0  0  0
 15 16  1  0  0  0  0
 16 17  1  0  0  0  0
 17 18  1  0  0  0  0
 18 19  1  0  0  0  0
 20 21  1  0  0  0  0
 21 22  4  0  0  0  0
 21 26  4  0  0  0  0
 22 23  4  0  0  0  0
 22 30  4  0  0  0  0
 23 24  4  0  0  0  0
 23 27  4  0  0  0  0
 24 25  4  0  0  0  0
 25 26  4  0  0  0  0
 27 28  4  0  0  0  0
 28 29  4  0  0  0  0
 29 30  4  0  0  0  0
M  END
>  <Name_Molregno>
424792

>  <HISTAMINE H3>
7.44

$$$$
424793
  Marvin  02231216192D 0   1.00000     0.00000     0

 26 28  0  0  0  0  0  0  0  0999 V2000
    0.0817   -0.3208    0.0000 N   0  0  0  0  0  0  0  0  0
    0.7962   -0.7333    0.0000 C   0  0  0  0  0  0  0  0  0
    1.5107   -1.1458    0.0000 C   0  0  0  0  0  0  0  0  0
    2.2252   -0.7333    0.0000 C   0  0  0  0  0  0  0  0  0
    2.9396   -0.3208    0.0000 N   0  0  0  0  0  0  0  0  0
    1.5107   -1.9708    0.0000 C   0  0  0  0  0  0  0  0  0
    2.1781   -2.4557    0.0000 N   0  0  0  0  0  0  0  0  0
    1.9232   -3.2403    0.0000 C   0  0  0  0  0  0  0  0  0
    1.0982   -3.2403    0.0000 C   0  0  0  0  0  0  0  0  0
    0.8433   -2.4557    0.0000 N   0  0  0  0  0  0  0  0  0
    0.0586   -2.2008    0.0000 C   0  0  0  0  0  0  0  0  0
   -0.5545   -2.7528    0.0000 C   0  0  0  0  0  0  0  0  0
   -1.3391   -2.4979    0.0000 N   0  0  0  0  0  0  0  0  0
   -1.9522   -3.0499    0.0000 C   0  0  0  0  0  0  0  0  0
   -2.7368   -2.7950    0.0000 C   0  0  0  0  0  0  0  0  0
   -2.9083   -1.9880    0.0000 C   0  0  0  0  0  0  0  0  0
   -2.2952   -1.4360    0.0000 C   0  0  0  0  0  0  0  0  0
   -1.5106   -1.6909    0.0000 C   0  0  0  0  0  0  0  0  0
    2.9628   -2.2008    0.0000 C   0  0  0  0  0  0  0  0  0
    3.1343   -1.3938    0.0000 C   0  0  0  0  0  0  0  0  0
    3.9189   -1.1389    0.0000 N   0  0  0  0  0  0  0  0  0
    4.0904   -0.3319    0.0000 C   0  0  0  0  0  0  0  0  0
    4.8750   -0.0770    0.0000 C   0  0  0  0  0  0  0  0  0
    5.4881   -0.6290    0.0000 C   0  0  0  0  0  0  0  0  0
    5.3166   -1.4360    0.0000 C   0  0  0  0  0  0  0  0  0
    4.5320   -1.6909    0.0000 C   0  0  0  0  0  0  0  0  0
  1  2  3  0  0  0  0
  2  3  1  0  0  0  0
  3  4  1  0  0  0  0
  3  6  2  0  0  0  0
  4  5  3  0  0  0  0
  6  7  1  0  0  0  0
  6 10  1  0  0  0  0
  7  8  1  0  0  0  0
  7 19  1  0  0  0  0
  8  9  1  0  0  0  0
  9 10  1  0  0  0  0
 10 11  1  0  0  0  0
 11 12  1  0  0  0  0
 12 13  1  0  0  0  0
 13 14  1  0  0  0  0
 13 18  1  0  0  0  0
 14 15  1  0  0  0  0
 15 16  1  0  0  0  0
 16 17  1  0  0  0  0
 17 18  1  0  0  0  0
 19 20  1  0  0  0  0
 20 21  1  0  0  0  0
 21 22  1  0  0  0  0
 21 26  1  0  0  0  0
 22 23  1  0  0  0  0
 23 24  1  0  0  0  0
 24 25  1  0  0  0  0
 25 26  1  0  0  0  0
M  END
>  <Name_Molregno>
424793

>  <HISTAMINE H3>
7.62

$$$$
424794
  Marvin  02231216192D 0   1.00000     0.00000     0

 27 29  0  0  0  0  0  0  0  0999 V2000
    0.7479    1.1252    0.0000 N   0  0  0  0  0  0  0  0  0
    1.4624    0.7127    0.0000 C   0  0  0  0  0  0  0  0  0
    2.1768    0.3002    0.0000 C   0  0  0  0  0  0  0  0  0
    2.8913    0.7127    0.0000 C   0  0  0  0  0  0  0  0  0
    3.6058    1.1252    0.0000 N   0  0  0  0  0  0  0  0  0
    2.1768   -0.5248    0.0000 C   0  0  0  0  0  0  0  0  0
    2.8443   -1.0097    0.0000 N   0  0  0  0  0  0  0  0  0
    2.5893   -1.7943    0.0000 C   0  0  0  0  0  0  0  0  0
    1.7643   -1.7943    0.0000 C   0  0  0  0  0  0  0  0  0
    1.5094   -1.0097    0.0000 N   0  0  0  0  0  0  0  0  0
    0.7248   -0.7548    0.0000 C   0  0  0  0  0  0  0  0  0
    0.1117   -1.3068    0.0000 C   0  0  0  0  0  0  0  0  0
   -0.6730   -1.0519    0.0000 N   0  0  0  0  0  0  0  0  0
   -1.2860   -1.6039    0.0000 C   0  0  0  0  0  0  0  0  0
   -2.0707   -1.3490    0.0000 C   0  0  0  0  0  0  0  0  0
   -2.2422   -0.5420    0.0000 C   0  0  0  0  0  0  0  0  0
   -1.6291    0.0100    0.0000 C   0  0  0  0  0  0  0  0  0
   -0.8445   -0.2449    0.0000 C   0  0  0  0  0  0  0  0  0
    3.6289   -0.7548    0.0000 C   0  0  0  0  0  0  0  0  0
    4.2420   -1.3068    0.0000 C   0  0  0  0  0  0  0  0  0
    5.0266   -1.0519    0.0000 C   0  0  0  0  0  0  0  0  0
    5.6397   -1.6039    0.0000 N   0  0  0  0  0  0  0  0  0
    6.4243   -1.3490    0.0000 C   0  0  0  0  0  0  0  0  0
    7.0374   -1.9010    0.0000 C   0  0  0  0  0  0  0  0  0
    6.8659   -2.7080    0.0000 C   0  0  0  0  0  0  0  0  0
    6.0813   -2.9629    0.0000 C   0  0  0  0  0  0  0  0  0
    5.4682   -2.4109    0.0000 C   0  0  0  0  0  0  0  0  0
  1  2  3  0  0  0  0
  2  3  1  0  0  0  0
  3  4  1  0  0  0  0
  3  6  2  0  0  0  0
  4  5  3  0  0  0  0
  6  7  1  0  0  0  0
  6 10  1  0  0  0  0
  7  8  1  0  0  0  0
  7 19  1  0  0  0  0
  8  9  1  0  0  0  0
  9 10  1  0  0  0  0
 10 11  1  0  0  0  0
 11 12  1  0  0  0  0
 12 13  1  0  0  0  0
 13 14  1  0  0  0  0
 13 18  1  0  0  0  0
 14 15  1  0  0  0  0
 15 16  1  0  0  0  0
 16 17  1  0  0  0  0
 17 18  1  0  0  0  0
 19 20  1  0  0  0  0
 20 21  1  0  0  0  0
 21 22  1  0  0  0  0
 22 23  1  0  0  0  0
 22 27  1  0  0  0  0
 23 24  1  0  0  0  0
 24 25  1  0  0  0  0
 25 26  1  0  0  0  0
 26 27  1  0  0  0  0
M  END
>  <Name_Molregno>
424794

>  <HISTAMINE H3>
8.18

$$$$
424795
  Marvin  02231216192D 0   1.00000     0.00000     0

 28 30  0  0  0  0  0  0  0  0999 V2000
    1.6580    3.6768    0.0000 N   0  0  0  0  0  0  0  0  0
    1.8295    2.8698    0.0000 C   0  0  0  0  0  0  0  0  0
    2.0010    2.0628    0.0000 C   0  0  0  0  0  0  0  0  0
    2.7857    1.8079    0.0000 C   0  0  0  0  0  0  0  0  0
    3.5703    1.5530    0.0000 N   0  0  0  0  0  0  0  0  0
    1.3879    1.5108    0.0000 C   0  0  0  0  0  0  0  0  0
    1.4742    0.6903    0.0000 N   0  0  0  0  0  0  0  0  0
    0.7205    0.3548    0.0000 C   0  0  0  0  0  0  0  0  0
    0.1685    0.9679    0.0000 C   0  0  0  0  0  0  0  0  0
    0.5810    1.6823    0.0000 N   0  0  0  0  0  0  0  0  0
    0.2454    2.4360    0.0000 C   0  0  0  0  0  0  0  0  0
   -0.5751    2.5222    0.0000 C   0  0  0  0  0  0  0  0  0
   -0.9106    3.2759    0.0000 N   0  0  0  0  0  0  0  0  0
   -1.7311    3.3621    0.0000 C   0  0  0  0  0  0  0  0  0
   -2.0667    4.1158    0.0000 C   0  0  0  0  0  0  0  0  0
   -1.5817    4.7833    0.0000 C   0  0  0  0  0  0  0  0  0
   -0.7613    4.6970    0.0000 C   0  0  0  0  0  0  0  0  0
   -0.4257    3.9433    0.0000 C   0  0  0  0  0  0  0  0  0
    2.1887    0.2778    0.0000 C   0  0  0  0  0  0  0  0  0
    2.9031    0.6903    0.0000 C   0  0  0  0  0  0  0  0  0
    3.6176    0.2778    0.0000 C   0  0  0  0  0  0  0  0  0
    4.3321    0.6903    0.0000 C   0  0  0  0  0  0  0  0  0
    5.0465    0.2778    0.0000 N   0  0  0  0  0  0  0  0  0
    5.7610    0.6903    0.0000 C   0  0  0  0  0  0  0  0  0
    6.4755    0.2778    0.0000 C   0  0  0  0  0  0  0  0  0
    6.4755   -0.5472    0.0000 C   0  0  0  0  0  0  0  0  0
    5.7610   -0.9597    0.0000 C   0  0  0  0  0  0  0  0  0
    5.0465   -0.5472    0.0000 C   0  0  0  0  0  0  0  0  0
  1  2  3  0  0  0  0
  2  3  1  0  0  0  0
  3  4  1  0  0  0  0
  3  6  2  0  0  0  0
  4  5  3  0  0  0  0
  6  7  1  0  0  0  0
  6 10  1  0  0  0  0
  7  8  1  0  0  0  0
  7 19  1  0  0  0  0
  8  9  1  0  0  0  0
  9 10  1  0  0  0  0
 10 11  1  0  0  0  0
 11 12  1  0  0  0  0
 12 13  1  0  0  0  0
 13 14  1  0  0  0  0
 13 18  1  0  0  0  0
 14 15  1  0  0  0  0
 15 16  1  0  0  0  0
 16 17  1  0  0  0  0
 17 18  1  0  0  0  0
 19 20  1  0  0  0  0
 20 21  1  0  0  0  0
 21 22  1  0  0  0  0
 22 23  1  0  0  0  0
 23 24  1  0  0  0  0
 23 28  1  0  0  0  0
 24 25  1  0  0  0  0
 25 26  1  0  0  0  0
 26 27  1  0  0  0  0
 27 28  1  0  0  0  0
M  END
>  <Name_Molregno>
424795

>  <HISTAMINE H3>
7.8

$$$$
424796
  Marvin  02231216192D 0   1.00000     0.00000     0

 28 30  0  0  0  0  0  0  0  0999 V2000
   -0.0371    0.0611    0.0000 N   0  0  0  0  0  0  0  0  0
    0.6774   -0.3514    0.0000 C   0  0  0  0  0  0  0  0  0
    1.3918   -0.7639    0.0000 C   0  0  0  0  0  0  0  0  0
    2.1063   -0.3514    0.0000 C   0  0  0  0  0  0  0  0  0
    2.8208    0.0611    0.0000 N   0  0  0  0  0  0  0  0  0
    1.3918   -1.5889    0.0000 C   0  0  0  0  0  0  0  0  0
    2.0593   -2.0739    0.0000 N   0  0  0  0  0  0  0  0  0
    1.8043   -2.8585    0.0000 C   0  0  0  0  0  0  0  0  0
    0.9793   -2.8585    0.0000 C   0  0  0  0  0  0  0  0  0
    0.7244   -2.0739    0.0000 N   0  0  0  0  0  0  0  0  0
   -0.0602   -1.8189    0.0000 C   0  0  0  0  0  0  0  0  0
   -0.6733   -2.3710    0.0000 C   0  0  0  0  0  0  0  0  0
   -1.4579   -2.1160    0.0000 C   0  0  0  0  0  0  0  0  0
   -2.0710   -2.6680    0.0000 N   0  0  0  0  0  0  0  0  0
   -1.8995   -3.4750    0.0000 C   0  0  0  0  0  0  0  0  0
   -2.5126   -4.0271    0.0000 C   0  0  0  0  0  0  0  0  0
   -3.2972   -3.7721    0.0000 C   0  0  0  0  0  0  0  0  0
   -3.4687   -2.9651    0.0000 C   0  0  0  0  0  0  0  0  0
   -2.8556   -2.4131    0.0000 C   0  0  0  0  0  0  0  0  0
    2.8439   -1.8189    0.0000 C   0  0  0  0  0  0  0  0  0
    3.4570   -2.3710    0.0000 C   0  0  0  0  0  0  0  0  0
    4.2416   -2.1160    0.0000 C   0  0  0  0  0  0  0  0  0
    4.8547   -2.6680    0.0000 N   0  0  0  0  0  0  0  0  0
    5.6393   -2.4131    0.0000 C   0  0  0  0  0  0  0  0  0
    6.2524   -2.9651    0.0000 C   0  0  0  0  0  0  0  0  0
    6.0809   -3.7721    0.0000 C   0  0  0  0  0  0  0  0  0
    5.2963   -4.0271    0.0000 C   0  0  0  0  0  0  0  0  0
    4.6832   -3.4750    0.0000 C   0  0  0  0  0  0  0  0  0
  1  2  3  0  0  0  0
  2  3  1  0  0  0  0
  3  4  1  0  0  0  0
  3  6  2  0  0  0  0
  4  5  3  0  0  0  0
  6  7  1  0  0  0  0
  6 10  1  0  0  0  0
  7  8  1  0  0  0  0
  7 20  1  0  0  0  0
  8  9  1  0  0  0  0
  9 10  1  0  0  0  0
 10 11  1  0  0  0  0
 11 12  1  0  0  0  0
 12 13  1  0  0  0  0
 13 14  1  0  0  0  0
 14 15  1  0  0  0  0
 14 19  1  0  0  0  0
 15 16  1  0  0  0  0
 16 17  1  0  0  0  0
 17 18  1  0  0  0  0
 18 19  1  0  0  0  0
 20 21  1  0  0  0  0
 21 22  1  0  0  0  0
 22 23  1  0  0  0  0
 23 24  1  0  0  0  0
 23 28  1  0  0  0  0
 24 25  1  0  0  0  0
 25 26  1  0  0  0  0
 26 27  1  0  0  0  0
 27 28  1  0  0  0  0
M  END
>  <Name_Molregno>
424796

>  <HISTAMINE H3>
8.62

$$$$
424802
  Marvin  02231216192D 0   1.00000     0.00000     0

 26 28  0  0  1  0  0  0  0  0999 V2000
   -0.7778   -0.7295    0.0000 N   0  0  0  0  0  0  0  0  0
   -0.0633   -1.1420    0.0000 C   0  0  0  0  0  0  0  0  0
    0.6512   -1.5545    0.0000 C   0  0  0  0  0  0  0  0  0
    1.3657   -1.1420    0.0000 C   0  0  0  0  0  0  0  0  0
    2.0801   -0.7295    0.0000 N   0  0  0  0  0  0  0  0  0
    0.6512   -2.3795    0.0000 C   0  0  0  0  0  0  0  0  0
    1.3186   -2.8644    0.0000 N   0  0  0  0  0  0  0  0  0
    1.0637   -3.6490    0.0000 C   0  0  0  0  0  0  0  0  0
    0.2387   -3.6490    0.0000 C   0  0  0  0  0  0  0  0  0
   -0.0163   -2.8644    0.0000 N   0  0  0  0  0  0  0  0  0
   -0.8009   -2.6095    0.0000 C   0  0  0  0  0  0  0  0  0
   -1.4140   -3.1615    0.0000 C   0  0  0  0  0  0  0  0  0
   -2.1986   -2.9066    0.0000 N   0  0  0  0  0  0  0  0  0
   -2.8117   -3.4586    0.0000 C   0  0  0  0  0  0  0  0  0
   -3.5963   -3.2037    0.0000 C   0  0  0  0  0  0  0  0  0
   -3.7678   -2.3967    0.0000 C   0  0  0  0  0  0  0  0  0
   -3.1547   -1.8446    0.0000 C   0  0  0  0  0  0  0  0  0
   -2.3701   -2.0996    0.0000 C   0  0  0  0  0  0  0  0  0
    2.1032   -2.6095    0.0000 C   0  0  0  0  0  0  0  0  0
    2.2748   -1.8025    0.0000 C   0  0  0  0  0  0  0  0  0
    3.0594   -1.5476    0.0000 N   0  0  0  0  0  0  0  0  0
    3.3143   -0.7629    0.0000 C   0  0  0  0  0  0  0  0  0
    4.1393   -0.7629    0.0000 C   0  0  0  0  0  0  0  0  0
    4.3943   -1.5476    0.0000 C   0  0  0  0  0  0  0  0  0
    3.7268   -2.0325    0.0000 C   0  0  0  0  0  0  0  0  0
    3.7268   -2.8575    0.0000 C   0  0  0  0  0  0  0  0  0
  1  2  3  0  0  0  0
  2  3  1  0  0  0  0
  3  4  1  0  0  0  0
  3  6  2  0  0  0  0
  4  5  3  0  0  0  0
  6  7  1  0  0  0  0
  6 10  1  0  0  0  0
  7  8  1  0  0  0  0
  7 19  1  0  0  0  0
  8  9  1  0  0  0  0
  9 10  1  0  0  0  0
 10 11  1  0  0  0  0
 11 12  1  0  0  0  0
 12 13  1  0  0  0  0
 13 14  1  0  0  0  0
 13 18  1  0  0  0  0
 14 15  1  0  0  0  0
 15 16  1  0  0  0  0
 16 17  1  0  0  0  0
 17 18  1  0  0  0  0
 19 20  1  0  0  0  0
 20 21  1  0  0  0  0
 21 22  1  0  0  0  0
 21 25  1  0  0  0  0
 22 23  1  0  0  0  0
 23 24  1  0  0  0  0
 24 25  1  0  0  0  0
 25 26  1  0  0  0  0
M  END
>  <Name_Molregno>
424802

>  <HISTAMINE H3>
9.42

$$$$
424803
  Marvin  02231216192D 0   1.00000     0.00000     0

 26 28  0  0  1  0  0  0  0  0999 V2000
    2.9051   -0.4236    0.0000 N   0  0  0  0  0  0  0  0  0
    2.1907   -0.8361    0.0000 C   0  0  0  0  0  0  0  0  0
    1.4762   -1.2486    0.0000 C   0  0  0  0  0  0  0  0  0
    0.7617   -0.8361    0.0000 C   0  0  0  0  0  0  0  0  0
    0.0473   -0.4236    0.0000 N   0  0  0  0  0  0  0  0  0
    1.4762   -2.0736    0.0000 C   0  0  0  0  0  0  0  0  0
    2.1436   -2.5585    0.0000 N   0  0  0  0  0  0  0  0  0
    1.8887   -3.3431    0.0000 C   0  0  0  0  0  0  0  0  0
    1.0637   -3.3431    0.0000 C   0  0  0  0  0  0  0  0  0
    0.8088   -2.5585    0.0000 N   0  0  0  0  0  0  0  0  0
    0.0241   -2.3035    0.0000 C   0  0  0  0  0  0  0  0  0
   -0.5890   -2.8556    0.0000 C   0  0  0  0  0  0  0  0  0
   -1.3736   -2.6006    0.0000 N   0  0  0  0  0  0  0  0  0
   -2.0410   -3.0856    0.0000 C   0  0  0  0  0  0  0  0  0
   -2.7085   -2.6006    0.0000 C   0  0  0  0  0  0  0  0  0
   -2.4535   -1.8160    0.0000 C   0  0  0  0  0  0  0  0  0
   -1.6285   -1.8160    0.0000 C   0  0  0  0  0  0  0  0  0
   -1.1436   -1.1486    0.0000 C   0  0  0  0  0  0  0  0  0
    2.9283   -2.3035    0.0000 C   0  0  0  0  0  0  0  0  0
    3.0998   -1.4966    0.0000 C   0  0  0  0  0  0  0  0  0
    3.8844   -1.2416    0.0000 N   0  0  0  0  0  0  0  0  0
    4.1393   -0.4570    0.0000 C   0  0  0  0  0  0  0  0  0
    4.9643   -0.4570    0.0000 C   0  0  0  0  0  0  0  0  0
    5.2193   -1.2416    0.0000 C   0  0  0  0  0  0  0  0  0
    4.5518   -1.7265    0.0000 C   0  0  0  0  0  0  0  0  0
    4.5518   -2.5515    0.0000 C   0  0  0  0  0  0  0  0  0
  1  2  3  0  0  0  0
  2  3  1  0  0  0  0
  3  4  1  0  0  0  0
  3  6  2  0  0  0  0
  4  5  3  0  0  0  0
  6  7  1  0  0  0  0
  6 10  1  0  0  0  0
  7  8  1  0  0  0  0
  7 19  1  0  0  0  0
  8  9  1  0  0  0  0
  9 10  1  0  0  0  0
 10 11  1  0  0  0  0
 11 12  1  0  0  0  0
 12 13  1  0  0  0  0
 13 14  1  0  0  0  0
 13 17  1  0  0  0  0
 14 15  1  0  0  0  0
 15 16  1  0  0  0  0
 16 17  1  0  0  0  0
 17 18  1  0  0  0  0
 19 20  1  0  0  0  0
 20 21  1  0  0  0  0
 21 22  1  0  0  0  0
 21 25  1  0  0  0  0
 22 23  1  0  0  0  0
 23 24  1  0  0  0  0
 24 25  1  0  0  0  0
 25 26  1  0  0  0  0
M  END
>  <Name_Molregno>
424803

>  <HISTAMINE H3>
9.29

$$$$
429662
  Marvin  02231216192D 0   1.00000     0.00000     0

 20 22  0  0  0  0  0  0  0  0999 V2000
    2.1499    0.3508    0.0000 S   0  0  0  0  0  0  0  0  0
    1.4354   -0.0617    0.0000 C   0  0  0  0  0  0  0  0  0
    0.7210    0.3508    0.0000 N   0  0  0  0  0  0  0  0  0
    0.7210    1.1758    0.0000 C   0  0  0  0  0  0  0  0  0
    0.0065    1.5883    0.0000 C   0  0  0  0  0  0  0  0  0
    0.0065    2.4133    0.0000 C   0  0  0  0  0  0  0  0  0
    0.7210    2.8258    0.0000 C   0  0  0  0  0  0  0  0  0
    1.4354    2.4133    0.0000 C   0  0  0  0  0  0  0  0  0
    1.4354    1.5883    0.0000 C   0  0  0  0  0  0  0  0  0
    1.4354   -0.8867    0.0000 N   0  0  0  0  0  0  0  0  0
    2.1499   -1.2992    0.0000 C   0  0  0  0  0  0  0  0  0
    2.1499   -2.1242    0.0000 C   0  0  0  0  0  0  0  0  0
    1.4354   -2.5367    0.0000 C   0  0  0  0  0  0  0  0  0
    0.7210   -2.1242    0.0000 C   0  0  0  0  0  0  0  0  0
    0.7210   -1.2992    0.0000 C   0  0  0  0  0  0  0  0  0
    1.4354   -3.3617    0.0000 C   0  0  0  0  0  0  0  0  0
    2.1029   -3.8467    0.0000 N   0  0  0  0  0  0  0  0  0
    1.8479   -4.6313    0.0000 C   0  0  0  0  0  0  0  0  0
    1.0229   -4.6313    0.0000 N   0  0  0  0  0  0  0  0  0
    0.7680   -3.8467    0.0000 C   0  0  0  0  0  0  0  0  0
  1  2  2  0  0  0  0
  2  3  1  0  0  0  0
  2 10  1  0  0  0  0
  3  4  1  0  0  0  0
  4  5  1  0  0  0  0
  4  9  1  0  0  0  0
  5  6  1  0  0  0  0
  6  7  1  0  0  0  0
  7  8  1  0  0  0  0
  8  9  1  0  0  0  0
 10 11  1  0  0  0  0
 10 15  1  0  0  0  0
 11 12  1  0  0  0  0
 12 13  1  0  0  0  0
 13 14  1  0  0  0  0
 13 16  1  0  0  0  0
 14 15  1  0  0  0  0
 16 17  4  0  0  0  0
 16 20  4  0  0  0  0
 17 18  4  0  0  0  0
 18 19  4  0  0  0  0
 19 20  4  0  0  0  0
M  STY  1   1 DAT
M  SAL   1  1  17
M  SDT   1 MRV_IMPLICIT_H                                        
M  SDD   1     0.0000    0.0000    DR    ALL  0       0  
M  SED   1 IMPL_H1
M  END
>  <Name_Molregno>
429662

>  <Alpha-2A>
6.9

>  <Alpha-2C>
6.46

>  <HISTAMINE H1>
5

>  <HISTAMINE H2>
5

>  <HISTAMINE H3>
7.2

>  <HISTAMINE H4>
7.22

>  <Muscarinic acetylcholine receptor M3>
5

$$$$
436369
  Marvin  02231216192D 0   1.00000     0.00000     0

 25 29  0  0  1  0  0  0  0  0999 V2000
    0.9259    1.5026    0.0000 N   0  0  0  0  0  0  0  0  0
    1.4109    0.8351    0.0000 C   0  0  0  0  0  0  0  0  0
    2.1955    1.0901    0.0000 C   0  0  0  0  0  0  0  0  0
    2.1955    1.9151    0.0000 C   0  0  0  0  0  0  0  0  0
    2.9801    2.1700    0.0000 C   0  0  0  0  0  0  0  0  0
    3.4650    1.5026    0.0000 C   0  0  0  0  0  0  0  0  0
    2.9801    0.8351    0.0000 C   0  0  0  0  0  0  0  0  0
    3.2350    0.0505    0.0000 C   0  0  0  0  0  0  0  0  0
    4.0420   -0.1210    0.0000 C   0  0  0  0  0  0  0  0  0
    4.2969   -0.9056    0.0000 C   0  0  0  0  0  0  0  0  0
    3.7449   -1.5187    0.0000 C   0  0  0  0  0  0  0  0  0
    2.9379   -1.3472    0.0000 C   0  0  0  0  0  0  0  0  0
    2.6830   -0.5626    0.0000 C   0  0  0  0  0  0  0  0  0
    3.9999   -2.3033    0.0000 C   0  0  0  0  0  0  0  0  0
    3.4478   -2.9164    0.0000 C   0  0  0  0  0  0  0  0  0
    3.7028   -3.7011    0.0000 N   0  0  0  0  0  0  0  0  0
    4.4874   -3.9560    0.0000 C   0  0  0  0  0  0  0  0  0
    4.4874   -4.7810    0.0000 C   0  0  0  0  0  0  0  0  0
    3.7028   -5.0359    0.0000 C   0  0  0  0  0  0  0  0  0
    3.2178   -4.3685    0.0000 C   0  0  0  0  0  0  0  0  0
    1.4109    2.1700    0.0000 C   0  0  0  0  0  0  0  0  0
    0.1009    1.5026    0.0000 C   0  0  0  0  0  0  0  0  0
   -0.3116    2.2171    0.0000 C   0  0  0  0  0  0  0  0  0
   -1.0260    2.6296    0.0000 C   0  0  0  0  0  0  0  0  0
   -0.3116    3.0421    0.0000 C   0  0  0  0  0  0  0  0  0
  1  2  1  0  0  0  0
  1 21  1  0  0  0  0
  1 22  1  0  0  0  0
  2  3  1  0  0  0  0
  3  4  1  0  0  0  0
  3  7  1  0  0  0  0
  4  5  1  0  0  0  0
  4 21  1  0  0  0  0
  5  6  1  0  0  0  0
  6  7  2  0  0  0  0
  7  8  1  0  0  0  0
  8  9  4  0  0  0  0
  8 13  4  0  0  0  0
  9 10  4  0  0  0  0
 10 11  4  0  0  0  0
 11 12  4  0  0  0  0
 11 14  1  0  0  0  0
 12 13  4  0  0  0  0
 14 15  1  0  0  0  0
 15 16  1  0  0  0  0
 16 17  1  0  0  0  0
 16 20  1  0  0  0  0
 17 18  1  0  0  0  0
 18 19  1  0  0  0  0
 19 20  1  0  0  0  0
 22 23  1  0  0  0  0
 23 24  1  0  0  0  0
 23 25  1  0  0  0  0
 24 25  1  0  0  0  0
M  END
>  <Name_Molregno>
436369

>  <HISTAMINE H3>
9.03

$$$$
437622
  Marvin  02231216192D 0   1.00000     0.00000     0

 29 31  0  0  1  0  0  0  0  0999 V2000
    4.6273    6.8992    0.0000 F   0  0  0  0  0  0  0  0  0
    4.6273    6.0742    0.0000 C   0  0  0  0  0  0  0  0  0
    5.3417    5.6617    0.0000 C   0  0  0  0  0  0  0  0  0
    5.3417    4.8367    0.0000 C   0  0  0  0  0  0  0  0  0
    4.6273    4.4242    0.0000 C   0  0  0  0  0  0  0  0  0
    3.9128    4.8367    0.0000 C   0  0  0  0  0  0  0  0  0
    3.9128    5.6617    0.0000 C   0  0  0  0  0  0  0  0  0
    4.6273    3.5992    0.0000 C   0  0  0  0  0  0  0  0  0
    5.3417    3.1867    0.0000 C   0  0  0  0  0  0  0  0  0
    5.3417    2.3617    0.0000 N   0  0  0  0  0  0  0  0  0
    6.0562    1.9492    0.0000 C   0  0  0  0  0  0  0  0  0
    6.0562    1.1242    0.0000 C   0  0  0  0  0  0  0  0  0
    5.3417    0.7117    0.0000 C   0  0  0  0  0  0  0  0  0
    4.6273    1.1242    0.0000 C   0  0  0  0  0  0  0  0  0
    4.6273    1.9492    0.0000 C   0  0  0  0  0  0  0  0  0
    5.3417   -0.1133    0.0000 C   0  0  0  0  0  0  0  0  0
    4.6273   -0.5258    0.0000 O   0  0  0  0  0  0  0  0  0
    6.0562   -0.5258    0.0000 C   0  0  0  0  0  0  0  0  0
    6.7707   -0.1133    0.0000 C   0  0  0  0  0  0  0  0  0
    7.4851   -0.5258    0.0000 C   0  0  0  0  0  0  0  0  0
    7.4851   -1.3508    0.0000 C   0  0  0  0  0  0  0  0  0
    6.7707   -1.7633    0.0000 C   0  0  0  0  0  0  0  0  0
    6.7707   -2.5883    0.0000 O   0  0  0  0  0  0  0  0  0
    7.4851   -3.0008    0.0000 C   0  0  0  0  0  0  0  0  0
    7.4851   -3.8258    0.0000 C   0  0  0  0  0  0  0  0  0
    8.1996   -4.2383    0.0000 F   0  0  0  0  0  0  0  0  0
    6.0562   -1.3508    0.0000 C   0  0  0  0  0  0  0  0  0
    5.3417   -1.7633    0.0000 O   0  0  0  0  0  0  0  0  0
    5.3417   -2.5883    0.0000 C   0  0  0  0  0  0  0  0  0
  1  2  1  0  0  0  0
  2  3  4  0  0  0  0
  2  7  4  0  0  0  0
  3  4  4  0  0  0  0
  4  5  4  0  0  0  0
  5  6  4  0  0  0  0
  5  8  1  0  0  0  0
  6  7  4  0  0  0  0
  8  9  1  0  0  0  0
  9 10  1  0  0  0  0
 10 11  1  0  0  0  0
 10 15  1  0  0  0  0
 11 12  1  0  0  0  0
 12 13  1  0  0  0  0
 13 14  1  0  0  0  0
 13 16  1  0  0  0  0
 14 15  1  0  0  0  0
 16 17  1  0  0  0  0
 16 18  1  0  0  0  0
 18 19  4  0  0  0  0
 18 27  4  0  0  0  0
 19 20  4  0  0  0  0
 20 21  4  0  0  0  0
 21 22  4  0  0  0  0
 22 23  1  0  0  0  0
 22 27  4  0  0  0  0
 23 24  1  0  0  0  0
 24 25  1  0  0  0  0
 25 26  1  0  0  0  0
 27 28  1  0  0  0  0
 28 29  1  0  0  0  0
M  END
>  <Name_Molregno>
437622

>  <5-HT1A>
5

>  <5-HT1B>
5.89

>  <5-HT1D>
6.06

>  <5-HT1E>
5

>  <5-HT2C>
7.22

>  <5-HT3>
5

>  <5-HT5>
5.09

>  <5-HT6>
5.41

>  <5-HT7>
7.09

>  <Alpha-1A>
6.47

>  <Alpha-1B>
6.4

>  <Alpha-2A>
5

>  <Alpha-2C>
6.83

>  <DOPAMINE D1>
5.74

>  <DOPAMINE D2>
5.29

>  <DOPAMINE D4>
6.31

>  <DOPAMINE D5>
5.13

>  <Dopamine transporter>
5

>  <HISTAMINE H1>
6.36

>  <HISTAMINE H2>
5.56

>  <HISTAMINE H3>
5

>  <Serotonin transporter>
5.55

$$$$
437760
  Marvin  02231216192D 0   1.00000     0.00000     0

 30 33  0  0  0  0  0  0  0  0999 V2000
    0.0636   -0.3212    0.0000 Cl  0  0  0  0  0  0  0  0  0
    0.8863   -0.3828    0.0000 C   0  0  0  0  0  0  0  0  0
    1.3510    0.2988    0.0000 C   0  0  0  0  0  0  0  0  0
    2.1737    0.2372    0.0000 C   0  0  0  0  0  0  0  0  0
    2.6385    0.9188    0.0000 O   0  0  0  0  0  0  0  0  0
    3.4612    0.8572    0.0000 C   0  0  0  0  0  0  0  0  0
    3.9259    1.5388    0.0000 C   0  0  0  0  0  0  0  0  0
    4.7486    1.4772    0.0000 C   0  0  0  0  0  0  0  0  0
    5.1065    0.7339    0.0000 C   0  0  0  0  0  0  0  0  0
    4.6418    0.0522    0.0000 C   0  0  0  0  0  0  0  0  0
    3.8191    0.1139    0.0000 C   0  0  0  0  0  0  0  0  0
    3.3544   -0.5678    0.0000 C   0  0  0  0  0  0  0  0  0
    3.7123   -1.3111    0.0000 N   0  0  0  0  0  0  0  0  0
    3.2476   -1.9927    0.0000 C   0  0  0  0  0  0  0  0  0
    5.9292    0.6722    0.0000 C   0  0  0  0  0  0  0  0  0
    6.3940    1.3539    0.0000 O   0  0  0  0  0  0  0  0  0
    6.2872   -0.0711    0.0000 N   0  0  0  0  0  0  0  0  0
    7.1122   -0.0711    0.0000 C   0  0  0  0  0  0  0  0  0
    7.6266   -0.7161    0.0000 C   0  0  0  0  0  0  0  0  0
    7.4430   -1.5204    0.0000 C   0  0  0  0  0  0  0  0  0
    6.6997   -1.8784    0.0000 N   0  0  0  0  0  0  0  0  0
    5.9564   -1.5204    0.0000 C   0  0  0  0  0  0  0  0  0
    5.7728   -0.7161    0.0000 C   0  0  0  0  0  0  0  0  0
    6.6997   -2.7034    0.0000 C   0  0  0  0  0  0  0  0  0
    7.1122   -3.4178    0.0000 C   0  0  0  0  0  0  0  0  0
    6.2872   -3.4178    0.0000 C   0  0  0  0  0  0  0  0  0
    2.5317   -0.5061    0.0000 C   0  0  0  0  0  0  0  0  0
    2.0669   -1.1878    0.0000 C   0  0  0  0  0  0  0  0  0
    1.2442   -1.1261    0.0000 C   0  0  0  0  0  0  0  0  0
    0.7795   -1.8078    0.0000 Cl  0  0  0  0  0  0  0  0  0
  1  2  1  0  0  0  0
  2  3  4  0  0  0  0
  2 29  4  0  0  0  0
  3  4  4  0  0  0  0
  4  5  1  0  0  0  0
  4 27  4  0  0  0  0
  5  6  1  0  0  0  0
  6  7  4  0  0  0  0
  6 11  4  0  0  0  0
  7  8  4  0  0  0  0
  8  9  4  0  0  0  0
  9 10  4  0  0  0  0
  9 15  1  0  0  0  0
 10 11  4  0  0  0  0
 11 12  1  0  0  0  0
 12 13  1  0  0  0  0
 13 14  1  0  0  0  0
 15 16  2  0  0  0  0
 15 17  1  0  0  0  0
 17 18  1  0  0  0  0
 17 23  1  0  0  0  0
 18 19  1  0  0  0  0
 19 20  1  0  0  0  0
 20 21  1  0  0  0  0
 21 22  1  0  0  0  0
 21 24  1  0  0  0  0
 22 23  1  0  0  0  0
 24 25  1  0  0  0  0
 24 26  1  0  0  0  0
 25 26  1  0  0  0  0
 27 28  4  0  0  0  0
 28 29  4  0  0  0  0
 29 30  1  0  0  0  0
M  END
>  <Name_Molregno>
437760

>  <Dopamine transporter>
6.48

>  <HISTAMINE H3>
8.74

>  <Norepinephrine transporter>
6.85

>  <Serotonin transporter>
8.05

$$$$
437761
  Marvin  02231216192D 0   1.00000     0.00000     0

 29 32  0  0  0  0  0  0  0  0999 V2000
   -3.9184    2.7229    0.0000 Cl  0  0  0  0  0  0  0  0  0
   -3.5605    1.9796    0.0000 C   0  0  0  0  0  0  0  0  0
   -2.7378    1.9179    0.0000 C   0  0  0  0  0  0  0  0  0
   -2.3798    1.1746    0.0000 C   0  0  0  0  0  0  0  0  0
   -2.8445    0.4930    0.0000 C   0  0  0  0  0  0  0  0  0
   -2.4866   -0.2503    0.0000 O   0  0  0  0  0  0  0  0  0
   -2.9513   -0.9320    0.0000 C   0  0  0  0  0  0  0  0  0
   -2.5934   -1.6753    0.0000 C   0  0  0  0  0  0  0  0  0
   -3.0581   -2.3569    0.0000 C   0  0  0  0  0  0  0  0  0
   -3.8808   -2.2953    0.0000 C   0  0  0  0  0  0  0  0  0
   -4.2388   -1.5520    0.0000 C   0  0  0  0  0  0  0  0  0
   -3.7740   -0.8703    0.0000 C   0  0  0  0  0  0  0  0  0
   -4.1320   -0.1270    0.0000 C   0  0  0  0  0  0  0  0  0
   -4.9547   -0.0654    0.0000 N   0  0  0  0  0  0  0  0  0
   -5.3126    0.6779    0.0000 C   0  0  0  0  0  0  0  0  0
   -4.3456   -2.9769    0.0000 C   0  0  0  0  0  0  0  0  0
   -5.1682   -2.9152    0.0000 O   0  0  0  0  0  0  0  0  0
   -3.9876   -3.7202    0.0000 N   0  0  0  0  0  0  0  0  0
   -3.1626   -3.7202    0.0000 C   0  0  0  0  0  0  0  0  0
   -2.6482   -4.3652    0.0000 C   0  0  0  0  0  0  0  0  0
   -2.8318   -5.1695    0.0000 C   0  0  0  0  0  0  0  0  0
   -3.5751   -5.5275    0.0000 N   0  0  0  0  0  0  0  0  0
   -4.3184   -5.1695    0.0000 C   0  0  0  0  0  0  0  0  0
   -4.5020   -4.3652    0.0000 C   0  0  0  0  0  0  0  0  0
   -3.5751   -6.3525    0.0000 C   0  0  0  0  0  0  0  0  0
   -3.1626   -7.0669    0.0000 C   0  0  0  0  0  0  0  0  0
   -3.9876   -7.0669    0.0000 C   0  0  0  0  0  0  0  0  0
   -3.6672    0.5546    0.0000 C   0  0  0  0  0  0  0  0  0
   -4.0252    1.2979    0.0000 C   0  0  0  0  0  0  0  0  0
  1  2  1  0  0  0  0
  2  3  4  0  0  0  0
  2 29  4  0  0  0  0
  3  4  4  0  0  0  0
  4  5  4  0  0  0  0
  5  6  1  0  0  0  0
  5 28  4  0  0  0  0
  6  7  1  0  0  0  0
  7  8  4  0  0  0  0
  7 12  4  0  0  0  0
  8  9  4  0  0  0  0
  9 10  4  0  0  0  0
 10 11  4  0  0  0  0
 10 16  1  0  0  0  0
 11 12  4  0  0  0  0
 12 13  1  0  0  0  0
 13 14  1  0  0  0  0
 14 15  1  0  0  0  0
 16 17  2  0  0  0  0
 16 18  1  0  0  0  0
 18 19  1  0  0  0  0
 18 24  1  0  0  0  0
 19 20  1  0  0  0  0
 20 21  1  0  0  0  0
 21 22  1  0  0  0  0
 22 23  1  0  0  0  0
 22 25  1  0  0  0  0
 23 24  1  0  0  0  0
 25 26  1  0  0  0  0
 25 27  1  0  0  0  0
 26 27  1  0  0  0  0
 28 29  4  0  0  0  0
M  END
>  <Name_Molregno>
437761

>  <Dopamine transporter>
6.11

>  <HISTAMINE H3>
8.96

>  <Norepinephrine transporter>
6.95

>  <Serotonin transporter>
8

$$$$
437804
  Marvin  02231216192D 0   1.00000     0.00000     0

 31 34  0  0  0  0  0  0  0  0999 V2000
    3.2010    6.3383    0.0000 S   0  0  0  0  0  0  0  0  0
    2.3783    6.3999    0.0000 C   0  0  0  0  0  0  0  0  0
    3.5590    5.5950    0.0000 C   0  0  0  0  0  0  0  0  0
    4.3816    5.5333    0.0000 C   0  0  0  0  0  0  0  0  0
    4.7396    4.7900    0.0000 C   0  0  0  0  0  0  0  0  0
    4.2749    4.1084    0.0000 C   0  0  0  0  0  0  0  0  0
    4.6328    3.3651    0.0000 O   0  0  0  0  0  0  0  0  0
    4.1681    2.6834    0.0000 C   0  0  0  0  0  0  0  0  0
    4.5260    1.9401    0.0000 C   0  0  0  0  0  0  0  0  0
    4.0613    1.2585    0.0000 C   0  0  0  0  0  0  0  0  0
    3.2386    1.3202    0.0000 C   0  0  0  0  0  0  0  0  0
    2.8806    2.0634    0.0000 C   0  0  0  0  0  0  0  0  0
    3.3454    2.7451    0.0000 C   0  0  0  0  0  0  0  0  0
    2.9874    3.4884    0.0000 C   0  0  0  0  0  0  0  0  0
    2.1647    3.5500    0.0000 N   0  0  0  0  0  0  0  0  0
    1.8068    4.2933    0.0000 C   0  0  0  0  0  0  0  0  0
    2.7739    0.6385    0.0000 C   0  0  0  0  0  0  0  0  0
    1.9512    0.7002    0.0000 O   0  0  0  0  0  0  0  0  0
    3.1318   -0.1048    0.0000 N   0  0  0  0  0  0  0  0  0
    3.9568   -0.1048    0.0000 C   0  0  0  0  0  0  0  0  0
    4.4712   -0.7498    0.0000 C   0  0  0  0  0  0  0  0  0
    4.2876   -1.5541    0.0000 C   0  0  0  0  0  0  0  0  0
    3.5443   -1.9121    0.0000 N   0  0  0  0  0  0  0  0  0
    2.8010   -1.5541    0.0000 C   0  0  0  0  0  0  0  0  0
    2.6174   -0.7498    0.0000 C   0  0  0  0  0  0  0  0  0
    3.5443   -2.7371    0.0000 C   0  0  0  0  0  0  0  0  0
    3.9568   -3.4515    0.0000 C   0  0  0  0  0  0  0  0  0
    3.1318   -3.4515    0.0000 C   0  0  0  0  0  0  0  0  0
    3.4522    4.1700    0.0000 C   0  0  0  0  0  0  0  0  0
    3.0942    4.9133    0.0000 C   0  0  0  0  0  0  0  0  0
    2.2715    4.9750    0.0000 C   0  0  0  0  0  0  0  0  0
  1  2  1  0  0  0  0
  1  3  1  0  0  0  0
  3  4  4  0  0  0  0
  3 30  4  0  0  0  0
  4  5  4  0  0  0  0
  5  6  4  0  0  0  0
  6  7  1  0  0  0  0
  6 29  4  0  0  0  0
  7  8  1  0  0  0  0
  8  9  4  0  0  0  0
  8 13  4  0  0  0  0
  9 10  4  0  0  0  0
 10 11  4  0  0  0  0
 11 12  4  0  0  0  0
 11 17  1  0  0  0  0
 12 13  4  0  0  0  0
 13 14  1  0  0  0  0
 14 15  1  0  0  0  0
 15 16  1  0  0  0  0
 17 18  2  0  0  0  0
 17 19  1  0  0  0  0
 19 20  1  0  0  0  0
 19 25  1  0  0  0  0
 20 21  1  0  0  0  0
 21 22  1  0  0  0  0
 22 23  1  0  0  0  0
 23 24  1  0  0  0  0
 23 26  1  0  0  0  0
 24 25  1  0  0  0  0
 26 27  1  0  0  0  0
 26 28  1  0  0  0  0
 27 28  1  0  0  0  0
 29 30  4  0  0  0  0
 30 31  1  0  0  0  0
M  END
>  <Name_Molregno>
437804

>  <Dopamine transporter>
5.11

>  <HISTAMINE H3>
8.39

>  <Norepinephrine transporter>
5.48

>  <Serotonin transporter>
7.92

$$$$
437806
  Marvin  02231216192D 0   1.00000     0.00000     0

 30 33  0  0  0  0  0  0  0  0999 V2000
   -3.7208    2.6070    0.0000 S   0  0  0  0  0  0  0  0  0
   -4.5435    2.6686    0.0000 C   0  0  0  0  0  0  0  0  0
   -3.3629    1.8637    0.0000 C   0  0  0  0  0  0  0  0  0
   -2.5402    1.8020    0.0000 C   0  0  0  0  0  0  0  0  0
   -2.1822    1.0587    0.0000 C   0  0  0  0  0  0  0  0  0
   -2.6470    0.3771    0.0000 C   0  0  0  0  0  0  0  0  0
   -2.2890   -0.3662    0.0000 O   0  0  0  0  0  0  0  0  0
   -2.7538   -1.0478    0.0000 C   0  0  0  0  0  0  0  0  0
   -2.3958   -1.7911    0.0000 C   0  0  0  0  0  0  0  0  0
   -2.8605   -2.4728    0.0000 C   0  0  0  0  0  0  0  0  0
   -3.6832   -2.4111    0.0000 C   0  0  0  0  0  0  0  0  0
   -4.0412   -1.6678    0.0000 C   0  0  0  0  0  0  0  0  0
   -3.5765   -0.9862    0.0000 C   0  0  0  0  0  0  0  0  0
   -3.9344   -0.2429    0.0000 C   0  0  0  0  0  0  0  0  0
   -4.7571   -0.1812    0.0000 N   0  0  0  0  0  0  0  0  0
   -5.1151    0.5621    0.0000 C   0  0  0  0  0  0  0  0  0
   -4.1480   -3.0928    0.0000 C   0  0  0  0  0  0  0  0  0
   -4.9707   -3.0311    0.0000 O   0  0  0  0  0  0  0  0  0
   -3.7900   -3.8361    0.0000 N   0  0  0  0  0  0  0  0  0
   -2.9650   -3.8361    0.0000 C   0  0  0  0  0  0  0  0  0
   -2.4506   -4.4811    0.0000 C   0  0  0  0  0  0  0  0  0
   -2.6342   -5.2854    0.0000 C   0  0  0  0  0  0  0  0  0
   -3.3775   -5.6434    0.0000 N   0  0  0  0  0  0  0  0  0
   -4.1208   -5.2854    0.0000 C   0  0  0  0  0  0  0  0  0
   -4.3044   -4.4811    0.0000 C   0  0  0  0  0  0  0  0  0
   -3.3775   -6.4684    0.0000 C   0  0  0  0  0  0  0  0  0
   -2.9650   -7.1828    0.0000 C   0  0  0  0  0  0  0  0  0
   -3.7900   -7.1828    0.0000 C   0  0  0  0  0  0  0  0  0
   -3.4697    0.4388    0.0000 C   0  0  0  0  0  0  0  0  0
   -3.8276    1.1821    0.0000 C   0  0  0  0  0  0  0  0  0
  1  2  1  0  0  0  0
  1  3  1  0  0  0  0
  3  4  4  0  0  0  0
  3 30  4  0  0  0  0
  4  5  4  0  0  0  0
  5  6  4  0  0  0  0
  6  7  1  0  0  0  0
  6 29  4  0  0  0  0
  7  8  1  0  0  0  0
  8  9  4  0  0  0  0
  8 13  4  0  0  0  0
  9 10  4  0  0  0  0
 10 11  4  0  0  0  0
 11 12  4  0  0  0  0
 11 17  1  0  0  0  0
 12 13  4  0  0  0  0
 13 14  1  0  0  0  0
 14 15  1  0  0  0  0
 15 16  1  0  0  0  0
 17 18  2  0  0  0  0
 17 19  1  0  0  0  0
 19 20  1  0  0  0  0
 19 25  1  0  0  0  0
 20 21  1  0  0  0  0
 21 22  1  0  0  0  0
 22 23  1  0  0  0  0
 23 24  1  0  0  0  0
 23 26  1  0  0  0  0
 24 25  1  0  0  0  0
 26 27  1  0  0  0  0
 26 28  1  0  0  0  0
 27 28  1  0  0  0  0
 29 30  4  0  0  0  0
M  END
>  <Name_Molregno>
437806

>  <HISTAMINE H3>
8.85

>  <Serotonin transporter>
8.54

$$$$
438077
  Marvin  02231216192D 0   1.00000     0.00000     0

 33 36  0  0  0  0  0  0  0  0999 V2000
    7.3151    4.6276    0.0000 F   0  0  0  0  0  0  0  0  0
    6.8504    3.9460    0.0000 C   0  0  0  0  0  0  0  0  0
    7.5320    3.4813    0.0000 F   0  0  0  0  0  0  0  0  0
    6.1687    4.4107    0.0000 F   0  0  0  0  0  0  0  0  0
    6.3856    3.2643    0.0000 O   0  0  0  0  0  0  0  0  0
    5.5630    3.3260    0.0000 C   0  0  0  0  0  0  0  0  0
    5.2050    4.0693    0.0000 C   0  0  0  0  0  0  0  0  0
    4.3823    4.1309    0.0000 C   0  0  0  0  0  0  0  0  0
    3.9176    3.4493    0.0000 C   0  0  0  0  0  0  0  0  0
    4.2755    2.7060    0.0000 C   0  0  0  0  0  0  0  0  0
    5.0982    2.6443    0.0000 C   0  0  0  0  0  0  0  0  0
    5.4562    1.9011    0.0000 O   0  0  0  0  0  0  0  0  0
    4.9914    1.2194    0.0000 C   0  0  0  0  0  0  0  0  0
    5.3494    0.4761    0.0000 C   0  0  0  0  0  0  0  0  0
    4.8846   -0.2055    0.0000 C   0  0  0  0  0  0  0  0  0
    4.0619   -0.1439    0.0000 C   0  0  0  0  0  0  0  0  0
    3.7040    0.5994    0.0000 C   0  0  0  0  0  0  0  0  0
    4.1687    1.2811    0.0000 C   0  0  0  0  0  0  0  0  0
    3.8108    2.0244    0.0000 C   0  0  0  0  0  0  0  0  0
    2.9881    2.0860    0.0000 N   0  0  0  0  0  0  0  0  0
    2.6301    2.8293    0.0000 C   0  0  0  0  0  0  0  0  0
    3.5972   -0.8255    0.0000 C   0  0  0  0  0  0  0  0  0
    2.7745   -0.7639    0.0000 O   0  0  0  0  0  0  0  0  0
    3.9552   -1.5688    0.0000 N   0  0  0  0  0  0  0  0  0
    4.7802   -1.5688    0.0000 C   0  0  0  0  0  0  0  0  0
    5.2945   -2.2138    0.0000 C   0  0  0  0  0  0  0  0  0
    5.1110   -3.0182    0.0000 C   0  0  0  0  0  0  0  0  0
    4.3677   -3.3761    0.0000 N   0  0  0  0  0  0  0  0  0
    3.6244   -3.0182    0.0000 C   0  0  0  0  0  0  0  0  0
    3.4408   -2.2138    0.0000 C   0  0  0  0  0  0  0  0  0
    4.3677   -4.2011    0.0000 C   0  0  0  0  0  0  0  0  0
    4.7802   -4.9156    0.0000 C   0  0  0  0  0  0  0  0  0
    3.9552   -4.9156    0.0000 C   0  0  0  0  0  0  0  0  0
  1  2  1  0  0  0  0
  2  3  1  0  0  0  0
  2  4  1  0  0  0  0
  2  5  1  0  0  0  0
  5  6  1  0  0  0  0
  6  7  4  0  0  0  0
  6 11  4  0  0  0  0
  7  8  4  0  0  0  0
  8  9  4  0  0  0  0
  9 10  4  0  0  0  0
 10 11  4  0  0  0  0
 11 12  1  0  0  0  0
 12 13  1  0  0  0  0
 13 14  4  0  0  0  0
 13 18  4  0  0  0  0
 14 15  4  0  0  0  0
 15 16  4  0  0  0  0
 16 17  4  0  0  0  0
 16 22  1  0  0  0  0
 17 18  4  0  0  0  0
 18 19  1  0  0  0  0
 19 20  1  0  0  0  0
 20 21  1  0  0  0  0
 22 23  2  0  0  0  0
 22 24  1  0  0  0  0
 24 25  1  0  0  0  0
 24 30  1  0  0  0  0
 25 26  1  0  0  0  0
 26 27  1  0  0  0  0
 27 28  1  0  0  0  0
 28 29  1  0  0  0  0
 28 31  1  0  0  0  0
 29 30  1  0  0  0  0
 31 32  1  0  0  0  0
 31 33  1  0  0  0  0
 32 33  1  0  0  0  0
M  END
>  <Name_Molregno>
438077

>  <HISTAMINE H3>
8.68

>  <Serotonin transporter>
6.15

$$$$
438078
  Marvin  02231216192D 0   1.00000     0.00000     0

 33 36  0  0  0  0  0  0  0  0999 V2000
   -3.1891    2.3696    0.0000 S   0  0  0  0  0  0  0  0  0
   -4.0118    2.4312    0.0000 C   0  0  0  0  0  0  0  0  0
   -4.8345    2.4929    0.0000 F   0  0  0  0  0  0  0  0  0
   -4.0735    1.6085    0.0000 F   0  0  0  0  0  0  0  0  0
   -3.9502    3.2539    0.0000 F   0  0  0  0  0  0  0  0  0
   -2.8312    1.6263    0.0000 C   0  0  0  0  0  0  0  0  0
   -2.0085    1.5646    0.0000 C   0  0  0  0  0  0  0  0  0
   -1.6505    0.8213    0.0000 C   0  0  0  0  0  0  0  0  0
   -2.1153    0.1397    0.0000 C   0  0  0  0  0  0  0  0  0
   -1.7573   -0.6036    0.0000 O   0  0  0  0  0  0  0  0  0
   -2.2221   -1.2853    0.0000 C   0  0  0  0  0  0  0  0  0
   -1.8641   -2.0286    0.0000 C   0  0  0  0  0  0  0  0  0
   -2.3289   -2.7102    0.0000 C   0  0  0  0  0  0  0  0  0
   -3.1515   -2.6486    0.0000 C   0  0  0  0  0  0  0  0  0
   -3.5095   -1.9053    0.0000 C   0  0  0  0  0  0  0  0  0
   -3.0448   -1.2236    0.0000 C   0  0  0  0  0  0  0  0  0
   -3.4027   -0.4803    0.0000 C   0  0  0  0  0  0  0  0  0
   -4.2254   -0.4187    0.0000 N   0  0  0  0  0  0  0  0  0
   -4.5834    0.3246    0.0000 C   0  0  0  0  0  0  0  0  0
   -3.6163   -3.3302    0.0000 C   0  0  0  0  0  0  0  0  0
   -4.4390   -3.2686    0.0000 O   0  0  0  0  0  0  0  0  0
   -3.2583   -4.0735    0.0000 N   0  0  0  0  0  0  0  0  0
   -2.4333   -4.0735    0.0000 C   0  0  0  0  0  0  0  0  0
   -1.9190   -4.7185    0.0000 C   0  0  0  0  0  0  0  0  0
   -2.1025   -5.5229    0.0000 C   0  0  0  0  0  0  0  0  0
   -2.8458   -5.8808    0.0000 N   0  0  0  0  0  0  0  0  0
   -3.5891   -5.5229    0.0000 C   0  0  0  0  0  0  0  0  0
   -3.7727   -4.7185    0.0000 C   0  0  0  0  0  0  0  0  0
   -2.8458   -6.7058    0.0000 C   0  0  0  0  0  0  0  0  0
   -2.4333   -7.4203    0.0000 C   0  0  0  0  0  0  0  0  0
   -3.2583   -7.4203    0.0000 C   0  0  0  0  0  0  0  0  0
   -2.9380    0.2013    0.0000 C   0  0  0  0  0  0  0  0  0
   -3.2959    0.9446    0.0000 C   0  0  0  0  0  0  0  0  0
  1  2  1  0  0  0  0
  1  6  1  0  0  0  0
  2  3  1  0  0  0  0
  2  4  1  0  0  0  0
  2  5  1  0  0  0  0
  6  7  4  0  0  0  0
  6 33  4  0  0  0  0
  7  8  4  0  0  0  0
  8  9  4  0  0  0  0
  9 10  1  0  0  0  0
  9 32  4  0  0  0  0
 10 11  1  0  0  0  0
 11 12  4  0  0  0  0
 11 16  4  0  0  0  0
 12 13  4  0  0  0  0
 13 14  4  0  0  0  0
 14 15  4  0  0  0  0
 14 20  1  0  0  0  0
 15 16  4  0  0  0  0
 16 17  1  0  0  0  0
 17 18  1  0  0  0  0
 18 19  1  0  0  0  0
 20 21  2  0  0  0  0
 20 22  1  0  0  0  0
 22 23  1  0  0  0  0
 22 28  1  0  0  0  0
 23 24  1  0  0  0  0
 24 25  1  0  0  0  0
 25 26  1  0  0  0  0
 26 27  1  0  0  0  0
 26 29  1  0  0  0  0
 27 28  1  0  0  0  0
 29 30  1  0  0  0  0
 29 31  1  0  0  0  0
 30 31  1  0  0  0  0
 32 33  4  0  0  0  0
M  END
>  <Name_Molregno>
438078

>  <HISTAMINE H3>
8.26

>  <Serotonin transporter>
7.02

$$$$
438126
  Marvin  02231216192D 0   1.00000     0.00000     0

 30 33  0  0  0  0  0  0  0  0999 V2000
    0.1524   -0.3250    0.0000 O   0  0  0  0  0  0  0  0  0
    0.9751   -0.3867    0.0000 C   0  0  0  0  0  0  0  0  0
    1.4398    0.2950    0.0000 C   0  0  0  0  0  0  0  0  0
    2.2625    0.2333    0.0000 C   0  0  0  0  0  0  0  0  0
    2.6205   -0.5100    0.0000 C   0  0  0  0  0  0  0  0  0
    2.1557   -1.1916    0.0000 C   0  0  0  0  0  0  0  0  0
    1.3331   -1.1300    0.0000 C   0  0  0  0  0  0  0  0  0
    0.8683   -1.8116    0.0000 C   0  0  0  0  0  0  0  0  0
    1.2263   -2.5549    0.0000 N   0  0  0  0  0  0  0  0  0
    0.7615   -3.2366    0.0000 C   0  0  0  0  0  0  0  0  0
    3.4432   -0.5716    0.0000 C   0  0  0  0  0  0  0  0  0
    3.9079    0.1100    0.0000 O   0  0  0  0  0  0  0  0  0
    3.8011   -1.3149    0.0000 N   0  0  0  0  0  0  0  0  0
    4.6261   -1.3149    0.0000 C   0  0  0  0  0  0  0  0  0
    5.1405   -1.9599    0.0000 C   0  0  0  0  0  0  0  0  0
    4.9569   -2.7643    0.0000 C   0  0  0  0  0  0  0  0  0
    4.2136   -3.1222    0.0000 N   0  0  0  0  0  0  0  0  0
    3.4703   -2.7643    0.0000 C   0  0  0  0  0  0  0  0  0
    3.2868   -1.9599    0.0000 C   0  0  0  0  0  0  0  0  0
    4.2136   -3.9472    0.0000 C   0  0  0  0  0  0  0  0  0
    4.6261   -4.6617    0.0000 C   0  0  0  0  0  0  0  0  0
    3.8011   -4.6617    0.0000 C   0  0  0  0  0  0  0  0  0
   -0.2055    0.4183    0.0000 C   0  0  0  0  0  0  0  0  0
   -1.0282    0.4799    0.0000 C   0  0  0  0  0  0  0  0  0
   -1.3862    1.2232    0.0000 C   0  0  0  0  0  0  0  0  0
   -0.9215    1.9049    0.0000 C   0  0  0  0  0  0  0  0  0
   -0.0988    1.8432    0.0000 C   0  0  0  0  0  0  0  0  0
    0.2592    1.0999    0.0000 C   0  0  0  0  0  0  0  0  0
   -1.2794    2.6482    0.0000 C   0  0  0  0  0  0  0  0  0
   -1.6374    3.3915    0.0000 N   0  0  0  0  0  0  0  0  0
  1  2  1  0  0  0  0
  1 23  1  0  0  0  0
  2  3  4  0  0  0  0
  2  7  4  0  0  0  0
  3  4  4  0  0  0  0
  4  5  4  0  0  0  0
  5  6  4  0  0  0  0
  5 11  1  0  0  0  0
  6  7  4  0  0  0  0
  7  8  1  0  0  0  0
  8  9  1  0  0  0  0
  9 10  1  0  0  0  0
 11 12  2  0  0  0  0
 11 13  1  0  0  0  0
 13 14  1  0  0  0  0
 13 19  1  0  0  0  0
 14 15  1  0  0  0  0
 15 16  1  0  0  0  0
 16 17  1  0  0  0  0
 17 18  1  0  0  0  0
 17 20  1  0  0  0  0
 18 19  1  0  0  0  0
 20 21  1  0  0  0  0
 20 22  1  0  0  0  0
 21 22  1  0  0  0  0
 23 24  4  0  0  0  0
 23 28  4  0  0  0  0
 24 25  4  0  0  0  0
 25 26  4  0  0  0  0
 26 27  4  0  0  0  0
 26 29  1  0  0  0  0
 27 28  4  0  0  0  0
 29 30  3  0  0  0  0
M  END
>  <Name_Molregno>
438126

>  <HISTAMINE H3>
8.96

>  <Serotonin transporter>
7.03

$$$$
438128
  Marvin  02231216192D 0   1.00000     0.00000     0

 30 33  0  0  0  0  0  0  0  0999 V2000
   -0.0418    0.0460    0.0000 O   0  0  0  0  0  0  0  0  0
    0.7809   -0.0156    0.0000 C   0  0  0  0  0  0  0  0  0
    1.2456    0.6660    0.0000 C   0  0  0  0  0  0  0  0  0
    2.0683    0.6044    0.0000 C   0  0  0  0  0  0  0  0  0
    2.4263   -0.1389    0.0000 C   0  0  0  0  0  0  0  0  0
    1.9615   -0.8206    0.0000 C   0  0  0  0  0  0  0  0  0
    1.1388   -0.7589    0.0000 C   0  0  0  0  0  0  0  0  0
    0.6741   -1.4406    0.0000 C   0  0  0  0  0  0  0  0  0
    1.0321   -2.1839    0.0000 N   0  0  0  0  0  0  0  0  0
    0.5673   -2.8655    0.0000 C   0  0  0  0  0  0  0  0  0
    3.2490   -0.2006    0.0000 C   0  0  0  0  0  0  0  0  0
    3.7137    0.4811    0.0000 O   0  0  0  0  0  0  0  0  0
    3.6069   -0.9439    0.0000 N   0  0  0  0  0  0  0  0  0
    4.4319   -0.9439    0.0000 C   0  0  0  0  0  0  0  0  0
    4.9463   -1.5889    0.0000 C   0  0  0  0  0  0  0  0  0
    4.7627   -2.3932    0.0000 C   0  0  0  0  0  0  0  0  0
    4.0194   -2.7512    0.0000 N   0  0  0  0  0  0  0  0  0
    3.2761   -2.3932    0.0000 C   0  0  0  0  0  0  0  0  0
    3.0925   -1.5889    0.0000 C   0  0  0  0  0  0  0  0  0
    4.0194   -3.5762    0.0000 C   0  0  0  0  0  0  0  0  0
    4.4319   -4.2906    0.0000 C   0  0  0  0  0  0  0  0  0
    3.6069   -4.2906    0.0000 C   0  0  0  0  0  0  0  0  0
   -0.3998    0.7893    0.0000 C   0  0  0  0  0  0  0  0  0
   -1.2225    0.8510    0.0000 C   0  0  0  0  0  0  0  0  0
   -1.5804    1.5943    0.0000 C   0  0  0  0  0  0  0  0  0
   -1.1157    2.2759    0.0000 C   0  0  0  0  0  0  0  0  0
   -0.2930    2.2143    0.0000 C   0  0  0  0  0  0  0  0  0
    0.0650    1.4710    0.0000 C   0  0  0  0  0  0  0  0  0
    0.8877    1.4093    0.0000 C   0  0  0  0  0  0  0  0  0
    1.7104    1.3477    0.0000 N   0  0  0  0  0  0  0  0  0
  1  2  1  0  0  0  0
  1 23  1  0  0  0  0
  2  3  4  0  0  0  0
  2  7  4  0  0  0  0
  3  4  4  0  0  0  0
  4  5  4  0  0  0  0
  5  6  4  0  0  0  0
  5 11  1  0  0  0  0
  6  7  4  0  0  0  0
  7  8  1  0  0  0  0
  8  9  1  0  0  0  0
  9 10  1  0  0  0  0
 11 12  2  0  0  0  0
 11 13  1  0  0  0  0
 13 14  1  0  0  0  0
 13 19  1  0  0  0  0
 14 15  1  0  0  0  0
 15 16  1  0  0  0  0
 16 17  1  0  0  0  0
 17 18  1  0  0  0  0
 17 20  1  0  0  0  0
 18 19  1  0  0  0  0
 20 21  1  0  0  0  0
 20 22  1  0  0  0  0
 21 22  1  0  0  0  0
 23 24  4  0  0  0  0
 23 28  4  0  0  0  0
 24 25  4  0  0  0  0
 25 26  4  0  0  0  0
 26 27  4  0  0  0  0
 27 28  4  0  0  0  0
 28 29  1  0  0  0  0
 29 30  3  0  0  0  0
M  END
>  <Name_Molregno>
438128

>  <HISTAMINE H3>
9

>  <Serotonin transporter>
6.1

$$$$
438129
  Marvin  02231216192D 0   1.00000     0.00000     0

 30 33  0  0  0  0  0  0  0  0999 V2000
    0.1652   -0.0908    0.0000 O   0  0  0  0  0  0  0  0  0
    0.9879   -0.1524    0.0000 C   0  0  0  0  0  0  0  0  0
    1.4526    0.5292    0.0000 C   0  0  0  0  0  0  0  0  0
    2.2753    0.4676    0.0000 C   0  0  0  0  0  0  0  0  0
    2.6332   -0.2757    0.0000 C   0  0  0  0  0  0  0  0  0
    2.1685   -0.9574    0.0000 C   0  0  0  0  0  0  0  0  0
    1.3458   -0.8957    0.0000 C   0  0  0  0  0  0  0  0  0
    0.8811   -1.5774    0.0000 C   0  0  0  0  0  0  0  0  0
    1.2390   -2.3207    0.0000 N   0  0  0  0  0  0  0  0  0
    0.7743   -3.0023    0.0000 C   0  0  0  0  0  0  0  0  0
    3.4559   -0.3374    0.0000 C   0  0  0  0  0  0  0  0  0
    3.9207    0.3443    0.0000 O   0  0  0  0  0  0  0  0  0
    3.8139   -1.0807    0.0000 N   0  0  0  0  0  0  0  0  0
    4.6389   -1.0807    0.0000 C   0  0  0  0  0  0  0  0  0
    5.1533   -1.7257    0.0000 C   0  0  0  0  0  0  0  0  0
    4.9697   -2.5300    0.0000 C   0  0  0  0  0  0  0  0  0
    4.2264   -2.8880    0.0000 N   0  0  0  0  0  0  0  0  0
    3.4831   -2.5300    0.0000 C   0  0  0  0  0  0  0  0  0
    3.2995   -1.7257    0.0000 C   0  0  0  0  0  0  0  0  0
    4.2264   -3.7130    0.0000 C   0  0  0  0  0  0  0  0  0
    4.6389   -4.4274    0.0000 C   0  0  0  0  0  0  0  0  0
    3.8139   -4.4274    0.0000 C   0  0  0  0  0  0  0  0  0
   -0.1928    0.6525    0.0000 C   0  0  0  0  0  0  0  0  0
   -1.0155    0.7142    0.0000 C   0  0  0  0  0  0  0  0  0
   -1.3734    1.4575    0.0000 C   0  0  0  0  0  0  0  0  0
   -0.9087    2.1391    0.0000 C   0  0  0  0  0  0  0  0  0
   -0.0860    2.0775    0.0000 C   0  0  0  0  0  0  0  0  0
    0.2720    1.3342    0.0000 C   0  0  0  0  0  0  0  0  0
   -2.1961    1.5191    0.0000 C   0  0  0  0  0  0  0  0  0
   -3.0188    1.5808    0.0000 N   0  0  0  0  0  0  0  0  0
  1  2  1  0  0  0  0
  1 23  1  0  0  0  0
  2  3  4  0  0  0  0
  2  7  4  0  0  0  0
  3  4  4  0  0  0  0
  4  5  4  0  0  0  0
  5  6  4  0  0  0  0
  5 11  1  0  0  0  0
  6  7  4  0  0  0  0
  7  8  1  0  0  0  0
  8  9  1  0  0  0  0
  9 10  1  0  0  0  0
 11 12  2  0  0  0  0
 11 13  1  0  0  0  0
 13 14  1  0  0  0  0
 13 19  1  0  0  0  0
 14 15  1  0  0  0  0
 15 16  1  0  0  0  0
 16 17  1  0  0  0  0
 17 18  1  0  0  0  0
 17 20  1  0  0  0  0
 18 19  1  0  0  0  0
 20 21  1  0  0  0  0
 20 22  1  0  0  0  0
 21 22  1  0  0  0  0
 23 24  4  0  0  0  0
 23 28  4  0  0  0  0
 24 25  4  0  0  0  0
 25 26  4  0  0  0  0
 25 29  1  0  0  0  0
 26 27  4  0  0  0  0
 27 28  4  0  0  0  0
 29 30  3  0  0  0  0
M  END
>  <Name_Molregno>
438129

>  <HISTAMINE H3>
9.15

>  <Serotonin transporter>
6.91

$$$$
438178
  Marvin  02231216192D 0   1.00000     0.00000     0

 30 33  0  0  0  0  0  0  0  0999 V2000
   -3.8734    2.6049    0.0000 Cl  0  0  0  0  0  0  0  0  0
   -3.5155    1.8616    0.0000 C   0  0  0  0  0  0  0  0  0
   -2.6928    1.7999    0.0000 C   0  0  0  0  0  0  0  0  0
   -2.3348    1.0566    0.0000 C   0  0  0  0  0  0  0  0  0
   -1.5121    0.9950    0.0000 F   0  0  0  0  0  0  0  0  0
   -2.7996    0.3750    0.0000 C   0  0  0  0  0  0  0  0  0
   -2.4416   -0.3683    0.0000 O   0  0  0  0  0  0  0  0  0
   -2.9064   -1.0500    0.0000 C   0  0  0  0  0  0  0  0  0
   -2.5484   -1.7933    0.0000 C   0  0  0  0  0  0  0  0  0
   -3.0131   -2.4749    0.0000 C   0  0  0  0  0  0  0  0  0
   -3.8358   -2.4133    0.0000 C   0  0  0  0  0  0  0  0  0
   -4.1938   -1.6700    0.0000 C   0  0  0  0  0  0  0  0  0
   -3.7291   -0.9883    0.0000 C   0  0  0  0  0  0  0  0  0
   -4.0870   -0.2450    0.0000 C   0  0  0  0  0  0  0  0  0
   -4.9097   -0.1834    0.0000 N   0  0  0  0  0  0  0  0  0
   -5.2677    0.5599    0.0000 C   0  0  0  0  0  0  0  0  0
   -4.3006   -3.0949    0.0000 C   0  0  0  0  0  0  0  0  0
   -5.1233   -3.0333    0.0000 O   0  0  0  0  0  0  0  0  0
   -3.9426   -3.8382    0.0000 N   0  0  0  0  0  0  0  0  0
   -3.1176   -3.8382    0.0000 C   0  0  0  0  0  0  0  0  0
   -2.6032   -4.4832    0.0000 C   0  0  0  0  0  0  0  0  0
   -2.7868   -5.2875    0.0000 C   0  0  0  0  0  0  0  0  0
   -3.5301   -5.6455    0.0000 N   0  0  0  0  0  0  0  0  0
   -4.2734   -5.2875    0.0000 C   0  0  0  0  0  0  0  0  0
   -4.4570   -4.4832    0.0000 C   0  0  0  0  0  0  0  0  0
   -3.5301   -6.4705    0.0000 C   0  0  0  0  0  0  0  0  0
   -3.1176   -7.1850    0.0000 C   0  0  0  0  0  0  0  0  0
   -3.9426   -7.1850    0.0000 C   0  0  0  0  0  0  0  0  0
   -3.6223    0.4366    0.0000 C   0  0  0  0  0  0  0  0  0
   -3.9802    1.1799    0.0000 C   0  0  0  0  0  0  0  0  0
  1  2  1  0  0  0  0
  2  3  4  0  0  0  0
  2 30  4  0  0  0  0
  3  4  4  0  0  0  0
  4  5  1  0  0  0  0
  4  6  4  0  0  0  0
  6  7  1  0  0  0  0
  6 29  4  0  0  0  0
  7  8  1  0  0  0  0
  8  9  4  0  0  0  0
  8 13  4  0  0  0  0
  9 10  4  0  0  0  0
 10 11  4  0  0  0  0
 11 12  4  0  0  0  0
 11 17  1  0  0  0  0
 12 13  4  0  0  0  0
 13 14  1  0  0  0  0
 14 15  1  0  0  0  0
 15 16  1  0  0  0  0
 17 18  2  0  0  0  0
 17 19  1  0  0  0  0
 19 20  1  0  0  0  0
 19 25  1  0  0  0  0
 20 21  1  0  0  0  0
 21 22  1  0  0  0  0
 22 23  1  0  0  0  0
 23 24  1  0  0  0  0
 23 26  1  0  0  0  0
 24 25  1  0  0  0  0
 26 27  1  0  0  0  0
 26 28  1  0  0  0  0
 27 28  1  0  0  0  0
 29 30  4  0  0  0  0
M  END
>  <Name_Molregno>
438178

>  <HISTAMINE H3>
8.85

>  <Serotonin transporter>
7.39

$$$$
438179
  Marvin  02231216192D 0   1.00000     0.00000     0

 32 35  0  0  0  0  0  0  0  0999 V2000
    3.3657    6.4560    0.0000 F   0  0  0  0  0  0  0  0  0
    3.7237    5.7127    0.0000 C   0  0  0  0  0  0  0  0  0
    2.9804    5.3548    0.0000 F   0  0  0  0  0  0  0  0  0
    4.4670    6.0707    0.0000 F   0  0  0  0  0  0  0  0  0
    4.0816    4.9694    0.0000 C   0  0  0  0  0  0  0  0  0
    4.9043    4.9078    0.0000 C   0  0  0  0  0  0  0  0  0
    5.2623    4.1645    0.0000 C   0  0  0  0  0  0  0  0  0
    4.7976    3.4828    0.0000 C   0  0  0  0  0  0  0  0  0
    5.1555    2.7395    0.0000 O   0  0  0  0  0  0  0  0  0
    4.6908    2.0579    0.0000 C   0  0  0  0  0  0  0  0  0
    5.0487    1.3146    0.0000 C   0  0  0  0  0  0  0  0  0
    4.5840    0.6330    0.0000 C   0  0  0  0  0  0  0  0  0
    3.7613    0.6946    0.0000 C   0  0  0  0  0  0  0  0  0
    3.4033    1.4379    0.0000 C   0  0  0  0  0  0  0  0  0
    3.8681    2.1196    0.0000 C   0  0  0  0  0  0  0  0  0
    3.5101    2.8629    0.0000 C   0  0  0  0  0  0  0  0  0
    2.6874    2.9245    0.0000 N   0  0  0  0  0  0  0  0  0
    2.3295    3.6678    0.0000 C   0  0  0  0  0  0  0  0  0
    3.2966    0.0130    0.0000 C   0  0  0  0  0  0  0  0  0
    2.4739    0.0746    0.0000 O   0  0  0  0  0  0  0  0  0
    3.6545   -0.7303    0.0000 N   0  0  0  0  0  0  0  0  0
    4.4795   -0.7303    0.0000 C   0  0  0  0  0  0  0  0  0
    4.9939   -1.3753    0.0000 C   0  0  0  0  0  0  0  0  0
    4.8103   -2.1797    0.0000 C   0  0  0  0  0  0  0  0  0
    4.0670   -2.5376    0.0000 N   0  0  0  0  0  0  0  0  0
    3.3237   -2.1797    0.0000 C   0  0  0  0  0  0  0  0  0
    3.1401   -1.3753    0.0000 C   0  0  0  0  0  0  0  0  0
    4.0670   -3.3626    0.0000 C   0  0  0  0  0  0  0  0  0
    4.4795   -4.0771    0.0000 C   0  0  0  0  0  0  0  0  0
    3.6545   -4.0771    0.0000 C   0  0  0  0  0  0  0  0  0
    3.9749    3.5445    0.0000 C   0  0  0  0  0  0  0  0  0
    3.6169    4.2878    0.0000 C   0  0  0  0  0  0  0  0  0
  1  2  1  0  0  0  0
  2  3  1  0  0  0  0
  2  4  1  0  0  0  0
  2  5  1  0  0  0  0
  5  6  4  0  0  0  0
  5 32  4  0  0  0  0
  6  7  4  0  0  0  0
  7  8  4  0  0  0  0
  8  9  1  0  0  0  0
  8 31  4  0  0  0  0
  9 10  1  0  0  0  0
 10 11  4  0  0  0  0
 10 15  4  0  0  0  0
 11 12  4  0  0  0  0
 12 13  4  0  0  0  0
 13 14  4  0  0  0  0
 13 19  1  0  0  0  0
 14 15  4  0  0  0  0
 15 16  1  0  0  0  0
 16 17  1  0  0  0  0
 17 18  1  0  0  0  0
 19 20  2  0  0  0  0
 19 21  1  0  0  0  0
 21 22  1  0  0  0  0
 21 27  1  0  0  0  0
 22 23  1  0  0  0  0
 23 24  1  0  0  0  0
 24 25  1  0  0  0  0
 25 26  1  0  0  0  0
 25 28  1  0  0  0  0
 26 27  1  0  0  0  0
 28 29  1  0  0  0  0
 28 30  1  0  0  0  0
 29 30  1  0  0  0  0
 31 32  4  0  0  0  0
M  END
>  <Name_Molregno>
438179

>  <Dopamine transporter>
5.05

>  <HISTAMINE H3>
8.7

>  <Norepinephrine transporter>
5.24

>  <Serotonin transporter>
7.77

$$$$
438180
  Marvin  02231216192D 0   1.00000     0.00000     0

 30 33  0  0  0  0  0  0  0  0999 V2000
    0.0636   -0.3212    0.0000 Cl  0  0  0  0  0  0  0  0  0
    0.8863   -0.3828    0.0000 C   0  0  0  0  0  0  0  0  0
    1.3510    0.2988    0.0000 C   0  0  0  0  0  0  0  0  0
    2.1737    0.2372    0.0000 C   0  0  0  0  0  0  0  0  0
    2.6385    0.9188    0.0000 O   0  0  0  0  0  0  0  0  0
    3.4612    0.8572    0.0000 C   0  0  0  0  0  0  0  0  0
    3.9259    1.5388    0.0000 C   0  0  0  0  0  0  0  0  0
    4.7486    1.4772    0.0000 C   0  0  0  0  0  0  0  0  0
    5.1065    0.7339    0.0000 C   0  0  0  0  0  0  0  0  0
    4.6418    0.0522    0.0000 C   0  0  0  0  0  0  0  0  0
    3.8191    0.1139    0.0000 C   0  0  0  0  0  0  0  0  0
    3.3544   -0.5678    0.0000 C   0  0  0  0  0  0  0  0  0
    3.7123   -1.3111    0.0000 N   0  0  0  0  0  0  0  0  0
    3.2476   -1.9927    0.0000 C   0  0  0  0  0  0  0  0  0
    5.9292    0.6722    0.0000 C   0  0  0  0  0  0  0  0  0
    6.3940    1.3539    0.0000 O   0  0  0  0  0  0  0  0  0
    6.2872   -0.0711    0.0000 N   0  0  0  0  0  0  0  0  0
    7.1122   -0.0711    0.0000 C   0  0  0  0  0  0  0  0  0
    7.6266   -0.7161    0.0000 C   0  0  0  0  0  0  0  0  0
    7.4430   -1.5204    0.0000 C   0  0  0  0  0  0  0  0  0
    6.6997   -1.8784    0.0000 N   0  0  0  0  0  0  0  0  0
    5.9564   -1.5204    0.0000 C   0  0  0  0  0  0  0  0  0
    5.7728   -0.7161    0.0000 C   0  0  0  0  0  0  0  0  0
    6.6997   -2.7034    0.0000 C   0  0  0  0  0  0  0  0  0
    7.1122   -3.4178    0.0000 C   0  0  0  0  0  0  0  0  0
    6.2872   -3.4178    0.0000 C   0  0  0  0  0  0  0  0  0
    2.5317   -0.5061    0.0000 C   0  0  0  0  0  0  0  0  0
    2.0669   -1.1878    0.0000 C   0  0  0  0  0  0  0  0  0
    1.2442   -1.1261    0.0000 C   0  0  0  0  0  0  0  0  0
    0.7795   -1.8078    0.0000 F   0  0  0  0  0  0  0  0  0
  1  2  1  0  0  0  0
  2  3  4  0  0  0  0
  2 29  4  0  0  0  0
  3  4  4  0  0  0  0
  4  5  1  0  0  0  0
  4 27  4  0  0  0  0
  5  6  1  0  0  0  0
  6  7  4  0  0  0  0
  6 11  4  0  0  0  0
  7  8  4  0  0  0  0
  8  9  4  0  0  0  0
  9 10  4  0  0  0  0
  9 15  1  0  0  0  0
 10 11  4  0  0  0  0
 11 12  1  0  0  0  0
 12 13  1  0  0  0  0
 13 14  1  0  0  0  0
 15 16  2  0  0  0  0
 15 17  1  0  0  0  0
 17 18  1  0  0  0  0
 17 23  1  0  0  0  0
 18 19  1  0  0  0  0
 19 20  1  0  0  0  0
 20 21  1  0  0  0  0
 21 22  1  0  0  0  0
 21 24  1  0  0  0  0
 22 23  1  0  0  0  0
 24 25  1  0  0  0  0
 24 26  1  0  0  0  0
 25 26  1  0  0  0  0
 27 28  4  0  0  0  0
 28 29  4  0  0  0  0
 29 30  1  0  0  0  0
M  END
>  <Name_Molregno>
438180

>  <HISTAMINE H3>
8.82

>  <Serotonin transporter>
7.44

$$$$
438184
  Marvin  02231216192D 0   1.00000     0.00000     0

 32 35  0  0  0  0  0  0  0  0999 V2000
   -0.1357    3.2093    0.0000 F   0  0  0  0  0  0  0  0  0
   -0.9584    3.2709    0.0000 C   0  0  0  0  0  0  0  0  0
   -1.0201    2.4483    0.0000 F   0  0  0  0  0  0  0  0  0
   -0.8968    4.0936    0.0000 F   0  0  0  0  0  0  0  0  0
   -1.7811    3.3326    0.0000 C   0  0  0  0  0  0  0  0  0
   -2.1391    4.0759    0.0000 C   0  0  0  0  0  0  0  0  0
   -2.9618    4.1376    0.0000 C   0  0  0  0  0  0  0  0  0
   -3.4265    3.4559    0.0000 C   0  0  0  0  0  0  0  0  0
   -3.0686    2.7126    0.0000 C   0  0  0  0  0  0  0  0  0
   -2.2459    2.6510    0.0000 C   0  0  0  0  0  0  0  0  0
   -1.8879    1.9077    0.0000 O   0  0  0  0  0  0  0  0  0
   -2.3527    1.2260    0.0000 C   0  0  0  0  0  0  0  0  0
   -1.9947    0.4827    0.0000 C   0  0  0  0  0  0  0  0  0
   -2.4594   -0.1989    0.0000 C   0  0  0  0  0  0  0  0  0
   -3.2821   -0.1373    0.0000 C   0  0  0  0  0  0  0  0  0
   -3.6401    0.6060    0.0000 C   0  0  0  0  0  0  0  0  0
   -3.1753    1.2877    0.0000 C   0  0  0  0  0  0  0  0  0
   -3.5333    2.0310    0.0000 C   0  0  0  0  0  0  0  0  0
   -4.3560    2.0926    0.0000 N   0  0  0  0  0  0  0  0  0
   -4.7139    2.8359    0.0000 C   0  0  0  0  0  0  0  0  0
   -3.7469   -0.8189    0.0000 C   0  0  0  0  0  0  0  0  0
   -4.5696   -0.7573    0.0000 O   0  0  0  0  0  0  0  0  0
   -3.3889   -1.5622    0.0000 N   0  0  0  0  0  0  0  0  0
   -2.5639   -1.5622    0.0000 C   0  0  0  0  0  0  0  0  0
   -2.0495   -2.2072    0.0000 C   0  0  0  0  0  0  0  0  0
   -2.2331   -3.0116    0.0000 C   0  0  0  0  0  0  0  0  0
   -2.9764   -3.3695    0.0000 N   0  0  0  0  0  0  0  0  0
   -3.7197   -3.0116    0.0000 C   0  0  0  0  0  0  0  0  0
   -3.9033   -2.2072    0.0000 C   0  0  0  0  0  0  0  0  0
   -2.9764   -4.1945    0.0000 C   0  0  0  0  0  0  0  0  0
   -2.5639   -4.9090    0.0000 C   0  0  0  0  0  0  0  0  0
   -3.3889   -4.9090    0.0000 C   0  0  0  0  0  0  0  0  0
  1  2  1  0  0  0  0
  2  3  1  0  0  0  0
  2  4  1  0  0  0  0
  2  5  1  0  0  0  0
  5  6  4  0  0  0  0
  5 10  4  0  0  0  0
  6  7  4  0  0  0  0
  7  8  4  0  0  0  0
  8  9  4  0  0  0  0
  9 10  4  0  0  0  0
 10 11  1  0  0  0  0
 11 12  1  0  0  0  0
 12 13  4  0  0  0  0
 12 17  4  0  0  0  0
 13 14  4  0  0  0  0
 14 15  4  0  0  0  0
 15 16  4  0  0  0  0
 15 21  1  0  0  0  0
 16 17  4  0  0  0  0
 17 18  1  0  0  0  0
 18 19  1  0  0  0  0
 19 20  1  0  0  0  0
 21 22  2  0  0  0  0
 21 23  1  0  0  0  0
 23 24  1  0  0  0  0
 23 29  1  0  0  0  0
 24 25  1  0  0  0  0
 25 26  1  0  0  0  0
 26 27  1  0  0  0  0
 27 28  1  0  0  0  0
 27 30  1  0  0  0  0
 28 29  1  0  0  0  0
 30 31  1  0  0  0  0
 30 32  1  0  0  0  0
 31 32  1  0  0  0  0
M  END
>  <Name_Molregno>
438184

>  <HISTAMINE H3>
8.7

>  <Serotonin transporter>
5.85

$$$$
438226
  Marvin  02231216192D 0   1.00000     0.00000     0

 29 32  0  0  0  0  0  0  0  0999 V2000
    5.6111    3.3557    0.0000 F   0  0  0  0  0  0  0  0  0
    5.1464    2.6740    0.0000 C   0  0  0  0  0  0  0  0  0
    5.5043    1.9307    0.0000 C   0  0  0  0  0  0  0  0  0
    5.0396    1.2491    0.0000 C   0  0  0  0  0  0  0  0  0
    5.3975    0.5058    0.0000 O   0  0  0  0  0  0  0  0  0
    4.9328   -0.1759    0.0000 C   0  0  0  0  0  0  0  0  0
    5.2908   -0.9192    0.0000 C   0  0  0  0  0  0  0  0  0
    4.8260   -1.6008    0.0000 C   0  0  0  0  0  0  0  0  0
    4.0033   -1.5392    0.0000 C   0  0  0  0  0  0  0  0  0
    3.6454   -0.7959    0.0000 C   0  0  0  0  0  0  0  0  0
    4.1101   -0.1142    0.0000 C   0  0  0  0  0  0  0  0  0
    3.7522    0.6291    0.0000 C   0  0  0  0  0  0  0  0  0
    2.9295    0.6907    0.0000 N   0  0  0  0  0  0  0  0  0
    2.5715    1.4340    0.0000 C   0  0  0  0  0  0  0  0  0
    3.5386   -2.2208    0.0000 C   0  0  0  0  0  0  0  0  0
    2.7159   -2.1592    0.0000 O   0  0  0  0  0  0  0  0  0
    3.8965   -2.9641    0.0000 N   0  0  0  0  0  0  0  0  0
    4.7215   -2.9641    0.0000 C   0  0  0  0  0  0  0  0  0
    5.2359   -3.6091    0.0000 C   0  0  0  0  0  0  0  0  0
    5.0523   -4.4134    0.0000 C   0  0  0  0  0  0  0  0  0
    4.3090   -4.7714    0.0000 N   0  0  0  0  0  0  0  0  0
    3.5657   -4.4134    0.0000 C   0  0  0  0  0  0  0  0  0
    3.3822   -3.6091    0.0000 C   0  0  0  0  0  0  0  0  0
    4.3090   -5.5964    0.0000 C   0  0  0  0  0  0  0  0  0
    4.7215   -6.3109    0.0000 C   0  0  0  0  0  0  0  0  0
    3.8965   -6.3109    0.0000 C   0  0  0  0  0  0  0  0  0
    4.2169    1.3107    0.0000 C   0  0  0  0  0  0  0  0  0
    3.8589    2.0540    0.0000 C   0  0  0  0  0  0  0  0  0
    4.3237    2.7357    0.0000 C   0  0  0  0  0  0  0  0  0
  1  2  1  0  0  0  0
  2  3  4  0  0  0  0
  2 29  4  0  0  0  0
  3  4  4  0  0  0  0
  4  5  1  0  0  0  0
  4 27  4  0  0  0  0
  5  6  1  0  0  0  0
  6  7  4  0  0  0  0
  6 11  4  0  0  0  0
  7  8  4  0  0  0  0
  8  9  4  0  0  0  0
  9 10  4  0  0  0  0
  9 15  1  0  0  0  0
 10 11  4  0  0  0  0
 11 12  1  0  0  0  0
 12 13  1  0  0  0  0
 13 14  1  0  0  0  0
 15 16  2  0  0  0  0
 15 17  1  0  0  0  0
 17 18  1  0  0  0  0
 17 23  1  0  0  0  0
 18 19  1  0  0  0  0
 19 20  1  0  0  0  0
 20 21  1  0  0  0  0
 21 22  1  0  0  0  0
 21 24  1  0  0  0  0
 22 23  1  0  0  0  0
 24 25  1  0  0  0  0
 24 26  1  0  0  0  0
 25 26  1  0  0  0  0
 27 28  4  0  0  0  0
 28 29  4  0  0  0  0
M  END
>  <Name_Molregno>
438226

>  <Dopamine transporter>
5.1

>  <HISTAMINE H3>
9

>  <Norepinephrine transporter>
6.12

>  <Serotonin transporter>
6.63

$$$$
438227
  Marvin  02231216192D 0   1.00000     0.00000     0

 29 32  0  0  0  0  0  0  0  0999 V2000
   -3.9184    2.7229    0.0000 F   0  0  0  0  0  0  0  0  0
   -3.5605    1.9796    0.0000 C   0  0  0  0  0  0  0  0  0
   -2.7378    1.9179    0.0000 C   0  0  0  0  0  0  0  0  0
   -2.3798    1.1746    0.0000 C   0  0  0  0  0  0  0  0  0
   -2.8445    0.4930    0.0000 C   0  0  0  0  0  0  0  0  0
   -2.4866   -0.2503    0.0000 O   0  0  0  0  0  0  0  0  0
   -2.9513   -0.9320    0.0000 C   0  0  0  0  0  0  0  0  0
   -2.5934   -1.6753    0.0000 C   0  0  0  0  0  0  0  0  0
   -3.0581   -2.3569    0.0000 C   0  0  0  0  0  0  0  0  0
   -3.8808   -2.2953    0.0000 C   0  0  0  0  0  0  0  0  0
   -4.2388   -1.5520    0.0000 C   0  0  0  0  0  0  0  0  0
   -3.7740   -0.8703    0.0000 C   0  0  0  0  0  0  0  0  0
   -4.1320   -0.1270    0.0000 C   0  0  0  0  0  0  0  0  0
   -4.9547   -0.0654    0.0000 N   0  0  0  0  0  0  0  0  0
   -5.3126    0.6779    0.0000 C   0  0  0  0  0  0  0  0  0
   -4.3456   -2.9769    0.0000 C   0  0  0  0  0  0  0  0  0
   -5.1682   -2.9152    0.0000 O   0  0  0  0  0  0  0  0  0
   -3.9876   -3.7202    0.0000 N   0  0  0  0  0  0  0  0  0
   -3.1626   -3.7202    0.0000 C   0  0  0  0  0  0  0  0  0
   -2.6482   -4.3652    0.0000 C   0  0  0  0  0  0  0  0  0
   -2.8318   -5.1695    0.0000 C   0  0  0  0  0  0  0  0  0
   -3.5751   -5.5275    0.0000 N   0  0  0  0  0  0  0  0  0
   -4.3184   -5.1695    0.0000 C   0  0  0  0  0  0  0  0  0
   -4.5020   -4.3652    0.0000 C   0  0  0  0  0  0  0  0  0
   -3.5751   -6.3525    0.0000 C   0  0  0  0  0  0  0  0  0
   -3.1626   -7.0669    0.0000 C   0  0  0  0  0  0  0  0  0
   -3.9876   -7.0669    0.0000 C   0  0  0  0  0  0  0  0  0
   -3.6672    0.5546    0.0000 C   0  0  0  0  0  0  0  0  0
   -4.0252    1.2979    0.0000 C   0  0  0  0  0  0  0  0  0
  1  2  1  0  0  0  0
  2  3  4  0  0  0  0
  2 29  4  0  0  0  0
  3  4  4  0  0  0  0
  4  5  4  0  0  0  0
  5  6  1  0  0  0  0
  5 28  4  0  0  0  0
  6  7  1  0  0  0  0
  7  8  4  0  0  0  0
  7 12  4  0  0  0  0
  8  9  4  0  0  0  0
  9 10  4  0  0  0  0
 10 11  4  0  0  0  0
 10 16  1  0  0  0  0
 11 12  4  0  0  0  0
 12 13  1  0  0  0  0
 13 14  1  0  0  0  0
 14 15  1  0  0  0  0
 16 17  2  0  0  0  0
 16 18  1  0  0  0  0
 18 19  1  0  0  0  0
 18 24  1  0  0  0  0
 19 20  1  0  0  0  0
 20 21  1  0  0  0  0
 21 22  1  0  0  0  0
 22 23  1  0  0  0  0
 22 25  1  0  0  0  0
 23 24  1  0  0  0  0
 25 26  1  0  0  0  0
 25 27  1  0  0  0  0
 26 27  1  0  0  0  0
 28 29  4  0  0  0  0
M  END
>  <Name_Molregno>
438227

>  <HISTAMINE H3>
9.1

>  <Serotonin transporter>
7.17

$$$$
438232
  Marvin  02231216192D 0   1.00000     0.00000     0

 29 32  0  0  0  0  0  0  0  0999 V2000
    5.6513    3.8641    0.0000 F   0  0  0  0  0  0  0  0  0
    4.8286    3.9258    0.0000 C   0  0  0  0  0  0  0  0  0
    4.4706    4.6691    0.0000 C   0  0  0  0  0  0  0  0  0
    3.6480    4.7307    0.0000 C   0  0  0  0  0  0  0  0  0
    3.1832    4.0491    0.0000 C   0  0  0  0  0  0  0  0  0
    3.5412    3.3058    0.0000 C   0  0  0  0  0  0  0  0  0
    4.3639    3.2441    0.0000 C   0  0  0  0  0  0  0  0  0
    4.7218    2.5008    0.0000 O   0  0  0  0  0  0  0  0  0
    4.2571    1.8192    0.0000 C   0  0  0  0  0  0  0  0  0
    4.6150    1.0759    0.0000 C   0  0  0  0  0  0  0  0  0
    4.1503    0.3943    0.0000 C   0  0  0  0  0  0  0  0  0
    3.3276    0.4559    0.0000 C   0  0  0  0  0  0  0  0  0
    2.9696    1.1992    0.0000 C   0  0  0  0  0  0  0  0  0
    3.4344    1.8808    0.0000 C   0  0  0  0  0  0  0  0  0
    3.0764    2.6241    0.0000 C   0  0  0  0  0  0  0  0  0
    2.2537    2.6858    0.0000 N   0  0  0  0  0  0  0  0  0
    1.8958    3.4291    0.0000 C   0  0  0  0  0  0  0  0  0
    2.8629   -0.2257    0.0000 C   0  0  0  0  0  0  0  0  0
    2.0402   -0.1641    0.0000 O   0  0  0  0  0  0  0  0  0
    3.2208   -0.9690    0.0000 N   0  0  0  0  0  0  0  0  0
    4.0458   -0.9690    0.0000 C   0  0  0  0  0  0  0  0  0
    4.5602   -1.6141    0.0000 C   0  0  0  0  0  0  0  0  0
    4.3766   -2.4184    0.0000 C   0  0  0  0  0  0  0  0  0
    3.6333   -2.7763    0.0000 N   0  0  0  0  0  0  0  0  0
    2.8900   -2.4184    0.0000 C   0  0  0  0  0  0  0  0  0
    2.7064   -1.6141    0.0000 C   0  0  0  0  0  0  0  0  0
    3.6333   -3.6013    0.0000 C   0  0  0  0  0  0  0  0  0
    4.0458   -4.3158    0.0000 C   0  0  0  0  0  0  0  0  0
    3.2208   -4.3158    0.0000 C   0  0  0  0  0  0  0  0  0
  1  2  1  0  0  0  0
  2  3  4  0  0  0  0
  2  7  4  0  0  0  0
  3  4  4  0  0  0  0
  4  5  4  0  0  0  0
  5  6  4  0  0  0  0
  6  7  4  0  0  0  0
  7  8  1  0  0  0  0
  8  9  1  0  0  0  0
  9 10  4  0  0  0  0
  9 14  4  0  0  0  0
 10 11  4  0  0  0  0
 11 12  4  0  0  0  0
 12 13  4  0  0  0  0
 12 18  1  0  0  0  0
 13 14  4  0  0  0  0
 14 15  1  0  0  0  0
 15 16  1  0  0  0  0
 16 17  1  0  0  0  0
 18 19  2  0  0  0  0
 18 20  1  0  0  0  0
 20 21  1  0  0  0  0
 20 26  1  0  0  0  0
 21 22  1  0  0  0  0
 22 23  1  0  0  0  0
 23 24  1  0  0  0  0
 24 25  1  0  0  0  0
 24 27  1  0  0  0  0
 25 26  1  0  0  0  0
 27 28  1  0  0  0  0
 27 29  1  0  0  0  0
 28 29  1  0  0  0  0
M  END
>  <Name_Molregno>
438232

>  <HISTAMINE H3>
9

>  <Serotonin transporter>
6.25

$$$$
438272
  Marvin  02231216192D 0   1.00000     0.00000     0

 29 32  0  0  0  0  0  0  0  0999 V2000
    5.6111    3.3557    0.0000 Cl  0  0  0  0  0  0  0  0  0
    5.1464    2.6740    0.0000 C   0  0  0  0  0  0  0  0  0
    5.5043    1.9307    0.0000 C   0  0  0  0  0  0  0  0  0
    5.0396    1.2491    0.0000 C   0  0  0  0  0  0  0  0  0
    5.3975    0.5058    0.0000 O   0  0  0  0  0  0  0  0  0
    4.9328   -0.1759    0.0000 C   0  0  0  0  0  0  0  0  0
    5.2908   -0.9192    0.0000 C   0  0  0  0  0  0  0  0  0
    4.8260   -1.6008    0.0000 C   0  0  0  0  0  0  0  0  0
    4.0033   -1.5392    0.0000 C   0  0  0  0  0  0  0  0  0
    3.6454   -0.7959    0.0000 C   0  0  0  0  0  0  0  0  0
    4.1101   -0.1142    0.0000 C   0  0  0  0  0  0  0  0  0
    3.7522    0.6291    0.0000 C   0  0  0  0  0  0  0  0  0
    2.9295    0.6907    0.0000 N   0  0  0  0  0  0  0  0  0
    2.5715    1.4340    0.0000 C   0  0  0  0  0  0  0  0  0
    3.5386   -2.2208    0.0000 C   0  0  0  0  0  0  0  0  0
    2.7159   -2.1592    0.0000 O   0  0  0  0  0  0  0  0  0
    3.8965   -2.9641    0.0000 N   0  0  0  0  0  0  0  0  0
    4.7215   -2.9641    0.0000 C   0  0  0  0  0  0  0  0  0
    5.2359   -3.6091    0.0000 C   0  0  0  0  0  0  0  0  0
    5.0523   -4.4134    0.0000 C   0  0  0  0  0  0  0  0  0
    4.3090   -4.7714    0.0000 N   0  0  0  0  0  0  0  0  0
    3.5657   -4.4134    0.0000 C   0  0  0  0  0  0  0  0  0
    3.3822   -3.6091    0.0000 C   0  0  0  0  0  0  0  0  0
    4.3090   -5.5964    0.0000 C   0  0  0  0  0  0  0  0  0
    4.7215   -6.3109    0.0000 C   0  0  0  0  0  0  0  0  0
    3.8965   -6.3109    0.0000 C   0  0  0  0  0  0  0  0  0
    4.2169    1.3107    0.0000 C   0  0  0  0  0  0  0  0  0
    3.8589    2.0540    0.0000 C   0  0  0  0  0  0  0  0  0
    4.3237    2.7357    0.0000 C   0  0  0  0  0  0  0  0  0
  1  2  1  0  0  0  0
  2  3  4  0  0  0  0
  2 29  4  0  0  0  0
  3  4  4  0  0  0  0
  4  5  1  0  0  0  0
  4 27  4  0  0  0  0
  5  6  1  0  0  0  0
  6  7  4  0  0  0  0
  6 11  4  0  0  0  0
  7  8  4  0  0  0  0
  8  9  4  0  0  0  0
  9 10  4  0  0  0  0
  9 15  1  0  0  0  0
 10 11  4  0  0  0  0
 11 12  1  0  0  0  0
 12 13  1  0  0  0  0
 13 14  1  0  0  0  0
 15 16  2  0  0  0  0
 15 17  1  0  0  0  0
 17 18  1  0  0  0  0
 17 23  1  0  0  0  0
 18 19  1  0  0  0  0
 19 20  1  0  0  0  0
 20 21  1  0  0  0  0
 21 22  1  0  0  0  0
 21 24  1  0  0  0  0
 22 23  1  0  0  0  0
 24 25  1  0  0  0  0
 24 26  1  0  0  0  0
 25 26  1  0  0  0  0
 27 28  4  0  0  0  0
 28 29  4  0  0  0  0
M  END
>  <Name_Molregno>
438272

>  <Dopamine transporter>
5.6

>  <HISTAMINE H3>
9.05

>  <Norepinephrine transporter>
6.38

>  <Serotonin transporter>
7.33

$$$$
438273
  Marvin  02231216192D 0   1.00000     0.00000     0

 28 31  0  0  0  0  0  0  0  0999 V2000
    0.1774    0.1113    0.0000 O   0  0  0  0  0  0  0  0  0
    1.0001    0.0497    0.0000 C   0  0  0  0  0  0  0  0  0
    1.4648    0.7313    0.0000 C   0  0  0  0  0  0  0  0  0
    2.2875    0.6697    0.0000 C   0  0  0  0  0  0  0  0  0
    2.6455   -0.0736    0.0000 C   0  0  0  0  0  0  0  0  0
    2.1807   -0.7553    0.0000 C   0  0  0  0  0  0  0  0  0
    1.3580   -0.6936    0.0000 C   0  0  0  0  0  0  0  0  0
    0.8933   -1.3753    0.0000 C   0  0  0  0  0  0  0  0  0
    1.2512   -2.1186    0.0000 N   0  0  0  0  0  0  0  0  0
    0.7865   -2.8002    0.0000 C   0  0  0  0  0  0  0  0  0
    3.4682   -0.1353    0.0000 C   0  0  0  0  0  0  0  0  0
    3.9329    0.5464    0.0000 O   0  0  0  0  0  0  0  0  0
    3.8261   -0.8786    0.0000 N   0  0  0  0  0  0  0  0  0
    4.6511   -0.8786    0.0000 C   0  0  0  0  0  0  0  0  0
    5.1655   -1.5236    0.0000 C   0  0  0  0  0  0  0  0  0
    4.9819   -2.3279    0.0000 C   0  0  0  0  0  0  0  0  0
    4.2386   -2.6859    0.0000 N   0  0  0  0  0  0  0  0  0
    3.4953   -2.3279    0.0000 C   0  0  0  0  0  0  0  0  0
    3.3117   -1.5236    0.0000 C   0  0  0  0  0  0  0  0  0
    4.2386   -3.5109    0.0000 C   0  0  0  0  0  0  0  0  0
    4.6511   -4.2253    0.0000 C   0  0  0  0  0  0  0  0  0
    3.8261   -4.2253    0.0000 C   0  0  0  0  0  0  0  0  0
   -0.1806    0.8546    0.0000 C   0  0  0  0  0  0  0  0  0
   -1.0033    0.9163    0.0000 C   0  0  0  0  0  0  0  0  0
   -1.3612    1.6596    0.0000 C   0  0  0  0  0  0  0  0  0
   -0.8965    2.3412    0.0000 C   0  0  0  0  0  0  0  0  0
   -0.0738    2.2796    0.0000 C   0  0  0  0  0  0  0  0  0
    0.2842    1.5363    0.0000 C   0  0  0  0  0  0  0  0  0
  1  2  1  0  0  0  0
  1 23  1  0  0  0  0
  2  3  4  0  0  0  0
  2  7  4  0  0  0  0
  3  4  4  0  0  0  0
  4  5  4  0  0  0  0
  5  6  4  0  0  0  0
  5 11  1  0  0  0  0
  6  7  4  0  0  0  0
  7  8  1  0  0  0  0
  8  9  1  0  0  0  0
  9 10  1  0  0  0  0
 11 12  2  0  0  0  0
 11 13  1  0  0  0  0
 13 14  1  0  0  0  0
 13 19  1  0  0  0  0
 14 15  1  0  0  0  0
 15 16  1  0  0  0  0
 16 17  1  0  0  0  0
 17 18  1  0  0  0  0
 17 20  1  0  0  0  0
 18 19  1  0  0  0  0
 20 21  1  0  0  0  0
 20 22  1  0  0  0  0
 21 22  1  0  0  0  0
 23 24  4  0  0  0  0
 23 28  4  0  0  0  0
 24 25  4  0  0  0  0
 25 26  4  0  0  0  0
 26 27  4  0  0  0  0
 27 28  4  0  0  0  0
M  END
>  <Name_Molregno>
438273

>  <Dopamine transporter>
5.14

>  <HISTAMINE H3>
9.1

>  <Norepinephrine transporter>
6.33

>  <Serotonin transporter>
6.64

$$$$
438278
  Marvin  02231216192D 0   1.00000     0.00000     0

 30 33  0  0  0  0  0  0  0  0999 V2000
    0.1698   -0.0819    0.0000 O   0  0  0  0  0  0  0  0  0
    0.9925   -0.1435    0.0000 C   0  0  0  0  0  0  0  0  0
    1.4572    0.5381    0.0000 C   0  0  0  0  0  0  0  0  0
    2.2799    0.4765    0.0000 C   0  0  0  0  0  0  0  0  0
    2.6379   -0.2668    0.0000 C   0  0  0  0  0  0  0  0  0
    2.1731   -0.9485    0.0000 C   0  0  0  0  0  0  0  0  0
    1.3504   -0.8868    0.0000 C   0  0  0  0  0  0  0  0  0
    0.8857   -1.5685    0.0000 C   0  0  0  0  0  0  0  0  0
    1.2436   -2.3118    0.0000 N   0  0  0  0  0  0  0  0  0
    0.7789   -2.9934    0.0000 C   0  0  0  0  0  0  0  0  0
    3.4605   -0.3285    0.0000 C   0  0  0  0  0  0  0  0  0
    3.9253    0.3532    0.0000 O   0  0  0  0  0  0  0  0  0
    3.8185   -1.0718    0.0000 N   0  0  0  0  0  0  0  0  0
    4.6435   -1.0718    0.0000 C   0  0  0  0  0  0  0  0  0
    5.1579   -1.7168    0.0000 C   0  0  0  0  0  0  0  0  0
    4.9743   -2.5211    0.0000 C   0  0  0  0  0  0  0  0  0
    4.2310   -2.8791    0.0000 N   0  0  0  0  0  0  0  0  0
    3.4877   -2.5211    0.0000 C   0  0  0  0  0  0  0  0  0
    3.3041   -1.7168    0.0000 C   0  0  0  0  0  0  0  0  0
    4.2310   -3.7041    0.0000 C   0  0  0  0  0  0  0  0  0
    4.6435   -4.4185    0.0000 C   0  0  0  0  0  0  0  0  0
    3.8185   -4.4185    0.0000 C   0  0  0  0  0  0  0  0  0
   -0.1882    0.6614    0.0000 C   0  0  0  0  0  0  0  0  0
   -1.0109    0.7231    0.0000 C   0  0  0  0  0  0  0  0  0
   -1.3688    1.4664    0.0000 C   0  0  0  0  0  0  0  0  0
   -2.1915    1.5280    0.0000 O   0  0  0  0  0  0  0  0  0
   -2.6563    0.8464    0.0000 C   0  0  0  0  0  0  0  0  0
   -0.9041    2.1480    0.0000 C   0  0  0  0  0  0  0  0  0
   -0.0814    2.0864    0.0000 C   0  0  0  0  0  0  0  0  0
    0.2766    1.3431    0.0000 C   0  0  0  0  0  0  0  0  0
  1  2  1  0  0  0  0
  1 23  1  0  0  0  0
  2  3  4  0  0  0  0
  2  7  4  0  0  0  0
  3  4  4  0  0  0  0
  4  5  4  0  0  0  0
  5  6  4  0  0  0  0
  5 11  1  0  0  0  0
  6  7  4  0  0  0  0
  7  8  1  0  0  0  0
  8  9  1  0  0  0  0
  9 10  1  0  0  0  0
 11 12  2  0  0  0  0
 11 13  1  0  0  0  0
 13 14  1  0  0  0  0
 13 19  1  0  0  0  0
 14 15  1  0  0  0  0
 15 16  1  0  0  0  0
 16 17  1  0  0  0  0
 17 18  1  0  0  0  0
 17 20  1  0  0  0  0
 18 19  1  0  0  0  0
 20 21  1  0  0  0  0
 20 22  1  0  0  0  0
 21 22  1  0  0  0  0
 23 24  4  0  0  0  0
 23 30  4  0  0  0  0
 24 25  4  0  0  0  0
 25 26  1  0  0  0  0
 25 28  4  0  0  0  0
 26 27  1  0  0  0  0
 28 29  4  0  0  0  0
 29 30  4  0  0  0  0
M  END
>  <Name_Molregno>
438278

>  <HISTAMINE H3>
9

>  <Serotonin transporter>
7.89

$$$$
438320
  Marvin  02231216192D 0   1.00000     0.00000     0

 29 31  0  0  0  0  0  0  0  0999 V2000
    5.4200    2.3384    0.0000 Cl  0  0  0  0  0  0  0  0  0
    5.4200    1.5134    0.0000 C   0  0  0  0  0  0  0  0  0
    6.1345    1.1009    0.0000 C   0  0  0  0  0  0  0  0  0
    6.1345    0.2759    0.0000 C   0  0  0  0  0  0  0  0  0
    5.4200   -0.1366    0.0000 C   0  0  0  0  0  0  0  0  0
    5.4200   -0.9616    0.0000 O   0  0  0  0  0  0  0  0  0
    4.7055   -1.3741    0.0000 C   0  0  0  0  0  0  0  0  0
    4.7055   -2.1991    0.0000 C   0  0  0  0  0  0  0  0  0
    3.9911   -2.6116    0.0000 C   0  0  0  0  0  0  0  0  0
    3.2766   -2.1991    0.0000 C   0  0  0  0  0  0  0  0  0
    3.2766   -1.3741    0.0000 C   0  0  0  0  0  0  0  0  0
    3.9911   -0.9616    0.0000 C   0  0  0  0  0  0  0  0  0
    3.9911   -0.1366    0.0000 C   0  0  0  0  0  0  0  0  0
    3.2766    0.2759    0.0000 N   0  0  0  0  0  0  0  0  0
    3.2766    1.1009    0.0000 C   0  0  0  0  0  0  0  0  0
    2.5621   -2.6116    0.0000 C   0  0  0  0  0  0  0  0  0
    1.8477   -2.1991    0.0000 O   0  0  0  0  0  0  0  0  0
    2.5621   -3.4366    0.0000 N   0  0  0  0  0  0  0  0  0
    3.3054   -3.7946    0.0000 C   0  0  0  0  0  0  0  0  0
    3.4890   -4.5989    0.0000 C   0  0  0  0  0  0  0  0  0
    2.9746   -5.2439    0.0000 C   0  0  0  0  0  0  0  0  0
    2.1496   -5.2439    0.0000 N   0  0  0  0  0  0  0  0  0
    1.6353   -4.5989    0.0000 C   0  0  0  0  0  0  0  0  0
    1.8188   -3.7946    0.0000 C   0  0  0  0  0  0  0  0  0
    1.7917   -5.9872    0.0000 C   0  0  0  0  0  0  0  0  0
    2.2564   -6.6688    0.0000 C   0  0  0  0  0  0  0  0  0
    0.9690   -6.0488    0.0000 C   0  0  0  0  0  0  0  0  0
    4.7055    0.2759    0.0000 C   0  0  0  0  0  0  0  0  0
    4.7055    1.1009    0.0000 C   0  0  0  0  0  0  0  0  0
  1  2  1  0  0  0  0
  2  3  4  0  0  0  0
  2 29  4  0  0  0  0
  3  4  4  0  0  0  0
  4  5  4  0  0  0  0
  5  6  1  0  0  0  0
  5 28  4  0  0  0  0
  6  7  1  0  0  0  0
  7  8  4  0  0  0  0
  7 12  4  0  0  0  0
  8  9  4  0  0  0  0
  9 10  4  0  0  0  0
 10 11  4  0  0  0  0
 10 16  1  0  0  0  0
 11 12  4  0  0  0  0
 12 13  1  0  0  0  0
 13 14  1  0  0  0  0
 14 15  1  0  0  0  0
 16 17  2  0  0  0  0
 16 18  1  0  0  0  0
 18 19  1  0  0  0  0
 18 24  1  0  0  0  0
 19 20  1  0  0  0  0
 20 21  1  0  0  0  0
 21 22  1  0  0  0  0
 22 23  1  0  0  0  0
 22 25  1  0  0  0  0
 23 24  1  0  0  0  0
 25 26  1  0  0  0  0
 25 27  1  0  0  0  0
 28 29  4  0  0  0  0
M  END
>  <Name_Molregno>
438320

>  <HISTAMINE H3>
9.3

>  <Serotonin transporter>
8.19

$$$$
438321
  Marvin  02231216192D 0   1.00000     0.00000     0

 29 31  0  0  0  0  0  0  0  0999 V2000
    1.9992    7.2919    0.0000 Cl  0  0  0  0  0  0  0  0  0
    1.9992    6.4669    0.0000 C   0  0  0  0  0  0  0  0  0
    2.7136    6.0544    0.0000 C   0  0  0  0  0  0  0  0  0
    2.7136    5.2294    0.0000 C   0  0  0  0  0  0  0  0  0
    3.4281    4.8169    0.0000 O   0  0  0  0  0  0  0  0  0
    3.4281    3.9919    0.0000 C   0  0  0  0  0  0  0  0  0
    4.1426    3.5794    0.0000 C   0  0  0  0  0  0  0  0  0
    4.1426    2.7544    0.0000 C   0  0  0  0  0  0  0  0  0
    3.4281    2.3419    0.0000 C   0  0  0  0  0  0  0  0  0
    2.7136    2.7544    0.0000 C   0  0  0  0  0  0  0  0  0
    2.7136    3.5794    0.0000 C   0  0  0  0  0  0  0  0  0
    1.9992    3.9919    0.0000 C   0  0  0  0  0  0  0  0  0
    1.2847    3.5794    0.0000 N   0  0  0  0  0  0  0  0  0
    0.5702    3.9919    0.0000 C   0  0  0  0  0  0  0  0  0
    3.4281    1.5169    0.0000 C   0  0  0  0  0  0  0  0  0
    2.7136    1.1044    0.0000 O   0  0  0  0  0  0  0  0  0
    4.1426    1.1044    0.0000 N   0  0  0  0  0  0  0  0  0
    4.8242    1.5691    0.0000 C   0  0  0  0  0  0  0  0  0
    5.6126    1.3259    0.0000 C   0  0  0  0  0  0  0  0  0
    5.9140    0.5580    0.0000 C   0  0  0  0  0  0  0  0  0
    5.5015   -0.1565    0.0000 N   0  0  0  0  0  0  0  0  0
    4.6857   -0.2795    0.0000 C   0  0  0  0  0  0  0  0  0
    4.0809    0.2817    0.0000 C   0  0  0  0  0  0  0  0  0
    5.9662   -0.8381    0.0000 C   0  0  0  0  0  0  0  0  0
    6.7889   -0.7765    0.0000 C   0  0  0  0  0  0  0  0  0
    5.6083   -1.5814    0.0000 C   0  0  0  0  0  0  0  0  0
    1.9992    4.8169    0.0000 C   0  0  0  0  0  0  0  0  0
    1.2847    5.2294    0.0000 C   0  0  0  0  0  0  0  0  0
    1.2847    6.0544    0.0000 C   0  0  0  0  0  0  0  0  0
  1  2  1  0  0  0  0
  2  3  4  0  0  0  0
  2 29  4  0  0  0  0
  3  4  4  0  0  0  0
  4  5  1  0  0  0  0
  4 27  4  0  0  0  0
  5  6  1  0  0  0  0
  6  7  4  0  0  0  0
  6 11  4  0  0  0  0
  7  8  4  0  0  0  0
  8  9  4  0  0  0  0
  9 10  4  0  0  0  0
  9 15  1  0  0  0  0
 10 11  4  0  0  0  0
 11 12  1  0  0  0  0
 12 13  1  0  0  0  0
 13 14  1  0  0  0  0
 15 16  2  0  0  0  0
 15 17  1  0  0  0  0
 17 18  1  0  0  0  0
 17 23  1  0  0  0  0
 18 19  1  0  0  0  0
 19 20  1  0  0  0  0
 20 21  1  0  0  0  0
 21 22  1  0  0  0  0
 21 24  1  0  0  0  0
 22 23  1  0  0  0  0
 24 25  1  0  0  0  0
 24 26  1  0  0  0  0
 27 28  4  0  0  0  0
 28 29  4  0  0  0  0
M  END
>  <Name_Molregno>
438321

>  <HISTAMINE H3>
9

>  <Serotonin transporter>
6.94

$$$$
438358
  Marvin  02231216192D 0   1.00000     0.00000     0

 30 32  0  0  0  0  0  0  0  0999 V2000
    4.1929    4.8262    0.0000 Cl  0  0  0  0  0  0  0  0  0
    4.1929    4.0012    0.0000 C   0  0  0  0  0  0  0  0  0
    4.9074    3.5887    0.0000 C   0  0  0  0  0  0  0  0  0
    4.9074    2.7637    0.0000 C   0  0  0  0  0  0  0  0  0
    5.6218    2.3512    0.0000 O   0  0  0  0  0  0  0  0  0
    5.6218    1.5262    0.0000 C   0  0  0  0  0  0  0  0  0
    6.3363    1.1137    0.0000 C   0  0  0  0  0  0  0  0  0
    6.3363    0.2887    0.0000 C   0  0  0  0  0  0  0  0  0
    5.6218   -0.1238    0.0000 C   0  0  0  0  0  0  0  0  0
    4.9074    0.2887    0.0000 C   0  0  0  0  0  0  0  0  0
    4.9074    1.1137    0.0000 C   0  0  0  0  0  0  0  0  0
    4.1929    1.5262    0.0000 C   0  0  0  0  0  0  0  0  0
    3.4784    1.1137    0.0000 N   0  0  0  0  0  0  0  0  0
    2.7640    1.5262    0.0000 C   0  0  0  0  0  0  0  0  0
    5.6218   -0.9488    0.0000 C   0  0  0  0  0  0  0  0  0
    6.3363   -1.3613    0.0000 O   0  0  0  0  0  0  0  0  0
    4.9074   -1.3613    0.0000 N   0  0  0  0  0  0  0  0  0
    4.9690   -2.1840    0.0000 C   0  0  0  0  0  0  0  0  0
    4.3643   -2.7451    0.0000 C   0  0  0  0  0  0  0  0  0
    3.5485   -2.6222    0.0000 C   0  0  0  0  0  0  0  0  0
    3.1360   -1.9077    0.0000 N   0  0  0  0  0  0  0  0  0
    3.4374   -1.1397    0.0000 C   0  0  0  0  0  0  0  0  0
    4.2257   -0.8965    0.0000 C   0  0  0  0  0  0  0  0  0
    2.3133   -1.9693    0.0000 C   0  0  0  0  0  0  0  0  0
    1.9553   -2.7126    0.0000 C   0  0  0  0  0  0  0  0  0
    1.8485   -1.2877    0.0000 C   0  0  0  0  0  0  0  0  0
    4.1929    2.3512    0.0000 C   0  0  0  0  0  0  0  0  0
    3.4784    2.7637    0.0000 C   0  0  0  0  0  0  0  0  0
    3.4784    3.5887    0.0000 C   0  0  0  0  0  0  0  0  0
    2.7640    4.0012    0.0000 Cl  0  0  0  0  0  0  0  0  0
  1  2  1  0  0  0  0
  2  3  4  0  0  0  0
  2 29  4  0  0  0  0
  3  4  4  0  0  0  0
  4  5  1  0  0  0  0
  4 27  4  0  0  0  0
  5  6  1  0  0  0  0
  6  7  4  0  0  0  0
  6 11  4  0  0  0  0
  7  8  4  0  0  0  0
  8  9  4  0  0  0  0
  9 10  4  0  0  0  0
  9 15  1  0  0  0  0
 10 11  4  0  0  0  0
 11 12  1  0  0  0  0
 12 13  1  0  0  0  0
 13 14  1  0  0  0  0
 15 16  2  0  0  0  0
 15 17  1  0  0  0  0
 17 18  1  0  0  0  0
 17 23  1  0  0  0  0
 18 19  1  0  0  0  0
 19 20  1  0  0  0  0
 20 21  1  0  0  0  0
 21 22  1  0  0  0  0
 21 24  1  0  0  0  0
 22 23  1  0  0  0  0
 24 25  1  0  0  0  0
 24 26  1  0  0  0  0
 27 28  4  0  0  0  0
 28 29  4  0  0  0  0
 29 30  1  0  0  0  0
M  END
>  <Name_Molregno>
438358

>  <HISTAMINE H3>
8.92

>  <Serotonin transporter>
7.85

$$$$
438363
  Marvin  02231216192D 0   1.00000     0.00000     0

 30 32  0  0  0  0  0  0  0  0999 V2000
   -1.7167    2.2330    0.0000 S   0  0  0  0  0  0  0  0  0
   -2.4311    2.6455    0.0000 C   0  0  0  0  0  0  0  0  0
   -1.7167    1.4080    0.0000 C   0  0  0  0  0  0  0  0  0
   -1.0022    0.9955    0.0000 C   0  0  0  0  0  0  0  0  0
   -1.0022    0.1705    0.0000 C   0  0  0  0  0  0  0  0  0
   -1.7167   -0.2420    0.0000 C   0  0  0  0  0  0  0  0  0
   -1.7167   -1.0670    0.0000 O   0  0  0  0  0  0  0  0  0
   -2.4311   -1.4795    0.0000 C   0  0  0  0  0  0  0  0  0
   -2.4311   -2.3045    0.0000 C   0  0  0  0  0  0  0  0  0
   -3.1456   -2.7170    0.0000 C   0  0  0  0  0  0  0  0  0
   -3.8601   -2.3045    0.0000 C   0  0  0  0  0  0  0  0  0
   -3.8601   -1.4795    0.0000 C   0  0  0  0  0  0  0  0  0
   -3.1456   -1.0670    0.0000 C   0  0  0  0  0  0  0  0  0
   -3.1456   -0.2420    0.0000 C   0  0  0  0  0  0  0  0  0
   -3.8601    0.1705    0.0000 N   0  0  0  0  0  0  0  0  0
   -3.8601    0.9955    0.0000 C   0  0  0  0  0  0  0  0  0
   -4.5745   -2.7170    0.0000 C   0  0  0  0  0  0  0  0  0
   -5.2890   -2.3045    0.0000 O   0  0  0  0  0  0  0  0  0
   -4.5745   -3.5420    0.0000 N   0  0  0  0  0  0  0  0  0
   -3.8312   -3.8999    0.0000 C   0  0  0  0  0  0  0  0  0
   -3.6477   -4.7043    0.0000 C   0  0  0  0  0  0  0  0  0
   -4.1620   -5.3493    0.0000 C   0  0  0  0  0  0  0  0  0
   -4.9870   -5.3493    0.0000 N   0  0  0  0  0  0  0  0  0
   -5.5014   -4.7043    0.0000 C   0  0  0  0  0  0  0  0  0
   -5.3178   -3.8999    0.0000 C   0  0  0  0  0  0  0  0  0
   -5.3450   -6.0926    0.0000 C   0  0  0  0  0  0  0  0  0
   -4.8803   -6.7742    0.0000 C   0  0  0  0  0  0  0  0  0
   -6.1677   -6.1542    0.0000 C   0  0  0  0  0  0  0  0  0
   -2.4311    0.1705    0.0000 C   0  0  0  0  0  0  0  0  0
   -2.4311    0.9955    0.0000 C   0  0  0  0  0  0  0  0  0
  1  2  1  0  0  0  0
  1  3  1  0  0  0  0
  3  4  4  0  0  0  0
  3 30  4  0  0  0  0
  4  5  4  0  0  0  0
  5  6  4  0  0  0  0
  6  7  1  0  0  0  0
  6 29  4  0  0  0  0
  7  8  1  0  0  0  0
  8  9  4  0  0  0  0
  8 13  4  0  0  0  0
  9 10  4  0  0  0  0
 10 11  4  0  0  0  0
 11 12  4  0  0  0  0
 11 17  1  0  0  0  0
 12 13  4  0  0  0  0
 13 14  1  0  0  0  0
 14 15  1  0  0  0  0
 15 16  1  0  0  0  0
 17 18  2  0  0  0  0
 17 19  1  0  0  0  0
 19 20  1  0  0  0  0
 19 25  1  0  0  0  0
 20 21  1  0  0  0  0
 21 22  1  0  0  0  0
 22 23  1  0  0  0  0
 23 24  1  0  0  0  0
 23 26  1  0  0  0  0
 24 25  1  0  0  0  0
 26 27  1  0  0  0  0
 26 28  1  0  0  0  0
 29 30  4  0  0  0  0
M  END
>  <Name_Molregno>
438363

>  <HISTAMINE H3>
8.96

>  <Serotonin transporter>
8.3

$$$$
438399
  Marvin  02231216192D 0   1.00000     0.00000     0

 30 32  0  0  0  0  0  0  0  0999 V2000
    5.4198    4.8476    0.0000 S   0  0  0  0  0  0  0  0  0
    4.7053    5.2601    0.0000 C   0  0  0  0  0  0  0  0  0
    5.4198    4.0226    0.0000 C   0  0  0  0  0  0  0  0  0
    6.1342    3.6101    0.0000 C   0  0  0  0  0  0  0  0  0
    6.1342    2.7851    0.0000 C   0  0  0  0  0  0  0  0  0
    5.4198    2.3726    0.0000 C   0  0  0  0  0  0  0  0  0
    5.4198    1.5476    0.0000 O   0  0  0  0  0  0  0  0  0
    4.7053    1.1351    0.0000 C   0  0  0  0  0  0  0  0  0
    4.7053    0.3101    0.0000 C   0  0  0  0  0  0  0  0  0
    3.9908   -0.1024    0.0000 C   0  0  0  0  0  0  0  0  0
    3.2763    0.3101    0.0000 C   0  0  0  0  0  0  0  0  0
    3.2763    1.1351    0.0000 C   0  0  0  0  0  0  0  0  0
    3.9908    1.5476    0.0000 C   0  0  0  0  0  0  0  0  0
    3.9908    2.3726    0.0000 C   0  0  0  0  0  0  0  0  0
    3.2763    2.7851    0.0000 N   0  0  0  0  0  0  0  0  0
    3.2763    3.6101    0.0000 C   0  0  0  0  0  0  0  0  0
    2.5619   -0.1024    0.0000 C   0  0  0  0  0  0  0  0  0
    2.5619   -0.9274    0.0000 O   0  0  0  0  0  0  0  0  0
    1.8474    0.3101    0.0000 N   0  0  0  0  0  0  0  0  0
    1.1329   -0.1024    0.0000 C   0  0  0  0  0  0  0  0  0
    0.4185    0.3101    0.0000 C   0  0  0  0  0  0  0  0  0
    0.4185    1.1351    0.0000 N   0  0  0  0  0  0  0  0  0
    1.1329    1.5476    0.0000 C   0  0  0  0  0  0  0  0  0
    1.8474    1.1351    0.0000 C   0  0  0  0  0  0  0  0  0
   -0.2960    1.5476    0.0000 C   0  0  0  0  0  0  0  0  0
   -1.0105    1.1351    0.0000 C   0  0  0  0  0  0  0  0  0
   -0.2960    2.3726    0.0000 C   0  0  0  0  0  0  0  0  0
    4.7053    2.7851    0.0000 C   0  0  0  0  0  0  0  0  0
    4.7053    3.6101    0.0000 C   0  0  0  0  0  0  0  0  0
    3.9908    4.0226    0.0000 C   0  0  0  0  0  0  0  0  0
  1  2  1  0  0  0  0
  1  3  1  0  0  0  0
  3  4  4  0  0  0  0
  3 29  4  0  0  0  0
  4  5  4  0  0  0  0
  5  6  4  0  0  0  0
  6  7  1  0  0  0  0
  6 28  4  0  0  0  0
  7  8  1  0  0  0  0
  8  9  4  0  0  0  0
  8 13  4  0  0  0  0
  9 10  4  0  0  0  0
 10 11  4  0  0  0  0
 11 12  4  0  0  0  0
 11 17  1  0  0  0  0
 12 13  4  0  0  0  0
 13 14  1  0  0  0  0
 14 15  1  0  0  0  0
 15 16  1  0  0  0  0
 17 18  2  0  0  0  0
 17 19  1  0  0  0  0
 19 20  1  0  0  0  0
 19 24  1  0  0  0  0
 20 21  1  0  0  0  0
 21 22  1  0  0  0  0
 22 23  1  0  0  0  0
 22 25  1  0  0  0  0
 23 24  1  0  0  0  0
 25 26  1  0  0  0  0
 25 27  1  0  0  0  0
 28 29  4  0  0  0  0
 29 30  1  0  0  0  0
M  END
>  <Name_Molregno>
438399

>  <Dopamine transporter>
5.4

>  <HISTAMINE H3>
8.37

>  <Norepinephrine transporter>
6.33

>  <Serotonin transporter>
8.09

$$$$
438422
  Marvin  02231216192D 0   1.00000     0.00000     0

 22 24  0  0  1  0  0  0  0  0999 V2000
   -1.4874    1.6622    0.0000 O   0  0  0  0  0  0  0  0  0
   -2.2018    2.0747    0.0000 C   0  0  0  0  0  0  0  0  0
   -2.2018    2.8997    0.0000 C   0  0  0  0  0  0  0  0  0
   -2.9163    3.3122    0.0000 C   0  0  0  0  0  0  0  0  0
   -2.9163    4.1372    0.0000 C   0  0  0  0  0  0  0  0  0
   -2.2018    4.5497    0.0000 C   0  0  0  0  0  0  0  0  0
   -1.4874    4.1372    0.0000 C   0  0  0  0  0  0  0  0  0
   -1.4874    3.3122    0.0000 C   0  0  0  0  0  0  0  0  0
   -1.4874    0.8372    0.0000 C   0  0  0  0  0  0  0  0  0
   -0.7729    0.4247    0.0000 C   0  0  0  0  0  0  0  0  0
   -0.7729   -0.4003    0.0000 C   0  0  0  0  0  0  0  0  0
   -1.4874   -0.8128    0.0000 C   0  0  0  0  0  0  0  0  0
   -2.2018   -0.4003    0.0000 C   0  0  0  0  0  0  0  0  0
   -2.2018    0.4247    0.0000 C   0  0  0  0  0  0  0  0  0
   -1.4874   -1.6378    0.0000 C   0  0  0  0  0  0  0  0  0
   -0.7729   -2.0503    0.0000 C   0  0  0  0  0  0  0  0  0
   -0.7729   -2.8753    0.0000 N   0  0  0  0  0  0  0  0  0
   -0.1055   -3.3602    0.0000 C   0  0  0  0  0  0  0  0  0
   -0.3604   -4.1449    0.0000 C   0  0  0  0  0  0  0  0  0
   -1.1854   -4.1449    0.0000 C   0  0  0  0  0  0  0  0  0
   -1.4403   -3.3602    0.0000 C   0  0  0  0  0  0  0  0  0
   -2.2250   -3.1053    0.0000 C   0  0  0  0  0  0  0  0  0
  1  2  1  0  0  0  0
  1  9  1  0  0  0  0
  2  3  1  0  0  0  0
  3  4  4  0  0  0  0
  3  8  4  0  0  0  0
  4  5  4  0  0  0  0
  5  6  4  0  0  0  0
  6  7  4  0  0  0  0
  7  8  4  0  0  0  0
  9 10  4  0  0  0  0
  9 14  4  0  0  0  0
 10 11  4  0  0  0  0
 11 12  4  0  0  0  0
 12 13  4  0  0  0  0
 12 15  1  0  0  0  0
 13 14  4  0  0  0  0
 15 16  1  0  0  0  0
 16 17  1  0  0  0  0
 17 18  1  0  0  0  0
 17 21  1  0  0  0  0
 18 19  1  0  0  0  0
 19 20  1  0  0  0  0
 20 21  1  0  0  0  0
 21 22  1  0  0  0  0
M  END
>  <Name_Molregno>
438422

>  <HISTAMINE H3>
9.11

$$$$
438425
  Marvin  02231216192D 0   1.00000     0.00000     0

 21 23  0  0  0  0  0  0  0  0999 V2000
    1.4403    1.4067    0.0000 O   0  0  0  0  0  0  0  0  0
    0.7259    1.8192    0.0000 C   0  0  0  0  0  0  0  0  0
    0.7259    2.6442    0.0000 C   0  0  0  0  0  0  0  0  0
    0.0114    3.0567    0.0000 C   0  0  0  0  0  0  0  0  0
    0.0114    3.8817    0.0000 C   0  0  0  0  0  0  0  0  0
    0.7259    4.2942    0.0000 C   0  0  0  0  0  0  0  0  0
    1.4403    3.8817    0.0000 C   0  0  0  0  0  0  0  0  0
    1.4403    3.0567    0.0000 C   0  0  0  0  0  0  0  0  0
    1.4403    0.5817    0.0000 C   0  0  0  0  0  0  0  0  0
    2.1548    0.1692    0.0000 C   0  0  0  0  0  0  0  0  0
    2.1548   -0.6558    0.0000 C   0  0  0  0  0  0  0  0  0
    1.4403   -1.0683    0.0000 C   0  0  0  0  0  0  0  0  0
    0.7259   -0.6558    0.0000 C   0  0  0  0  0  0  0  0  0
    0.7259    0.1692    0.0000 C   0  0  0  0  0  0  0  0  0
    1.4403   -1.8933    0.0000 C   0  0  0  0  0  0  0  0  0
    2.1548   -2.3058    0.0000 C   0  0  0  0  0  0  0  0  0
    2.1548   -3.1308    0.0000 N   0  0  0  0  0  0  0  0  0
    2.8222   -3.6157    0.0000 C   0  0  0  0  0  0  0  0  0
    2.5673   -4.4003    0.0000 C   0  0  0  0  0  0  0  0  0
    1.7423   -4.4003    0.0000 C   0  0  0  0  0  0  0  0  0
    1.4874   -3.6157    0.0000 C   0  0  0  0  0  0  0  0  0
  1  2  1  0  0  0  0
  1  9  1  0  0  0  0
  2  3  1  0  0  0  0
  3  4  4  0  0  0  0
  3  8  4  0  0  0  0
  4  5  4  0  0  0  0
  5  6  4  0  0  0  0
  6  7  4  0  0  0  0
  7  8  4  0  0  0  0
  9 10  4  0  0  0  0
  9 14  4  0  0  0  0
 10 11  4  0  0  0  0
 11 12  4  0  0  0  0
 12 13  4  0  0  0  0
 12 15  1  0  0  0  0
 13 14  4  0  0  0  0
 15 16  1  0  0  0  0
 16 17  1  0  0  0  0
 17 18  1  0  0  0  0
 17 21  1  0  0  0  0
 18 19  1  0  0  0  0
 19 20  1  0  0  0  0
 20 21  1  0  0  0  0
M  END
>  <Name_Molregno>
438425

>  <HISTAMINE H3>
8.3

$$$$
438427
  Marvin  02231216192D 0   1.00000     0.00000     0

 18 20  0  0  1  0  0  0  0  0999 V2000
   -3.7203   -0.8731    0.0000 N   0  0  0  0  0  0  0  0  0
   -3.8065   -1.6936    0.0000 C   0  0  0  0  0  0  0  0  0
   -4.6135   -1.8652    0.0000 C   0  0  0  0  0  0  0  0  0
   -5.0260   -1.1507    0.0000 C   0  0  0  0  0  0  0  0  0
   -4.4740   -0.5376    0.0000 C   0  0  0  0  0  0  0  0  0
   -4.6455    0.2694    0.0000 C   0  0  0  0  0  0  0  0  0
   -3.0058   -0.4606    0.0000 C   0  0  0  0  0  0  0  0  0
   -2.2914   -0.8731    0.0000 C   0  0  0  0  0  0  0  0  0
   -1.5769   -0.4606    0.0000 C   0  0  0  0  0  0  0  0  0
   -0.8624   -0.8731    0.0000 C   0  0  0  0  0  0  0  0  0
   -0.1480   -0.4606    0.0000 C   0  0  0  0  0  0  0  0  0
   -0.1480    0.3644    0.0000 C   0  0  0  0  0  0  0  0  0
   -0.8624    0.7769    0.0000 C   0  0  0  0  0  0  0  0  0
   -1.5769    0.3644    0.0000 C   0  0  0  0  0  0  0  0  0
    0.5665    0.7769    0.0000 C   0  0  0  0  0  0  0  0  0
    1.2810    0.3644    0.0000 C   0  0  0  0  0  0  0  0  0
    1.2810   -0.4606    0.0000 C   0  0  0  0  0  0  0  0  0
    0.5665   -0.8731    0.0000 C   0  0  0  0  0  0  0  0  0
  1  2  1  0  0  0  0
  1  5  1  0  0  0  0
  1  7  1  0  0  0  0
  2  3  1  0  0  0  0
  3  4  1  0  0  0  0
  4  5  1  0  0  0  0
  5  6  1  0  0  0  0
  7  8  1  0  0  0  0
  8  9  1  0  0  0  0
  9 10  4  0  0  0  0
  9 14  4  0  0  0  0
 10 11  4  0  0  0  0
 11 12  4  0  0  0  0
 11 18  4  0  0  0  0
 12 13  4  0  0  0  0
 12 15  4  0  0  0  0
 13 14  4  0  0  0  0
 15 16  4  0  0  0  0
 16 17  4  0  0  0  0
 17 18  4  0  0  0  0
M  END
>  <Name_Molregno>
438427

>  <HISTAMINE H3>
8.37

$$$$
438429
  Marvin  02231216192D 0   1.00000     0.00000     0

 13 14  0  0  0  0  0  0  0  0999 V2000
   -1.6312    1.0443    0.0000 N   0  0  0  0  0  0  0  0  0
   -1.6312    0.2193    0.0000 C   0  0  0  0  0  0  0  0  0
   -2.3457   -0.1932    0.0000 C   0  0  0  0  0  0  0  0  0
   -3.0602    0.2193    0.0000 C   0  0  0  0  0  0  0  0  0
   -3.0602    1.0443    0.0000 C   0  0  0  0  0  0  0  0  0
   -2.3457    1.4568    0.0000 C   0  0  0  0  0  0  0  0  0
   -2.3457   -1.0182    0.0000 C   0  0  0  0  0  0  0  0  0
   -1.6312   -1.4307    0.0000 C   0  0  0  0  0  0  0  0  0
   -1.6312   -2.2557    0.0000 N   0  0  0  0  0  0  0  0  0
   -0.9638   -2.7406    0.0000 C   0  0  0  0  0  0  0  0  0
   -1.2187   -3.5252    0.0000 C   0  0  0  0  0  0  0  0  0
   -2.0437   -3.5252    0.0000 C   0  0  0  0  0  0  0  0  0
   -2.2987   -2.7406    0.0000 C   0  0  0  0  0  0  0  0  0
  1  2  4  0  0  0  0
  1  6  4  0  0  0  0
  2  3  4  0  0  0  0
  3  4  4  0  0  0  0
  3  7  1  0  0  0  0
  4  5  4  0  0  0  0
  5  6  4  0  0  0  0
  7  8  1  0  0  0  0
  8  9  1  0  0  0  0
  9 10  1  0  0  0  0
  9 13  1  0  0  0  0
 10 11  1  0  0  0  0
 11 12  1  0  0  0  0
 12 13  1  0  0  0  0
M  END
>  <Name_Molregno>
438429

>  <HISTAMINE H3>
6.47

$$$$
438430
  Marvin  02231216192D 0   1.00000     0.00000     0

 14 15  0  0  1  0  0  0  0  0999 V2000
   -1.6712    1.0497    0.0000 N   0  0  0  0  0  0  0  0  0
   -1.6712    0.2247    0.0000 C   0  0  0  0  0  0  0  0  0
   -2.3857   -0.1878    0.0000 C   0  0  0  0  0  0  0  0  0
   -3.1002    0.2247    0.0000 C   0  0  0  0  0  0  0  0  0
   -3.1002    1.0497    0.0000 C   0  0  0  0  0  0  0  0  0
   -2.3857    1.4622    0.0000 C   0  0  0  0  0  0  0  0  0
   -2.3857   -1.0128    0.0000 C   0  0  0  0  0  0  0  0  0
   -1.6712   -1.4253    0.0000 C   0  0  0  0  0  0  0  0  0
   -1.6712   -2.2503    0.0000 N   0  0  0  0  0  0  0  0  0
   -1.0038   -2.7352    0.0000 C   0  0  0  0  0  0  0  0  0
   -1.2587   -3.5198    0.0000 C   0  0  0  0  0  0  0  0  0
   -2.0837   -3.5198    0.0000 C   0  0  0  0  0  0  0  0  0
   -2.3387   -2.7352    0.0000 C   0  0  0  0  0  0  0  0  0
   -3.1233   -2.4803    0.0000 C   0  0  0  0  0  0  0  0  0
  1  2  4  0  0  0  0
  1  6  4  0  0  0  0
  2  3  4  0  0  0  0
  3  4  4  0  0  0  0
  3  7  1  0  0  0  0
  4  5  4  0  0  0  0
  5  6  4  0  0  0  0
  7  8  1  0  0  0  0
  8  9  1  0  0  0  0
  9 10  1  0  0  0  0
  9 13  1  0  0  0  0
 10 11  1  0  0  0  0
 11 12  1  0  0  0  0
 12 13  1  0  0  0  0
 13 14  1  0  0  0  0
M  END
>  <Name_Molregno>
438430

>  <HISTAMINE H3>
6.5

$$$$
438451
  Marvin  02231216192D 0   1.00000     0.00000     0

 29 32  0  0  0  0  0  0  0  0999 V2000
   -7.0668   -1.5061    0.0000 S   0  0  0  0  0  0  0  0  0
   -7.0668   -2.3311    0.0000 C   0  0  0  0  0  0  0  0  0
   -6.3523   -1.0936    0.0000 C   0  0  0  0  0  0  0  0  0
   -6.3523   -0.2686    0.0000 C   0  0  0  0  0  0  0  0  0
   -5.6379    0.1439    0.0000 C   0  0  0  0  0  0  0  0  0
   -4.9234   -0.2686    0.0000 C   0  0  0  0  0  0  0  0  0
   -4.2089    0.1439    0.0000 O   0  0  0  0  0  0  0  0  0
   -3.4945   -0.2686    0.0000 C   0  0  0  0  0  0  0  0  0
   -2.7800    0.1439    0.0000 C   0  0  0  0  0  0  0  0  0
   -2.0655   -0.2686    0.0000 C   0  0  0  0  0  0  0  0  0
   -2.0655   -1.0936    0.0000 C   0  0  0  0  0  0  0  0  0
   -2.7800   -1.5061    0.0000 C   0  0  0  0  0  0  0  0  0
   -3.4945   -1.0936    0.0000 C   0  0  0  0  0  0  0  0  0
   -4.2089   -1.5061    0.0000 C   0  0  0  0  0  0  0  0  0
   -4.2089   -2.3311    0.0000 N   0  0  0  0  0  0  0  0  0
   -4.9234   -2.7436    0.0000 C   0  0  0  0  0  0  0  0  0
   -1.3510   -1.5061    0.0000 C   0  0  0  0  0  0  0  0  0
   -0.6366   -1.0936    0.0000 O   0  0  0  0  0  0  0  0  0
   -1.3510   -2.3311    0.0000 N   0  0  0  0  0  0  0  0  0
   -0.6366   -2.7436    0.0000 C   0  0  0  0  0  0  0  0  0
   -0.6366   -3.5686    0.0000 C   0  0  0  0  0  0  0  0  0
   -1.3510   -3.9811    0.0000 N   0  0  0  0  0  0  0  0  0
   -2.0655   -3.5686    0.0000 C   0  0  0  0  0  0  0  0  0
   -2.0655   -2.7436    0.0000 C   0  0  0  0  0  0  0  0  0
   -1.3510   -4.8061    0.0000 C   0  0  0  0  0  0  0  0  0
   -0.9385   -5.5205    0.0000 C   0  0  0  0  0  0  0  0  0
   -1.7635   -5.5205    0.0000 C   0  0  0  0  0  0  0  0  0
   -4.9234   -1.0936    0.0000 C   0  0  0  0  0  0  0  0  0
   -5.6379   -1.5061    0.0000 C   0  0  0  0  0  0  0  0  0
  1  2  1  0  0  0  0
  1  3  1  0  0  0  0
  3  4  4  0  0  0  0
  3 29  4  0  0  0  0
  4  5  4  0  0  0  0
  5  6  4  0  0  0  0
  6  7  1  0  0  0  0
  6 28  4  0  0  0  0
  7  8  1  0  0  0  0
  8  9  4  0  0  0  0
  8 13  4  0  0  0  0
  9 10  4  0  0  0  0
 10 11  4  0  0  0  0
 11 12  4  0  0  0  0
 11 17  1  0  0  0  0
 12 13  4  0  0  0  0
 13 14  1  0  0  0  0
 14 15  1  0  0  0  0
 15 16  1  0  0  0  0
 17 18  2  0  0  0  0
 17 19  1  0  0  0  0
 19 20  1  0  0  0  0
 19 24  1  0  0  0  0
 20 21  1  0  0  0  0
 21 22  1  0  0  0  0
 22 23  1  0  0  0  0
 22 25  1  0  0  0  0
 23 24  1  0  0  0  0
 25 26  1  0  0  0  0
 25 27  1  0  0  0  0
 26 27  1  0  0  0  0
 28 29  4  0  0  0  0
M  END
>  <Name_Molregno>
438451

>  <Dopamine transporter>
5.08

>  <HISTAMINE H3>
7.54

>  <Norepinephrine transporter>
5.43

>  <Serotonin transporter>
8.3

$$$$
438474
  Marvin  02231216192D 0   1.00000     0.00000     0

 20 22  0  0  1  0  0  0  0  0999 V2000
    2.7346    0.6591    0.0000 O   0  0  0  0  0  0  0  0  0
    2.4797   -0.1255    0.0000 C   0  0  0  0  0  0  0  0  0
    1.6547   -0.1255    0.0000 N   0  0  0  0  0  0  0  0  0
    1.3997    0.6591    0.0000 C   0  0  0  0  0  0  0  0  0
    0.6151    0.9141    0.0000 C   0  0  0  0  0  0  0  0  0
    0.4436    1.7210    0.0000 C   0  0  0  0  0  0  0  0  0
   -0.3410    1.9760    0.0000 N   0  0  0  0  0  0  0  0  0
   -1.0085    1.4910    0.0000 C   0  0  0  0  0  0  0  0  0
   -1.6759    1.9760    0.0000 C   0  0  0  0  0  0  0  0  0
   -1.4210    2.7606    0.0000 C   0  0  0  0  0  0  0  0  0
   -0.5960    2.7606    0.0000 C   0  0  0  0  0  0  0  0  0
   -0.1111    3.4280    0.0000 C   0  0  0  0  0  0  0  0  0
    2.0672    1.1440    0.0000 C   0  0  0  0  0  0  0  0  0
    2.0672    1.9690    0.0000 C   0  0  0  0  0  0  0  0  0
    2.9646   -0.7929    0.0000 C   0  0  0  0  0  0  0  0  0
    3.7851   -0.7067    0.0000 C   0  0  0  0  0  0  0  0  0
    4.2700   -1.3742    0.0000 C   0  0  0  0  0  0  0  0  0
    3.9344   -2.1278    0.0000 C   0  0  0  0  0  0  0  0  0
    3.1139   -2.2141    0.0000 C   0  0  0  0  0  0  0  0  0
    2.6290   -1.5466    0.0000 C   0  0  0  0  0  0  0  0  0
  1  2  4  0  0  0  0
  1 13  4  0  0  0  0
  2  3  4  0  0  0  0
  2 15  1  0  0  0  0
  3  4  4  0  0  0  0
  4  5  1  0  0  0  0
  4 13  4  0  0  0  0
  5  6  1  0  0  0  0
  6  7  1  0  0  0  0
  7  8  1  0  0  0  0
  7 11  1  0  0  0  0
  8  9  1  0  0  0  0
  9 10  1  0  0  0  0
 10 11  1  0  0  0  0
 11 12  1  0  0  0  0
 13 14  1  0  0  0  0
 15 16  4  0  0  0  0
 15 20  4  0  0  0  0
 16 17  4  0  0  0  0
 17 18  4  0  0  0  0
 18 19  4  0  0  0  0
 19 20  4  0  0  0  0
M  END
>  <Name_Molregno>
438474

>  <HISTAMINE H3>
8.01

$$$$
438476
  Marvin  02231216192D 0   1.00000     0.00000     0

 17 19  0  0  0  0  0  0  0  0999 V2000
   -4.0447   -0.7995    0.0000 N   0  0  0  0  0  0  0  0  0
   -4.1309   -1.6200    0.0000 C   0  0  0  0  0  0  0  0  0
   -4.9379   -1.7915    0.0000 C   0  0  0  0  0  0  0  0  0
   -5.3504   -1.0770    0.0000 C   0  0  0  0  0  0  0  0  0
   -4.7983   -0.4639    0.0000 C   0  0  0  0  0  0  0  0  0
   -3.3302   -0.3870    0.0000 C   0  0  0  0  0  0  0  0  0
   -2.6157   -0.7995    0.0000 C   0  0  0  0  0  0  0  0  0
   -1.9012   -0.3870    0.0000 C   0  0  0  0  0  0  0  0  0
   -1.1868   -0.7995    0.0000 C   0  0  0  0  0  0  0  0  0
   -0.4723   -0.3870    0.0000 C   0  0  0  0  0  0  0  0  0
   -0.4723    0.4380    0.0000 C   0  0  0  0  0  0  0  0  0
   -1.1868    0.8505    0.0000 C   0  0  0  0  0  0  0  0  0
   -1.9012    0.4380    0.0000 C   0  0  0  0  0  0  0  0  0
    0.2422    0.8505    0.0000 C   0  0  0  0  0  0  0  0  0
    0.9566    0.4380    0.0000 C   0  0  0  0  0  0  0  0  0
    0.9566   -0.3870    0.0000 C   0  0  0  0  0  0  0  0  0
    0.2422   -0.7995    0.0000 C   0  0  0  0  0  0  0  0  0
  1  2  1  0  0  0  0
  1  5  1  0  0  0  0
  1  6  1  0  0  0  0
  2  3  1  0  0  0  0
  3  4  1  0  0  0  0
  4  5  1  0  0  0  0
  6  7  1  0  0  0  0
  7  8  1  0  0  0  0
  8  9  4  0  0  0  0
  8 13  4  0  0  0  0
  9 10  4  0  0  0  0
 10 11  4  0  0  0  0
 10 17  4  0  0  0  0
 11 12  4  0  0  0  0
 11 14  4  0  0  0  0
 12 13  4  0  0  0  0
 14 15  4  0  0  0  0
 15 16  4  0  0  0  0
 16 17  4  0  0  0  0
M  END
>  <Name_Molregno>
438476

>  <HISTAMINE H3>
7.52

$$$$
438478
  Marvin  02231216192D 0   1.00000     0.00000     0

 13 14  0  0  0  0  0  0  0  0999 V2000
    0.1799    0.8892    0.0000 N   0  0  0  0  0  0  0  0  0
    0.1799    1.7142    0.0000 C   0  0  0  0  0  0  0  0  0
    0.8944    2.1267    0.0000 C   0  0  0  0  0  0  0  0  0
    1.6089    1.7142    0.0000 C   0  0  0  0  0  0  0  0  0
    1.6089    0.8892    0.0000 C   0  0  0  0  0  0  0  0  0
    0.8944    0.4767    0.0000 C   0  0  0  0  0  0  0  0  0
    0.8944   -0.3483    0.0000 C   0  0  0  0  0  0  0  0  0
    1.6089   -0.7608    0.0000 C   0  0  0  0  0  0  0  0  0
    1.6089   -1.5858    0.0000 N   0  0  0  0  0  0  0  0  0
    2.2763   -2.0708    0.0000 C   0  0  0  0  0  0  0  0  0
    2.0214   -2.8554    0.0000 C   0  0  0  0  0  0  0  0  0
    1.1964   -2.8554    0.0000 C   0  0  0  0  0  0  0  0  0
    0.9414   -2.0708    0.0000 C   0  0  0  0  0  0  0  0  0
  1  2  4  0  0  0  0
  1  6  4  0  0  0  0
  2  3  4  0  0  0  0
  3  4  4  0  0  0  0
  4  5  4  0  0  0  0
  5  6  4  0  0  0  0
  6  7  1  0  0  0  0
  7  8  1  0  0  0  0
  8  9  1  0  0  0  0
  9 10  1  0  0  0  0
  9 13  1  0  0  0  0
 10 11  1  0  0  0  0
 11 12  1  0  0  0  0
 12 13  1  0  0  0  0
M  END
>  <Name_Molregno>
438478

>  <HISTAMINE H3>
6.46

$$$$
438479
  Marvin  02231216192D 0   1.00000     0.00000     0

 14 15  0  0  1  0  0  0  0  0999 V2000
    0.3525    1.1027    0.0000 N   0  0  0  0  0  0  0  0  0
    0.3525    1.9277    0.0000 C   0  0  0  0  0  0  0  0  0
    1.0670    2.3402    0.0000 C   0  0  0  0  0  0  0  0  0
    1.7815    1.9277    0.0000 C   0  0  0  0  0  0  0  0  0
    1.7815    1.1027    0.0000 C   0  0  0  0  0  0  0  0  0
    1.0670    0.6902    0.0000 C   0  0  0  0  0  0  0  0  0
    1.0670   -0.1348    0.0000 C   0  0  0  0  0  0  0  0  0
    1.7815   -0.5473    0.0000 C   0  0  0  0  0  0  0  0  0
    1.7815   -1.3723    0.0000 N   0  0  0  0  0  0  0  0  0
    2.4489   -1.8572    0.0000 C   0  0  0  0  0  0  0  0  0
    2.1940   -2.6418    0.0000 C   0  0  0  0  0  0  0  0  0
    1.3690   -2.6418    0.0000 C   0  0  0  0  0  0  0  0  0
    1.1141   -1.8572    0.0000 C   0  0  0  0  0  0  0  0  0
    0.3294   -1.6023    0.0000 C   0  0  0  0  0  0  0  0  0
  1  2  4  0  0  0  0
  1  6  4  0  0  0  0
  2  3  4  0  0  0  0
  3  4  4  0  0  0  0
  4  5  4  0  0  0  0
  5  6  4  0  0  0  0
  6  7  1  0  0  0  0
  7  8  1  0  0  0  0
  8  9  1  0  0  0  0
  9 10  1  0  0  0  0
  9 13  1  0  0  0  0
 10 11  1  0  0  0  0
 11 12  1  0  0  0  0
 12 13  1  0  0  0  0
 13 14  1  0  0  0  0
M  END
>  <Name_Molregno>
438479

>  <HISTAMINE H3>
6.58

$$$$
438496
  Marvin  02231216192D 0   1.00000     0.00000     0

 31 34  0  0  0  0  0  0  0  0999 V2000
   -7.7222   -2.5010    0.0000 F   0  0  0  0  0  0  0  0  0
   -7.0078   -2.0885    0.0000 C   0  0  0  0  0  0  0  0  0
   -6.5953   -2.8030    0.0000 F   0  0  0  0  0  0  0  0  0
   -7.4203   -1.3740    0.0000 F   0  0  0  0  0  0  0  0  0
   -6.2933   -1.6760    0.0000 C   0  0  0  0  0  0  0  0  0
   -6.2933   -0.8510    0.0000 C   0  0  0  0  0  0  0  0  0
   -5.5788   -0.4385    0.0000 C   0  0  0  0  0  0  0  0  0
   -4.8643   -0.8510    0.0000 C   0  0  0  0  0  0  0  0  0
   -4.1499   -0.4385    0.0000 O   0  0  0  0  0  0  0  0  0
   -3.4354   -0.8510    0.0000 C   0  0  0  0  0  0  0  0  0
   -2.7209   -0.4385    0.0000 C   0  0  0  0  0  0  0  0  0
   -2.0065   -0.8510    0.0000 C   0  0  0  0  0  0  0  0  0
   -2.0065   -1.6760    0.0000 C   0  0  0  0  0  0  0  0  0
   -2.7209   -2.0885    0.0000 C   0  0  0  0  0  0  0  0  0
   -3.4354   -1.6760    0.0000 C   0  0  0  0  0  0  0  0  0
   -4.1499   -2.0885    0.0000 C   0  0  0  0  0  0  0  0  0
   -4.1499   -2.9135    0.0000 N   0  0  0  0  0  0  0  0  0
   -4.8643   -3.3260    0.0000 C   0  0  0  0  0  0  0  0  0
   -1.2920   -2.0885    0.0000 C   0  0  0  0  0  0  0  0  0
   -0.5775   -1.6760    0.0000 O   0  0  0  0  0  0  0  0  0
   -1.2920   -2.9135    0.0000 N   0  0  0  0  0  0  0  0  0
   -0.5775   -3.3260    0.0000 C   0  0  0  0  0  0  0  0  0
   -0.5775   -4.1510    0.0000 C   0  0  0  0  0  0  0  0  0
   -1.2920   -4.5635    0.0000 N   0  0  0  0  0  0  0  0  0
   -2.0065   -4.1510    0.0000 C   0  0  0  0  0  0  0  0  0
   -2.0065   -3.3260    0.0000 C   0  0  0  0  0  0  0  0  0
   -1.2920   -5.3885    0.0000 C   0  0  0  0  0  0  0  0  0
   -0.8795   -6.1030    0.0000 C   0  0  0  0  0  0  0  0  0
   -1.7045   -6.1030    0.0000 C   0  0  0  0  0  0  0  0  0
   -4.8643   -1.6760    0.0000 C   0  0  0  0  0  0  0  0  0
   -5.5788   -2.0885    0.0000 C   0  0  0  0  0  0  0  0  0
  1  2  1  0  0  0  0
  2  3  1  0  0  0  0
  2  4  1  0  0  0  0
  2  5  1  0  0  0  0
  5  6  4  0  0  0  0
  5 31  4  0  0  0  0
  6  7  4  0  0  0  0
  7  8  4  0  0  0  0
  8  9  1  0  0  0  0
  8 30  4  0  0  0  0
  9 10  1  0  0  0  0
 10 11  4  0  0  0  0
 10 15  4  0  0  0  0
 11 12  4  0  0  0  0
 12 13  4  0  0  0  0
 13 14  4  0  0  0  0
 13 19  1  0  0  0  0
 14 15  4  0  0  0  0
 15 16  1  0  0  0  0
 16 17  1  0  0  0  0
 17 18  1  0  0  0  0
 19 20  2  0  0  0  0
 19 21  1  0  0  0  0
 21 22  1  0  0  0  0
 21 26  1  0  0  0  0
 22 23  1  0  0  0  0
 23 24  1  0  0  0  0
 24 25  1  0  0  0  0
 24 27  1  0  0  0  0
 25 26  1  0  0  0  0
 27 28  1  0  0  0  0
 27 29  1  0  0  0  0
 28 29  1  0  0  0  0
 30 31  4  0  0  0  0
M  END
>  <Name_Molregno>
438496

>  <HISTAMINE H3>
7.43

>  <Serotonin transporter>
7.43

$$$$
438498
  Marvin  02231216192D 0   1.00000     0.00000     0

 28 31  0  0  0  0  0  0  0  0999 V2000
   -0.5269    4.6792    0.0000 F   0  0  0  0  0  0  0  0  0
    0.1876    4.2667    0.0000 C   0  0  0  0  0  0  0  0  0
    0.9020    4.6792    0.0000 C   0  0  0  0  0  0  0  0  0
    1.6165    4.2667    0.0000 C   0  0  0  0  0  0  0  0  0
    2.3310    4.6792    0.0000 O   0  0  0  0  0  0  0  0  0
    3.0454    4.2667    0.0000 C   0  0  0  0  0  0  0  0  0
    3.7599    4.6792    0.0000 C   0  0  0  0  0  0  0  0  0
    4.4744    4.2667    0.0000 C   0  0  0  0  0  0  0  0  0
    4.4744    3.4417    0.0000 C   0  0  0  0  0  0  0  0  0
    3.7599    3.0292    0.0000 C   0  0  0  0  0  0  0  0  0
    3.0454    3.4417    0.0000 C   0  0  0  0  0  0  0  0  0
    2.3310    3.0292    0.0000 C   0  0  0  0  0  0  0  0  0
    2.3310    2.2042    0.0000 N   0  0  0  0  0  0  0  0  0
    1.6165    1.7917    0.0000 C   0  0  0  0  0  0  0  0  0
    5.1889    3.0292    0.0000 C   0  0  0  0  0  0  0  0  0
    5.9033    3.4417    0.0000 O   0  0  0  0  0  0  0  0  0
    5.1889    2.2042    0.0000 N   0  0  0  0  0  0  0  0  0
    5.9033    1.7917    0.0000 C   0  0  0  0  0  0  0  0  0
    5.9033    0.9667    0.0000 C   0  0  0  0  0  0  0  0  0
    5.1889    0.5542    0.0000 N   0  0  0  0  0  0  0  0  0
    4.4744    0.9667    0.0000 C   0  0  0  0  0  0  0  0  0
    4.4744    1.7917    0.0000 C   0  0  0  0  0  0  0  0  0
    5.1889   -0.2708    0.0000 C   0  0  0  0  0  0  0  0  0
    5.6014   -0.9853    0.0000 C   0  0  0  0  0  0  0  0  0
    4.7764   -0.9853    0.0000 C   0  0  0  0  0  0  0  0  0
    1.6165    3.4417    0.0000 C   0  0  0  0  0  0  0  0  0
    0.9020    3.0292    0.0000 C   0  0  0  0  0  0  0  0  0
    0.1876    3.4417    0.0000 C   0  0  0  0  0  0  0  0  0
  1  2  1  0  0  0  0
  2  3  4  0  0  0  0
  2 28  4  0  0  0  0
  3  4  4  0  0  0  0
  4  5  1  0  0  0  0
  4 26  4  0  0  0  0
  5  6  1  0  0  0  0
  6  7  4  0  0  0  0
  6 11  4  0  0  0  0
  7  8  4  0  0  0  0
  8  9  4  0  0  0  0
  9 10  4  0  0  0  0
  9 15  1  0  0  0  0
 10 11  4  0  0  0  0
 11 12  1  0  0  0  0
 12 13  1  0  0  0  0
 13 14  1  0  0  0  0
 15 16  2  0  0  0  0
 15 17  1  0  0  0  0
 17 18  1  0  0  0  0
 17 22  1  0  0  0  0
 18 19  1  0  0  0  0
 19 20  1  0  0  0  0
 20 21  1  0  0  0  0
 20 23  1  0  0  0  0
 21 22  1  0  0  0  0
 23 24  1  0  0  0  0
 23 25  1  0  0  0  0
 24 25  1  0  0  0  0
 26 27  4  0  0  0  0
 27 28  4  0  0  0  0
M  END
>  <Name_Molregno>
438498

>  <HISTAMINE H3>
7.82

>  <Serotonin transporter>
6.44

$$$$
438503
  Marvin  02231216192D 0   1.00000     0.00000     0

 29 31  0  0  0  0  0  0  0  0999 V2000
   -1.0899    1.0934    0.0000 S   0  0  0  0  0  0  0  0  0
   -1.8044    1.5059    0.0000 C   0  0  0  0  0  0  0  0  0
   -1.0899    0.2684    0.0000 C   0  0  0  0  0  0  0  0  0
   -0.3755   -0.1441    0.0000 C   0  0  0  0  0  0  0  0  0
   -0.3755   -0.9691    0.0000 C   0  0  0  0  0  0  0  0  0
   -1.0899   -1.3816    0.0000 C   0  0  0  0  0  0  0  0  0
   -1.0899   -2.2066    0.0000 O   0  0  0  0  0  0  0  0  0
   -1.8044   -2.6191    0.0000 C   0  0  0  0  0  0  0  0  0
   -1.8044   -3.4441    0.0000 C   0  0  0  0  0  0  0  0  0
   -2.5189   -3.8566    0.0000 C   0  0  0  0  0  0  0  0  0
   -3.2333   -3.4441    0.0000 C   0  0  0  0  0  0  0  0  0
   -3.2333   -2.6191    0.0000 C   0  0  0  0  0  0  0  0  0
   -2.5189   -2.2066    0.0000 C   0  0  0  0  0  0  0  0  0
   -2.5189   -1.3816    0.0000 C   0  0  0  0  0  0  0  0  0
   -3.2333   -0.9691    0.0000 N   0  0  0  0  0  0  0  0  0
   -3.2333   -0.1441    0.0000 C   0  0  0  0  0  0  0  0  0
   -3.9478   -3.8566    0.0000 C   0  0  0  0  0  0  0  0  0
   -3.9478   -4.6816    0.0000 O   0  0  0  0  0  0  0  0  0
   -4.6623   -3.4441    0.0000 N   0  0  0  0  0  0  0  0  0
   -5.3768   -3.8566    0.0000 C   0  0  0  0  0  0  0  0  0
   -6.0912   -3.4441    0.0000 C   0  0  0  0  0  0  0  0  0
   -6.0912   -2.6191    0.0000 N   0  0  0  0  0  0  0  0  0
   -5.3768   -2.2066    0.0000 C   0  0  0  0  0  0  0  0  0
   -4.6623   -2.6191    0.0000 C   0  0  0  0  0  0  0  0  0
   -6.8057   -2.2066    0.0000 C   0  0  0  0  0  0  0  0  0
   -7.5202   -2.6191    0.0000 C   0  0  0  0  0  0  0  0  0
   -6.8057   -1.3816    0.0000 C   0  0  0  0  0  0  0  0  0
   -1.8044   -0.9691    0.0000 C   0  0  0  0  0  0  0  0  0
   -1.8044   -0.1441    0.0000 C   0  0  0  0  0  0  0  0  0
  1  2  1  0  0  0  0
  1  3  1  0  0  0  0
  3  4  4  0  0  0  0
  3 29  4  0  0  0  0
  4  5  4  0  0  0  0
  5  6  4  0  0  0  0
  6  7  1  0  0  0  0
  6 28  4  0  0  0  0
  7  8  1  0  0  0  0
  8  9  4  0  0  0  0
  8 13  4  0  0  0  0
  9 10  4  0  0  0  0
 10 11  4  0  0  0  0
 11 12  4  0  0  0  0
 11 17  1  0  0  0  0
 12 13  4  0  0  0  0
 13 14  1  0  0  0  0
 14 15  1  0  0  0  0
 15 16  1  0  0  0  0
 17 18  2  0  0  0  0
 17 19  1  0  0  0  0
 19 20  1  0  0  0  0
 19 24  1  0  0  0  0
 20 21  1  0  0  0  0
 21 22  1  0  0  0  0
 22 23  1  0  0  0  0
 22 25  1  0  0  0  0
 23 24  1  0  0  0  0
 25 26  1  0  0  0  0
 25 27  1  0  0  0  0
 28 29  4  0  0  0  0
M  END
>  <Name_Molregno>
438503

>  <Dopamine transporter>
5.14

>  <HISTAMINE H3>
8.66

>  <Norepinephrine transporter>
6.28

>  <Serotonin transporter>
8.23

$$$$
438525
  Marvin  02231216192D 0   1.00000     0.00000     0

 19 21  0  0  0  0  0  0  0  0999 V2000
    2.5136    0.7718    0.0000 O   0  0  0  0  0  0  0  0  0
    2.2587   -0.0128    0.0000 C   0  0  0  0  0  0  0  0  0
    1.4337   -0.0128    0.0000 N   0  0  0  0  0  0  0  0  0
    1.1787    0.7718    0.0000 C   0  0  0  0  0  0  0  0  0
    0.3941    1.0267    0.0000 C   0  0  0  0  0  0  0  0  0
    0.2226    1.8337    0.0000 C   0  0  0  0  0  0  0  0  0
   -0.5620    2.0887    0.0000 N   0  0  0  0  0  0  0  0  0
   -1.2295    1.6037    0.0000 C   0  0  0  0  0  0  0  0  0
   -1.8969    2.0887    0.0000 C   0  0  0  0  0  0  0  0  0
   -1.6420    2.8733    0.0000 C   0  0  0  0  0  0  0  0  0
   -0.8170    2.8733    0.0000 C   0  0  0  0  0  0  0  0  0
    1.8462    1.2567    0.0000 C   0  0  0  0  0  0  0  0  0
    1.8462    2.0817    0.0000 C   0  0  0  0  0  0  0  0  0
    2.7436   -0.6803    0.0000 C   0  0  0  0  0  0  0  0  0
    3.5641   -0.5940    0.0000 C   0  0  0  0  0  0  0  0  0
    4.0490   -1.2615    0.0000 C   0  0  0  0  0  0  0  0  0
    3.7135   -2.0151    0.0000 C   0  0  0  0  0  0  0  0  0
    2.8930   -2.1014    0.0000 C   0  0  0  0  0  0  0  0  0
    2.4080   -1.4339    0.0000 C   0  0  0  0  0  0  0  0  0
  1  2  4  0  0  0  0
  1 12  4  0  0  0  0
  2  3  4  0  0  0  0
  2 14  1  0  0  0  0
  3  4  4  0  0  0  0
  4  5  1  0  0  0  0
  4 12  4  0  0  0  0
  5  6  1  0  0  0  0
  6  7  1  0  0  0  0
  7  8  1  0  0  0  0
  7 11  1  0  0  0  0
  8  9  1  0  0  0  0
  9 10  1  0  0  0  0
 10 11  1  0  0  0  0
 12 13  1  0  0  0  0
 14 15  4  0  0  0  0
 14 19  4  0  0  0  0
 15 16  4  0  0  0  0
 16 17  4  0  0  0  0
 17 18  4  0  0  0  0
 18 19  4  0  0  0  0
M  END
>  <Name_Molregno>
438525

>  <HISTAMINE H3>
7.59

$$$$
438527
  Marvin  02231216192D 0   1.00000     0.00000     0

 19 21  0  0  1  0  0  0  0  0999 V2000
   -0.0148    0.1286    0.0000 O   0  0  0  0  0  0  0  0  0
    0.6996    0.5411    0.0000 C   0  0  0  0  0  0  0  0  0
   -0.7293    0.5411    0.0000 C   0  0  0  0  0  0  0  0  0
   -1.4438    0.1286    0.0000 C   0  0  0  0  0  0  0  0  0
   -2.1582    0.5411    0.0000 C   0  0  0  0  0  0  0  0  0
   -2.9429    0.2862    0.0000 C   0  0  0  0  0  0  0  0  0
   -3.4278    0.9536    0.0000 C   0  0  0  0  0  0  0  0  0
   -2.9429    1.6211    0.0000 N   0  0  0  0  0  0  0  0  0
   -2.1582    1.3661    0.0000 C   0  0  0  0  0  0  0  0  0
   -1.4438    1.7786    0.0000 C   0  0  0  0  0  0  0  0  0
   -0.7293    1.3661    0.0000 C   0  0  0  0  0  0  0  0  0
   -4.2528    0.9536    0.0000 C   0  0  0  0  0  0  0  0  0
   -4.6653    0.2392    0.0000 C   0  0  0  0  0  0  0  0  0
   -5.4903    0.2392    0.0000 N   0  0  0  0  0  0  0  0  0
   -5.9752   -0.4283    0.0000 C   0  0  0  0  0  0  0  0  0
   -6.7598   -0.1733    0.0000 C   0  0  0  0  0  0  0  0  0
   -6.7598    0.6517    0.0000 C   0  0  0  0  0  0  0  0  0
   -5.9752    0.9066    0.0000 C   0  0  0  0  0  0  0  0  0
   -5.7203    1.6912    0.0000 C   0  0  0  0  0  0  0  0  0
  1  2  1  0  0  0  0
  1  3  1  0  0  0  0
  3  4  4  0  0  0  0
  3 11  4  0  0  0  0
  4  5  4  0  0  0  0
  5  6  4  0  0  0  0
  5  9  4  0  0  0  0
  6  7  4  0  0  0  0
  7  8  4  0  0  0  0
  7 12  1  0  0  0  0
  8  9  4  0  0  0  0
  9 10  4  0  0  0  0
 10 11  4  0  0  0  0
 12 13  1  0  0  0  0
 13 14  1  0  0  0  0
 14 15  1  0  0  0  0
 14 18  1  0  0  0  0
 15 16  1  0  0  0  0
 16 17  1  0  0  0  0
 17 18  1  0  0  0  0
 18 19  1  0  0  0  0
M  STY  1   1 DAT
M  SAL   1  1   8
M  SDT   1 MRV_IMPLICIT_H                                        
M  SDD   1     0.0000    0.0000    DR    ALL  0       0  
M  SED   1 IMPL_H1
M  END
>  <Name_Molregno>
438527

>  <HISTAMINE H3>
7.41

$$$$
438543
  Marvin  02231216192D 0   1.00000     0.00000     0

 27 30  0  0  0  0  0  0  0  0999 V2000
    0.5973    1.9050    0.0000 O   0  0  0  0  0  0  0  0  0
    1.3118    1.4925    0.0000 C   0  0  0  0  0  0  0  0  0
    2.0262    1.9050    0.0000 C   0  0  0  0  0  0  0  0  0
    2.7407    1.4925    0.0000 C   0  0  0  0  0  0  0  0  0
    2.7407    0.6675    0.0000 C   0  0  0  0  0  0  0  0  0
    2.0262    0.2550    0.0000 C   0  0  0  0  0  0  0  0  0
    1.3118    0.6675    0.0000 C   0  0  0  0  0  0  0  0  0
    0.5973    0.2550    0.0000 C   0  0  0  0  0  0  0  0  0
    0.5973   -0.5700    0.0000 N   0  0  0  0  0  0  0  0  0
   -0.1172   -0.9825    0.0000 C   0  0  0  0  0  0  0  0  0
    3.4552    0.2550    0.0000 C   0  0  0  0  0  0  0  0  0
    4.1696    0.6675    0.0000 O   0  0  0  0  0  0  0  0  0
    3.4552   -0.5700    0.0000 N   0  0  0  0  0  0  0  0  0
    4.1696   -0.9825    0.0000 C   0  0  0  0  0  0  0  0  0
    4.1696   -1.8075    0.0000 C   0  0  0  0  0  0  0  0  0
    3.4552   -2.2200    0.0000 N   0  0  0  0  0  0  0  0  0
    2.7407   -1.8075    0.0000 C   0  0  0  0  0  0  0  0  0
    2.7407   -0.9825    0.0000 C   0  0  0  0  0  0  0  0  0
    3.4552   -3.0450    0.0000 C   0  0  0  0  0  0  0  0  0
    3.8677   -3.7595    0.0000 C   0  0  0  0  0  0  0  0  0
    3.0427   -3.7595    0.0000 C   0  0  0  0  0  0  0  0  0
    0.5973    2.7300    0.0000 C   0  0  0  0  0  0  0  0  0
   -0.1172    3.1425    0.0000 C   0  0  0  0  0  0  0  0  0
   -0.1172    3.9675    0.0000 C   0  0  0  0  0  0  0  0  0
    0.5973    4.3800    0.0000 C   0  0  0  0  0  0  0  0  0
    1.3118    3.9675    0.0000 C   0  0  0  0  0  0  0  0  0
    1.3118    3.1425    0.0000 C   0  0  0  0  0  0  0  0  0
  1  2  1  0  0  0  0
  1 22  1  0  0  0  0
  2  3  4  0  0  0  0
  2  7  4  0  0  0  0
  3  4  4  0  0  0  0
  4  5  4  0  0  0  0
  5  6  4  0  0  0  0
  5 11  1  0  0  0  0
  6  7  4  0  0  0  0
  7  8  1  0  0  0  0
  8  9  1  0  0  0  0
  9 10  1  0  0  0  0
 11 12  2  0  0  0  0
 11 13  1  0  0  0  0
 13 14  1  0  0  0  0
 13 18  1  0  0  0  0
 14 15  1  0  0  0  0
 15 16  1  0  0  0  0
 16 17  1  0  0  0  0
 16 19  1  0  0  0  0
 17 18  1  0  0  0  0
 19 20  1  0  0  0  0
 19 21  1  0  0  0  0
 20 21  1  0  0  0  0
 22 23  4  0  0  0  0
 22 27  4  0  0  0  0
 23 24  4  0  0  0  0
 24 25  4  0  0  0  0
 25 26  4  0  0  0  0
 26 27  4  0  0  0  0
M  END
>  <Name_Molregno>
438543

>  <HISTAMINE H3>
8.17

>  <Serotonin transporter>
6.27

$$$$
438546
  Marvin  02231216192D 0   1.00000     0.00000     0

 28 31  0  0  0  0  0  0  0  0999 V2000
   -0.5269    4.6792    0.0000 Cl  0  0  0  0  0  0  0  0  0
    0.1876    4.2667    0.0000 C   0  0  0  0  0  0  0  0  0
    0.9020    4.6792    0.0000 C   0  0  0  0  0  0  0  0  0
    1.6165    4.2667    0.0000 C   0  0  0  0  0  0  0  0  0
    2.3310    4.6792    0.0000 O   0  0  0  0  0  0  0  0  0
    3.0454    4.2667    0.0000 C   0  0  0  0  0  0  0  0  0
    3.7599    4.6792    0.0000 C   0  0  0  0  0  0  0  0  0
    4.4744    4.2667    0.0000 C   0  0  0  0  0  0  0  0  0
    4.4744    3.4417    0.0000 C   0  0  0  0  0  0  0  0  0
    3.7599    3.0292    0.0000 C   0  0  0  0  0  0  0  0  0
    3.0454    3.4417    0.0000 C   0  0  0  0  0  0  0  0  0
    2.3310    3.0292    0.0000 C   0  0  0  0  0  0  0  0  0
    2.3310    2.2042    0.0000 N   0  0  0  0  0  0  0  0  0
    1.6165    1.7917    0.0000 C   0  0  0  0  0  0  0  0  0
    5.1889    3.0292    0.0000 C   0  0  0  0  0  0  0  0  0
    5.9033    3.4417    0.0000 O   0  0  0  0  0  0  0  0  0
    5.1889    2.2042    0.0000 N   0  0  0  0  0  0  0  0  0
    5.9033    1.7917    0.0000 C   0  0  0  0  0  0  0  0  0
    5.9033    0.9667    0.0000 C   0  0  0  0  0  0  0  0  0
    5.1889    0.5542    0.0000 N   0  0  0  0  0  0  0  0  0
    4.4744    0.9667    0.0000 C   0  0  0  0  0  0  0  0  0
    4.4744    1.7917    0.0000 C   0  0  0  0  0  0  0  0  0
    5.1889   -0.2708    0.0000 C   0  0  0  0  0  0  0  0  0
    5.6014   -0.9853    0.0000 C   0  0  0  0  0  0  0  0  0
    4.7764   -0.9853    0.0000 C   0  0  0  0  0  0  0  0  0
    1.6165    3.4417    0.0000 C   0  0  0  0  0  0  0  0  0
    0.9020    3.0292    0.0000 C   0  0  0  0  0  0  0  0  0
    0.1876    3.4417    0.0000 C   0  0  0  0  0  0  0  0  0
  1  2  1  0  0  0  0
  2  3  4  0  0  0  0
  2 28  4  0  0  0  0
  3  4  4  0  0  0  0
  4  5  1  0  0  0  0
  4 26  4  0  0  0  0
  5  6  1  0  0  0  0
  6  7  4  0  0  0  0
  6 11  4  0  0  0  0
  7  8  4  0  0  0  0
  8  9  4  0  0  0  0
  9 10  4  0  0  0  0
  9 15  1  0  0  0  0
 10 11  4  0  0  0  0
 11 12  1  0  0  0  0
 12 13  1  0  0  0  0
 13 14  1  0  0  0  0
 15 16  2  0  0  0  0
 15 17  1  0  0  0  0
 17 18  1  0  0  0  0
 17 22  1  0  0  0  0
 18 19  1  0  0  0  0
 19 20  1  0  0  0  0
 20 21  1  0  0  0  0
 20 23  1  0  0  0  0
 21 22  1  0  0  0  0
 23 24  1  0  0  0  0
 23 25  1  0  0  0  0
 24 25  1  0  0  0  0
 26 27  4  0  0  0  0
 27 28  4  0  0  0  0
M  END
>  <Name_Molregno>
438546

>  <Dopamine transporter>
5.15

>  <HISTAMINE H3>
7.85

>  <Norepinephrine transporter>
5.7

>  <Serotonin transporter>
6.81

$$$$
438569
  Marvin  02231216192D 0   1.00000     0.00000     0

 18 20  0  0  0  0  0  0  0  0999 V2000
    0.0109    0.1850    0.0000 O   0  0  0  0  0  0  0  0  0
    0.7253    0.5975    0.0000 C   0  0  0  0  0  0  0  0  0
   -0.7036    0.5975    0.0000 C   0  0  0  0  0  0  0  0  0
   -1.4181    0.1850    0.0000 C   0  0  0  0  0  0  0  0  0
   -2.1326    0.5975    0.0000 C   0  0  0  0  0  0  0  0  0
   -2.9172    0.3425    0.0000 C   0  0  0  0  0  0  0  0  0
   -3.4021    1.0100    0.0000 C   0  0  0  0  0  0  0  0  0
   -2.9172    1.6774    0.0000 N   0  0  0  0  0  0  0  0  0
   -2.1326    1.4225    0.0000 C   0  0  0  0  0  0  0  0  0
   -1.4181    1.8350    0.0000 C   0  0  0  0  0  0  0  0  0
   -0.7036    1.4225    0.0000 C   0  0  0  0  0  0  0  0  0
   -4.2271    1.0100    0.0000 C   0  0  0  0  0  0  0  0  0
   -4.6396    0.2955    0.0000 C   0  0  0  0  0  0  0  0  0
   -5.4646    0.2955    0.0000 N   0  0  0  0  0  0  0  0  0
   -5.9495   -0.3719    0.0000 C   0  0  0  0  0  0  0  0  0
   -6.7341   -0.1170    0.0000 C   0  0  0  0  0  0  0  0  0
   -6.7341    0.7080    0.0000 C   0  0  0  0  0  0  0  0  0
   -5.9495    0.9629    0.0000 C   0  0  0  0  0  0  0  0  0
  1  2  1  0  0  0  0
  1  3  1  0  0  0  0
  3  4  4  0  0  0  0
  3 11  4  0  0  0  0
  4  5  4  0  0  0  0
  5  6  4  0  0  0  0
  5  9  4  0  0  0  0
  6  7  4  0  0  0  0
  7  8  4  0  0  0  0
  7 12  1  0  0  0  0
  8  9  4  0  0  0  0
  9 10  4  0  0  0  0
 10 11  4  0  0  0  0
 12 13  1  0  0  0  0
 13 14  1  0  0  0  0
 14 15  1  0  0  0  0
 14 18  1  0  0  0  0
 15 16  1  0  0  0  0
 16 17  1  0  0  0  0
 17 18  1  0  0  0  0
M  STY  1   1 DAT
M  SAL   1  1   8
M  SDT   1 MRV_IMPLICIT_H                                        
M  SDD   1     0.0000    0.0000    DR    ALL  0       0  
M  SED   1 IMPL_H1
M  END
>  <Name_Molregno>
438569

>  <HISTAMINE H3>
6.64

$$$$
438609
  Marvin  02231216192D 0   1.00000     0.00000     0

 17 19  0  0  1  0  0  0  0  0999 V2000
    0.0604   -0.0865    0.0000 N   0  0  0  0  0  0  0  0  0
    0.8450    0.1684    0.0000 C   0  0  0  0  0  0  0  0  0
    0.8450    0.9934    0.0000 C   0  0  0  0  0  0  0  0  0
    0.0604    1.2484    0.0000 C   0  0  0  0  0  0  0  0  0
   -0.4245    0.5809    0.0000 C   0  0  0  0  0  0  0  0  0
   -1.2495    0.5809    0.0000 C   0  0  0  0  0  0  0  0  0
   -1.6620   -0.1335    0.0000 C   0  0  0  0  0  0  0  0  0
   -2.4870   -0.1335    0.0000 N   0  0  0  0  0  0  0  0  0
   -2.9720   -0.8010    0.0000 C   0  0  0  0  0  0  0  0  0
   -3.7566   -0.5460    0.0000 C   0  0  0  0  0  0  0  0  0
   -3.7566    0.2790    0.0000 C   0  0  0  0  0  0  0  0  0
   -2.9720    0.5339    0.0000 C   0  0  0  0  0  0  0  0  0
   -2.7170    1.3185    0.0000 C   0  0  0  0  0  0  0  0  0
    1.5595    1.4059    0.0000 C   0  0  0  0  0  0  0  0  0
    2.2739    0.9934    0.0000 C   0  0  0  0  0  0  0  0  0
    2.2739    0.1684    0.0000 C   0  0  0  0  0  0  0  0  0
    1.5595   -0.2441    0.0000 C   0  0  0  0  0  0  0  0  0
  1  2  4  0  0  0  0
  1  5  4  0  0  0  0
  2  3  4  0  0  0  0
  2 17  4  0  0  0  0
  3  4  4  0  0  0  0
  3 14  4  0  0  0  0
  4  5  4  0  0  0  0
  5  6  1  0  0  0  0
  6  7  1  0  0  0  0
  7  8  1  0  0  0  0
  8  9  1  0  0  0  0
  8 12  1  0  0  0  0
  9 10  1  0  0  0  0
 10 11  1  0  0  0  0
 11 12  1  0  0  0  0
 12 13  1  0  0  0  0
 14 15  4  0  0  0  0
 15 16  4  0  0  0  0
 16 17  4  0  0  0  0
M  STY  1   1 DAT
M  SAL   1  1   1
M  SDT   1 MRV_IMPLICIT_H                                        
M  SDD   1     0.0000    0.0000    DR    ALL  0       0  
M  SED   1 IMPL_H1
M  END
>  <Name_Molregno>
438609

>  <HISTAMINE H3>
7.31

$$$$
438611
  Marvin  02231216192D 0   1.00000     0.00000     0

 16 17  0  0  1  0  0  0  0  0999 V2000
    2.7150    3.2923    0.0000 O   0  0  0  0  0  0  0  0  0
    2.0005    3.7048    0.0000 C   0  0  0  0  0  0  0  0  0
    2.7150    2.4673    0.0000 C   0  0  0  0  0  0  0  0  0
    3.4295    2.0548    0.0000 C   0  0  0  0  0  0  0  0  0
    3.4295    1.2298    0.0000 C   0  0  0  0  0  0  0  0  0
    2.7150    0.8173    0.0000 C   0  0  0  0  0  0  0  0  0
    2.0005    1.2298    0.0000 C   0  0  0  0  0  0  0  0  0
    2.0005    2.0548    0.0000 C   0  0  0  0  0  0  0  0  0
    2.7150   -0.0077    0.0000 C   0  0  0  0  0  0  0  0  0
    3.4295   -0.4202    0.0000 C   0  0  0  0  0  0  0  0  0
    3.4295   -1.2452    0.0000 N   0  0  0  0  0  0  0  0  0
    4.0969   -1.7301    0.0000 C   0  0  0  0  0  0  0  0  0
    3.8420   -2.5148    0.0000 C   0  0  0  0  0  0  0  0  0
    3.0170   -2.5148    0.0000 C   0  0  0  0  0  0  0  0  0
    2.7620   -1.7301    0.0000 C   0  0  0  0  0  0  0  0  0
    1.9774   -1.4752    0.0000 C   0  0  0  0  0  0  0  0  0
  1  2  1  0  0  0  0
  1  3  1  0  0  0  0
  3  4  4  0  0  0  0
  3  8  4  0  0  0  0
  4  5  4  0  0  0  0
  5  6  4  0  0  0  0
  6  7  4  0  0  0  0
  6  9  1  0  0  0  0
  7  8  4  0  0  0  0
  9 10  1  0  0  0  0
 10 11  1  0  0  0  0
 11 12  1  0  0  0  0
 11 15  1  0  0  0  0
 12 13  1  0  0  0  0
 13 14  1  0  0  0  0
 14 15  1  0  0  0  0
 15 16  1  0  0  0  0
M  END
>  <Name_Molregno>
438611

>  <HISTAMINE H3>
8.35

$$$$
438613
  Marvin  02231216192D 0   1.00000     0.00000     0

 16 18  0  0  0  0  0  0  0  0999 V2000
    0.0699    0.0668    0.0000 N   0  0  0  0  0  0  0  0  0
    0.8546    0.3217    0.0000 C   0  0  0  0  0  0  0  0  0
    0.8546    1.1467    0.0000 C   0  0  0  0  0  0  0  0  0
    0.0699    1.4017    0.0000 C   0  0  0  0  0  0  0  0  0
   -0.4150    0.7342    0.0000 C   0  0  0  0  0  0  0  0  0
   -1.2400    0.7342    0.0000 C   0  0  0  0  0  0  0  0  0
   -1.6525    0.0198    0.0000 C   0  0  0  0  0  0  0  0  0
   -2.4775    0.0198    0.0000 N   0  0  0  0  0  0  0  0  0
   -2.9624   -0.6477    0.0000 C   0  0  0  0  0  0  0  0  0
   -3.7470   -0.3927    0.0000 C   0  0  0  0  0  0  0  0  0
   -3.7470    0.4323    0.0000 C   0  0  0  0  0  0  0  0  0
   -2.9624    0.6872    0.0000 C   0  0  0  0  0  0  0  0  0
    1.5690    1.5592    0.0000 C   0  0  0  0  0  0  0  0  0
    2.2835    1.1467    0.0000 C   0  0  0  0  0  0  0  0  0
    2.2835    0.3217    0.0000 C   0  0  0  0  0  0  0  0  0
    1.5690   -0.0908    0.0000 C   0  0  0  0  0  0  0  0  0
  1  2  4  0  0  0  0
  1  5  4  0  0  0  0
  2  3  4  0  0  0  0
  2 16  4  0  0  0  0
  3  4  4  0  0  0  0
  3 13  4  0  0  0  0
  4  5  4  0  0  0  0
  5  6  1  0  0  0  0
  6  7  1  0  0  0  0
  7  8  1  0  0  0  0
  8  9  1  0  0  0  0
  8 12  1  0  0  0  0
  9 10  1  0  0  0  0
 10 11  1  0  0  0  0
 11 12  1  0  0  0  0
 13 14  4  0  0  0  0
 14 15  4  0  0  0  0
 15 16  4  0  0  0  0
M  STY  1   1 DAT
M  SAL   1  1   1
M  SDT   1 MRV_IMPLICIT_H                                        
M  SDD   1     0.0000    0.0000    DR    ALL  0       0  
M  SED   1 IMPL_H1
M  END
>  <Name_Molregno>
438613

>  <HISTAMINE H3>
6.66

$$$$
438630
  Marvin  02231216192D 0   1.00000     0.00000     0

 29 31  0  0  0  0  0  0  0  0999 V2000
    2.1005    0.9271    0.0000 O   0  0  0  0  0  0  0  0  0
    2.1005    0.1021    0.0000 C   0  0  0  0  0  0  0  0  0
    2.8150   -0.3104    0.0000 C   0  0  0  0  0  0  0  0  0
    2.8150   -1.1354    0.0000 C   0  0  0  0  0  0  0  0  0
    2.1005   -1.5479    0.0000 C   0  0  0  0  0  0  0  0  0
    1.3861   -1.1354    0.0000 C   0  0  0  0  0  0  0  0  0
    1.3861   -0.3104    0.0000 C   0  0  0  0  0  0  0  0  0
    0.6716    0.1021    0.0000 C   0  0  0  0  0  0  0  0  0
   -0.0429   -0.3104    0.0000 N   0  0  0  0  0  0  0  0  0
   -0.7573    0.1021    0.0000 C   0  0  0  0  0  0  0  0  0
    2.1005   -2.3729    0.0000 C   0  0  0  0  0  0  0  0  0
    2.8150   -2.7854    0.0000 O   0  0  0  0  0  0  0  0  0
    1.3861   -2.7854    0.0000 N   0  0  0  0  0  0  0  0  0
    1.3861   -3.6104    0.0000 C   0  0  0  0  0  0  0  0  0
    0.6716   -4.0229    0.0000 C   0  0  0  0  0  0  0  0  0
   -0.0429   -3.6104    0.0000 N   0  0  0  0  0  0  0  0  0
   -0.0429   -2.7854    0.0000 C   0  0  0  0  0  0  0  0  0
    0.6716   -2.3729    0.0000 C   0  0  0  0  0  0  0  0  0
   -0.7573   -4.0229    0.0000 C   0  0  0  0  0  0  0  0  0
   -1.4718   -3.6104    0.0000 C   0  0  0  0  0  0  0  0  0
   -0.7573   -4.8479    0.0000 C   0  0  0  0  0  0  0  0  0
    2.8150    1.3396    0.0000 C   0  0  0  0  0  0  0  0  0
    2.8150    2.1646    0.0000 C   0  0  0  0  0  0  0  0  0
    3.5295    2.5771    0.0000 C   0  0  0  0  0  0  0  0  0
    3.5295    3.4021    0.0000 O   0  0  0  0  0  0  0  0  0
    2.8150    3.8146    0.0000 C   0  0  0  0  0  0  0  0  0
    4.2440    2.1646    0.0000 C   0  0  0  0  0  0  0  0  0
    4.2440    1.3396    0.0000 C   0  0  0  0  0  0  0  0  0
    3.5295    0.9271    0.0000 C   0  0  0  0  0  0  0  0  0
  1  2  1  0  0  0  0
  1 22  1  0  0  0  0
  2  3  4  0  0  0  0
  2  7  4  0  0  0  0
  3  4  4  0  0  0  0
  4  5  4  0  0  0  0
  5  6  4  0  0  0  0
  5 11  1  0  0  0  0
  6  7  4  0  0  0  0
  7  8  1  0  0  0  0
  8  9  1  0  0  0  0
  9 10  1  0  0  0  0
 11 12  2  0  0  0  0
 11 13  1  0  0  0  0
 13 14  1  0  0  0  0
 13 18  1  0  0  0  0
 14 15  1  0  0  0  0
 15 16  1  0  0  0  0
 16 17  1  0  0  0  0
 16 19  1  0  0  0  0
 17 18  1  0  0  0  0
 19 20  1  0  0  0  0
 19 21  1  0  0  0  0
 22 23  4  0  0  0  0
 22 29  4  0  0  0  0
 23 24  4  0  0  0  0
 24 25  1  0  0  0  0
 24 27  4  0  0  0  0
 25 26  1  0  0  0  0
 27 28  4  0  0  0  0
 28 29  4  0  0  0  0
M  END
>  <Name_Molregno>
438630

>  <Dopamine transporter>
5.15

>  <HISTAMINE H3>
8.96

>  <Norepinephrine transporter>
6.14

>  <Serotonin transporter>
7.55

$$$$
438651
  Marvin  02231216192D 0   1.00000     0.00000     0

 15 16  0  0  0  0  0  0  0  0999 V2000
   -1.5654    1.8540    0.0000 O   0  0  0  0  0  0  0  0  0
   -1.5654    2.6790    0.0000 C   0  0  0  0  0  0  0  0  0
   -2.2799    1.4415    0.0000 C   0  0  0  0  0  0  0  0  0
   -2.2799    0.6165    0.0000 C   0  0  0  0  0  0  0  0  0
   -2.9944    0.2040    0.0000 C   0  0  0  0  0  0  0  0  0
   -3.7089    0.6165    0.0000 C   0  0  0  0  0  0  0  0  0
   -3.7089    1.4415    0.0000 C   0  0  0  0  0  0  0  0  0
   -2.9944    1.8540    0.0000 C   0  0  0  0  0  0  0  0  0
   -2.9944   -0.6210    0.0000 C   0  0  0  0  0  0  0  0  0
   -2.2799   -1.0335    0.0000 C   0  0  0  0  0  0  0  0  0
   -2.2799   -1.8585    0.0000 N   0  0  0  0  0  0  0  0  0
   -1.6125   -2.3435    0.0000 C   0  0  0  0  0  0  0  0  0
   -1.8674   -3.1281    0.0000 C   0  0  0  0  0  0  0  0  0
   -2.6924   -3.1281    0.0000 C   0  0  0  0  0  0  0  0  0
   -2.9474   -2.3435    0.0000 C   0  0  0  0  0  0  0  0  0
  1  2  1  0  0  0  0
  1  3  1  0  0  0  0
  3  4  4  0  0  0  0
  3  8  4  0  0  0  0
  4  5  4  0  0  0  0
  5  6  4  0  0  0  0
  5  9  1  0  0  0  0
  6  7  4  0  0  0  0
  7  8  4  0  0  0  0
  9 10  1  0  0  0  0
 10 11  1  0  0  0  0
 11 12  1  0  0  0  0
 11 15  1  0  0  0  0
 12 13  1  0  0  0  0
 13 14  1  0  0  0  0
 14 15  1  0  0  0  0
M  END
>  <Name_Molregno>
438651

>  <HISTAMINE H3>
6.59

$$$$
438652
  Marvin  02231216192D 0   1.00000     0.00000     0

 16 17  0  0  1  0  0  0  0  0999 V2000
   -1.6504    1.9214    0.0000 O   0  0  0  0  0  0  0  0  0
   -1.6504    2.7464    0.0000 C   0  0  0  0  0  0  0  0  0
   -2.3649    1.5089    0.0000 C   0  0  0  0  0  0  0  0  0
   -2.3649    0.6839    0.0000 C   0  0  0  0  0  0  0  0  0
   -3.0794    0.2714    0.0000 C   0  0  0  0  0  0  0  0  0
   -3.7939    0.6839    0.0000 C   0  0  0  0  0  0  0  0  0
   -3.7939    1.5089    0.0000 C   0  0  0  0  0  0  0  0  0
   -3.0794    1.9214    0.0000 C   0  0  0  0  0  0  0  0  0
   -3.0794   -0.5536    0.0000 C   0  0  0  0  0  0  0  0  0
   -2.3649   -0.9661    0.0000 C   0  0  0  0  0  0  0  0  0
   -2.3649   -1.7911    0.0000 N   0  0  0  0  0  0  0  0  0
   -1.6975   -2.2760    0.0000 C   0  0  0  0  0  0  0  0  0
   -1.9524   -3.0606    0.0000 C   0  0  0  0  0  0  0  0  0
   -2.7774   -3.0606    0.0000 C   0  0  0  0  0  0  0  0  0
   -3.0324   -2.2760    0.0000 C   0  0  0  0  0  0  0  0  0
   -3.8170   -2.0211    0.0000 C   0  0  0  0  0  0  0  0  0
  1  2  1  0  0  0  0
  1  3  1  0  0  0  0
  3  4  4  0  0  0  0
  3  8  4  0  0  0  0
  4  5  4  0  0  0  0
  5  6  4  0  0  0  0
  5  9  1  0  0  0  0
  6  7  4  0  0  0  0
  7  8  4  0  0  0  0
  9 10  1  0  0  0  0
 10 11  1  0  0  0  0
 11 12  1  0  0  0  0
 11 15  1  0  0  0  0
 12 13  1  0  0  0  0
 13 14  1  0  0  0  0
 14 15  1  0  0  0  0
 15 16  1  0  0  0  0
M  END
>  <Name_Molregno>
438652

>  <HISTAMINE H3>
7.5

$$$$
438654
  Marvin  02231216192D 0   1.00000     0.00000     0

 15 16  0  0  0  0  0  0  0  0999 V2000
    2.5363    3.0542    0.0000 O   0  0  0  0  0  0  0  0  0
    1.8218    3.4667    0.0000 C   0  0  0  0  0  0  0  0  0
    2.5363    2.2292    0.0000 C   0  0  0  0  0  0  0  0  0
    3.2508    1.8167    0.0000 C   0  0  0  0  0  0  0  0  0
    3.2508    0.9917    0.0000 C   0  0  0  0  0  0  0  0  0
    2.5363    0.5792    0.0000 C   0  0  0  0  0  0  0  0  0
    1.8218    0.9917    0.0000 C   0  0  0  0  0  0  0  0  0
    1.8218    1.8167    0.0000 C   0  0  0  0  0  0  0  0  0
    2.5363   -0.2458    0.0000 C   0  0  0  0  0  0  0  0  0
    3.2508   -0.6583    0.0000 C   0  0  0  0  0  0  0  0  0
    3.2508   -1.4833    0.0000 N   0  0  0  0  0  0  0  0  0
    3.9182   -1.9682    0.0000 C   0  0  0  0  0  0  0  0  0
    3.6633   -2.7528    0.0000 C   0  0  0  0  0  0  0  0  0
    2.8383   -2.7528    0.0000 C   0  0  0  0  0  0  0  0  0
    2.5833   -1.9682    0.0000 C   0  0  0  0  0  0  0  0  0
  1  2  1  0  0  0  0
  1  3  1  0  0  0  0
  3  4  4  0  0  0  0
  3  8  4  0  0  0  0
  4  5  4  0  0  0  0
  5  6  4  0  0  0  0
  6  7  4  0  0  0  0
  6  9  1  0  0  0  0
  7  8  4  0  0  0  0
  9 10  1  0  0  0  0
 10 11  1  0  0  0  0
 11 12  1  0  0  0  0
 11 15  1  0  0  0  0
 12 13  1  0  0  0  0
 13 14  1  0  0  0  0
 14 15  1  0  0  0  0
M  END
>  <Name_Molregno>
438654

>  <HISTAMINE H3>
7.39

$$$$
438656
  Marvin  02231216192D 0   1.00000     0.00000     0

 16 17  0  0  1  0  0  0  0  0999 V2000
   -2.2071    2.3683    0.0000 O   0  0  0  0  0  0  0  0  0
   -2.9216    2.7808    0.0000 C   0  0  0  0  0  0  0  0  0
   -1.4926    2.7808    0.0000 C   0  0  0  0  0  0  0  0  0
   -1.4926    3.6058    0.0000 C   0  0  0  0  0  0  0  0  0
   -0.7782    4.0183    0.0000 C   0  0  0  0  0  0  0  0  0
   -0.0637    3.6058    0.0000 C   0  0  0  0  0  0  0  0  0
   -0.0637    2.7808    0.0000 C   0  0  0  0  0  0  0  0  0
   -0.7782    2.3683    0.0000 C   0  0  0  0  0  0  0  0  0
   -0.7782    1.5433    0.0000 C   0  0  0  0  0  0  0  0  0
   -0.0637    1.1308    0.0000 C   0  0  0  0  0  0  0  0  0
   -0.0637    0.3058    0.0000 N   0  0  0  0  0  0  0  0  0
    0.6038   -0.1791    0.0000 C   0  0  0  0  0  0  0  0  0
    0.3488   -0.9637    0.0000 C   0  0  0  0  0  0  0  0  0
   -0.4762   -0.9637    0.0000 C   0  0  0  0  0  0  0  0  0
   -0.7311   -0.1791    0.0000 C   0  0  0  0  0  0  0  0  0
   -1.5157    0.0759    0.0000 C   0  0  0  0  0  0  0  0  0
  1  2  1  0  0  0  0
  1  3  1  0  0  0  0
  3  4  4  0  0  0  0
  3  8  4  0  0  0  0
  4  5  4  0  0  0  0
  5  6  4  0  0  0  0
  6  7  4  0  0  0  0
  7  8  4  0  0  0  0
  8  9  1  0  0  0  0
  9 10  1  0  0  0  0
 10 11  1  0  0  0  0
 11 12  1  0  0  0  0
 11 15  1  0  0  0  0
 12 13  1  0  0  0  0
 13 14  1  0  0  0  0
 14 15  1  0  0  0  0
 15 16  1  0  0  0  0
M  END
>  <Name_Molregno>
438656

>  <HISTAMINE H3>
7.49

$$$$
438674
  Marvin  02231216192D 0   1.00000     0.00000     0

 30 33  0  0  0  0  0  0  0  0999 V2000
   -7.7126   -1.1122    0.0000 Cl  0  0  0  0  0  0  0  0  0
   -6.9982   -0.6997    0.0000 C   0  0  0  0  0  0  0  0  0
   -6.9982    0.1253    0.0000 C   0  0  0  0  0  0  0  0  0
   -6.2837    0.5378    0.0000 C   0  0  0  0  0  0  0  0  0
   -5.5692    0.1253    0.0000 C   0  0  0  0  0  0  0  0  0
   -4.8547    0.5378    0.0000 O   0  0  0  0  0  0  0  0  0
   -4.1403    0.1253    0.0000 C   0  0  0  0  0  0  0  0  0
   -3.4258    0.5378    0.0000 C   0  0  0  0  0  0  0  0  0
   -2.7113    0.1253    0.0000 C   0  0  0  0  0  0  0  0  0
   -2.7113   -0.6997    0.0000 C   0  0  0  0  0  0  0  0  0
   -3.4258   -1.1122    0.0000 C   0  0  0  0  0  0  0  0  0
   -4.1403   -0.6997    0.0000 C   0  0  0  0  0  0  0  0  0
   -4.8547   -1.1122    0.0000 C   0  0  0  0  0  0  0  0  0
   -4.8547   -1.9372    0.0000 N   0  0  0  0  0  0  0  0  0
   -5.5692   -2.3497    0.0000 C   0  0  0  0  0  0  0  0  0
   -1.9969   -1.1122    0.0000 C   0  0  0  0  0  0  0  0  0
   -1.2824   -0.6997    0.0000 O   0  0  0  0  0  0  0  0  0
   -1.9969   -1.9372    0.0000 N   0  0  0  0  0  0  0  0  0
   -1.2824   -2.3497    0.0000 C   0  0  0  0  0  0  0  0  0
   -1.2824   -3.1747    0.0000 C   0  0  0  0  0  0  0  0  0
   -1.9969   -3.5872    0.0000 N   0  0  0  0  0  0  0  0  0
   -2.7113   -3.1747    0.0000 C   0  0  0  0  0  0  0  0  0
   -2.7113   -2.3497    0.0000 C   0  0  0  0  0  0  0  0  0
   -1.9969   -4.4122    0.0000 C   0  0  0  0  0  0  0  0  0
   -1.3294   -4.8971    0.0000 C   0  0  0  0  0  0  0  0  0
   -1.5844   -5.6817    0.0000 C   0  0  0  0  0  0  0  0  0
   -2.4094   -5.6817    0.0000 C   0  0  0  0  0  0  0  0  0
   -2.6643   -4.8971    0.0000 C   0  0  0  0  0  0  0  0  0
   -5.5692   -0.6997    0.0000 C   0  0  0  0  0  0  0  0  0
   -6.2837   -1.1122    0.0000 C   0  0  0  0  0  0  0  0  0
  1  2  1  0  0  0  0
  2  3  4  0  0  0  0
  2 30  4  0  0  0  0
  3  4  4  0  0  0  0
  4  5  4  0  0  0  0
  5  6  1  0  0  0  0
  5 29  4  0  0  0  0
  6  7  1  0  0  0  0
  7  8  4  0  0  0  0
  7 12  4  0  0  0  0
  8  9  4  0  0  0  0
  9 10  4  0  0  0  0
 10 11  4  0  0  0  0
 10 16  1  0  0  0  0
 11 12  4  0  0  0  0
 12 13  1  0  0  0  0
 13 14  1  0  0  0  0
 14 15  1  0  0  0  0
 16 17  2  0  0  0  0
 16 18  1  0  0  0  0
 18 19  1  0  0  0  0
 18 23  1  0  0  0  0
 19 20  1  0  0  0  0
 20 21  1  0  0  0  0
 21 22  1  0  0  0  0
 21 24  1  0  0  0  0
 22 23  1  0  0  0  0
 24 25  1  0  0  0  0
 24 28  1  0  0  0  0
 25 26  1  0  0  0  0
 26 27  1  0  0  0  0
 27 28  1  0  0  0  0
 29 30  4  0  0  0  0
M  END
>  <Name_Molregno>
438674

>  <HISTAMINE H3>
8.47

>  <Serotonin transporter>
7.62

$$$$
438698
  Marvin  02231216192D 0   1.00000     0.00000     0

 15 16  0  0  1  0  0  0  0  0999 V2000
   -0.8310   -1.0598    0.0000 N   0  0  0  0  0  0  0  0  0
   -0.1636   -1.5447    0.0000 C   0  0  0  0  0  0  0  0  0
   -0.4185   -2.3293    0.0000 C   0  0  0  0  0  0  0  0  0
   -1.2435   -2.3293    0.0000 C   0  0  0  0  0  0  0  0  0
   -1.4985   -1.5447    0.0000 C   0  0  0  0  0  0  0  0  0
   -2.2831   -1.2898    0.0000 C   0  0  0  0  0  0  0  0  0
   -0.8310   -0.2348    0.0000 C   0  0  0  0  0  0  0  0  0
   -1.5455    0.1777    0.0000 C   0  0  0  0  0  0  0  0  0
   -1.5455    1.0027    0.0000 C   0  0  0  0  0  0  0  0  0
   -2.2600    1.4152    0.0000 C   0  0  0  0  0  0  0  0  0
   -2.2600    2.2402    0.0000 C   0  0  0  0  0  0  0  0  0
   -1.5455    2.6527    0.0000 C   0  0  0  0  0  0  0  0  0
   -0.8310    2.2402    0.0000 C   0  0  0  0  0  0  0  0  0
   -0.8310    1.4152    0.0000 C   0  0  0  0  0  0  0  0  0
   -1.5455    3.4777    0.0000 C   0  0  0  0  0  0  0  0  0
  1  2  1  0  0  0  0
  1  5  1  0  0  0  0
  1  7  1  0  0  0  0
  2  3  1  0  0  0  0
  3  4  1  0  0  0  0
  4  5  1  0  0  0  0
  5  6  1  0  0  0  0
  7  8  1  0  0  0  0
  8  9  1  0  0  0  0
  9 10  4  0  0  0  0
  9 14  4  0  0  0  0
 10 11  4  0  0  0  0
 11 12  4  0  0  0  0
 12 13  4  0  0  0  0
 12 15  1  0  0  0  0
 13 14  4  0  0  0  0
M  END
>  <Name_Molregno>
438698

>  <HISTAMINE H3>
7.94

$$$$
438700
  Marvin  02231216192D 0   1.00000     0.00000     0

 14 15  0  0  0  0  0  0  0  0999 V2000
   -1.0137   -1.0665    0.0000 N   0  0  0  0  0  0  0  0  0
   -0.3463   -1.5514    0.0000 C   0  0  0  0  0  0  0  0  0
   -0.6012   -2.3360    0.0000 C   0  0  0  0  0  0  0  0  0
   -1.4262   -2.3360    0.0000 C   0  0  0  0  0  0  0  0  0
   -1.6812   -1.5514    0.0000 C   0  0  0  0  0  0  0  0  0
   -1.0137   -0.2415    0.0000 C   0  0  0  0  0  0  0  0  0
   -1.7282    0.1710    0.0000 C   0  0  0  0  0  0  0  0  0
   -1.7282    0.9960    0.0000 C   0  0  0  0  0  0  0  0  0
   -2.4427    1.4085    0.0000 C   0  0  0  0  0  0  0  0  0
   -2.4427    2.2335    0.0000 C   0  0  0  0  0  0  0  0  0
   -1.7282    2.6460    0.0000 C   0  0  0  0  0  0  0  0  0
   -1.0137    2.2335    0.0000 C   0  0  0  0  0  0  0  0  0
   -1.0137    1.4085    0.0000 C   0  0  0  0  0  0  0  0  0
   -1.7282    3.4710    0.0000 C   0  0  0  0  0  0  0  0  0
  1  2  1  0  0  0  0
  1  5  1  0  0  0  0
  1  6  1  0  0  0  0
  2  3  1  0  0  0  0
  3  4  1  0  0  0  0
  4  5  1  0  0  0  0
  6  7  1  0  0  0  0
  7  8  1  0  0  0  0
  8  9  4  0  0  0  0
  8 13  4  0  0  0  0
  9 10  4  0  0  0  0
 10 11  4  0  0  0  0
 11 12  4  0  0  0  0
 11 14  1  0  0  0  0
 12 13  4  0  0  0  0
M  END
>  <Name_Molregno>
438700

>  <HISTAMINE H3>
7.09

$$$$
438701
  Marvin  02231216192D 0   1.00000     0.00000     0

 15 16  0  0  0  0  0  0  0  0999 V2000
   -2.1709    2.1343    0.0000 O   0  0  0  0  0  0  0  0  0
   -2.8853    2.5468    0.0000 C   0  0  0  0  0  0  0  0  0
   -1.4564    2.5468    0.0000 C   0  0  0  0  0  0  0  0  0
   -1.4564    3.3718    0.0000 C   0  0  0  0  0  0  0  0  0
   -0.7419    3.7843    0.0000 C   0  0  0  0  0  0  0  0  0
   -0.0274    3.3718    0.0000 C   0  0  0  0  0  0  0  0  0
   -0.0274    2.5468    0.0000 C   0  0  0  0  0  0  0  0  0
   -0.7419    2.1343    0.0000 C   0  0  0  0  0  0  0  0  0
   -0.7419    1.3093    0.0000 C   0  0  0  0  0  0  0  0  0
   -0.0274    0.8968    0.0000 C   0  0  0  0  0  0  0  0  0
   -0.0274    0.0718    0.0000 N   0  0  0  0  0  0  0  0  0
    0.6400   -0.4131    0.0000 C   0  0  0  0  0  0  0  0  0
    0.3851   -1.1977    0.0000 C   0  0  0  0  0  0  0  0  0
   -0.4399   -1.1977    0.0000 C   0  0  0  0  0  0  0  0  0
   -0.6949   -0.4131    0.0000 C   0  0  0  0  0  0  0  0  0
  1  2  1  0  0  0  0
  1  3  1  0  0  0  0
  3  4  4  0  0  0  0
  3  8  4  0  0  0  0
  4  5  4  0  0  0  0
  5  6  4  0  0  0  0
  6  7  4  0  0  0  0
  7  8  4  0  0  0  0
  8  9  1  0  0  0  0
  9 10  1  0  0  0  0
 10 11  1  0  0  0  0
 11 12  1  0  0  0  0
 11 15  1  0  0  0  0
 12 13  1  0  0  0  0
 13 14  1  0  0  0  0
 14 15  1  0  0  0  0
M  END
>  <Name_Molregno>
438701

>  <HISTAMINE H3>
6.47

$$$$
438703
  Marvin  02231216192D 0   1.00000     0.00000     0

 15 16  0  0  1  0  0  0  0  0999 V2000
   -0.6985   -1.6072    0.0000 N   0  0  0  0  0  0  0  0  0
   -0.0311   -2.0922    0.0000 C   0  0  0  0  0  0  0  0  0
   -0.2860   -2.8768    0.0000 C   0  0  0  0  0  0  0  0  0
   -1.1110   -2.8768    0.0000 C   0  0  0  0  0  0  0  0  0
   -1.3659   -2.0922    0.0000 C   0  0  0  0  0  0  0  0  0
   -2.1505   -1.8372    0.0000 C   0  0  0  0  0  0  0  0  0
   -0.6985   -0.7822    0.0000 C   0  0  0  0  0  0  0  0  0
   -1.4130   -0.3697    0.0000 C   0  0  0  0  0  0  0  0  0
   -1.4130    0.4553    0.0000 C   0  0  0  0  0  0  0  0  0
   -2.1274    0.8678    0.0000 C   0  0  0  0  0  0  0  0  0
   -2.1274    1.6928    0.0000 C   0  0  0  0  0  0  0  0  0
   -1.4130    2.1053    0.0000 C   0  0  0  0  0  0  0  0  0
   -0.6985    1.6928    0.0000 C   0  0  0  0  0  0  0  0  0
   -0.6985    0.8678    0.0000 C   0  0  0  0  0  0  0  0  0
   -2.8419    2.1053    0.0000 C   0  0  0  0  0  0  0  0  0
  1  2  1  0  0  0  0
  1  5  1  0  0  0  0
  1  7  1  0  0  0  0
  2  3  1  0  0  0  0
  3  4  1  0  0  0  0
  4  5  1  0  0  0  0
  5  6  1  0  0  0  0
  7  8  1  0  0  0  0
  8  9  1  0  0  0  0
  9 10  4  0  0  0  0
  9 14  4  0  0  0  0
 10 11  4  0  0  0  0
 11 12  4  0  0  0  0
 11 15  1  0  0  0  0
 12 13  4  0  0  0  0
 13 14  4  0  0  0  0
M  END
>  <Name_Molregno>
438703

>  <HISTAMINE H3>
7.9

$$$$
438723
  Marvin  02231216192D 0   1.00000     0.00000     0

 29 32  0  0  0  0  0  0  0  0999 V2000
   -7.5145   -1.3893    0.0000 Cl  0  0  0  0  0  0  0  0  0
   -6.8000   -0.9768    0.0000 C   0  0  0  0  0  0  0  0  0
   -6.8000   -0.1518    0.0000 C   0  0  0  0  0  0  0  0  0
   -6.0856    0.2607    0.0000 C   0  0  0  0  0  0  0  0  0
   -5.3711   -0.1518    0.0000 C   0  0  0  0  0  0  0  0  0
   -4.6566    0.2607    0.0000 O   0  0  0  0  0  0  0  0  0
   -3.9422   -0.1518    0.0000 C   0  0  0  0  0  0  0  0  0
   -3.2277    0.2607    0.0000 C   0  0  0  0  0  0  0  0  0
   -2.5132   -0.1518    0.0000 C   0  0  0  0  0  0  0  0  0
   -2.5132   -0.9768    0.0000 C   0  0  0  0  0  0  0  0  0
   -3.2277   -1.3893    0.0000 C   0  0  0  0  0  0  0  0  0
   -3.9422   -0.9768    0.0000 C   0  0  0  0  0  0  0  0  0
   -4.6566   -1.3893    0.0000 C   0  0  0  0  0  0  0  0  0
   -4.6566   -2.2143    0.0000 N   0  0  0  0  0  0  0  0  0
   -5.3711   -2.6268    0.0000 C   0  0  0  0  0  0  0  0  0
   -1.7987   -1.3893    0.0000 C   0  0  0  0  0  0  0  0  0
   -1.0843   -0.9768    0.0000 O   0  0  0  0  0  0  0  0  0
   -1.7987   -2.2143    0.0000 N   0  0  0  0  0  0  0  0  0
   -1.0843   -2.6268    0.0000 C   0  0  0  0  0  0  0  0  0
   -1.0843   -3.4518    0.0000 C   0  0  0  0  0  0  0  0  0
   -1.7987   -3.8643    0.0000 N   0  0  0  0  0  0  0  0  0
   -2.5132   -3.4518    0.0000 C   0  0  0  0  0  0  0  0  0
   -2.5132   -2.6268    0.0000 C   0  0  0  0  0  0  0  0  0
   -1.7987   -4.6893    0.0000 C   0  0  0  0  0  0  0  0  0
   -1.2154   -5.2727    0.0000 C   0  0  0  0  0  0  0  0  0
   -1.7987   -5.8560    0.0000 C   0  0  0  0  0  0  0  0  0
   -2.3821   -5.2727    0.0000 C   0  0  0  0  0  0  0  0  0
   -5.3711   -0.9768    0.0000 C   0  0  0  0  0  0  0  0  0
   -6.0856   -1.3893    0.0000 C   0  0  0  0  0  0  0  0  0
  1  2  1  0  0  0  0
  2  3  4  0  0  0  0
  2 29  4  0  0  0  0
  3  4  4  0  0  0  0
  4  5  4  0  0  0  0
  5  6  1  0  0  0  0
  5 28  4  0  0  0  0
  6  7  1  0  0  0  0
  7  8  4  0  0  0  0
  7 12  4  0  0  0  0
  8  9  4  0  0  0  0
  9 10  4  0  0  0  0
 10 11  4  0  0  0  0
 10 16  1  0  0  0  0
 11 12  4  0  0  0  0
 12 13  1  0  0  0  0
 13 14  1  0  0  0  0
 14 15  1  0  0  0  0
 16 17  2  0  0  0  0
 16 18  1  0  0  0  0
 18 19  1  0  0  0  0
 18 23  1  0  0  0  0
 19 20  1  0  0  0  0
 20 21  1  0  0  0  0
 21 22  1  0  0  0  0
 21 24  1  0  0  0  0
 22 23  1  0  0  0  0
 24 25  1  0  0  0  0
 24 27  1  0  0  0  0
 25 26  1  0  0  0  0
 26 27  1  0  0  0  0
 28 29  4  0  0  0  0
M  END
>  <Name_Molregno>
438723

>  <HISTAMINE H3>
8.62

>  <Serotonin transporter>
7.41

$$$$
438753
  Marvin  02231216192D 0   1.00000     0.00000     0

 14 15  0  0  0  0  0  0  0  0999 V2000
   -0.9196   -1.6449    0.0000 N   0  0  0  0  0  0  0  0  0
   -0.2521   -2.1298    0.0000 C   0  0  0  0  0  0  0  0  0
   -0.5071   -2.9145    0.0000 C   0  0  0  0  0  0  0  0  0
   -1.3321   -2.9145    0.0000 C   0  0  0  0  0  0  0  0  0
   -1.5870   -2.1298    0.0000 C   0  0  0  0  0  0  0  0  0
   -0.9196   -0.8199    0.0000 C   0  0  0  0  0  0  0  0  0
   -1.6340   -0.4074    0.0000 C   0  0  0  0  0  0  0  0  0
   -1.6340    0.4176    0.0000 C   0  0  0  0  0  0  0  0  0
   -2.3485    0.8301    0.0000 C   0  0  0  0  0  0  0  0  0
   -2.3485    1.6551    0.0000 C   0  0  0  0  0  0  0  0  0
   -1.6340    2.0676    0.0000 C   0  0  0  0  0  0  0  0  0
   -0.9196    1.6551    0.0000 C   0  0  0  0  0  0  0  0  0
   -0.9196    0.8301    0.0000 C   0  0  0  0  0  0  0  0  0
   -3.0630    2.0676    0.0000 C   0  0  0  0  0  0  0  0  0
  1  2  1  0  0  0  0
  1  5  1  0  0  0  0
  1  6  1  0  0  0  0
  2  3  1  0  0  0  0
  3  4  1  0  0  0  0
  4  5  1  0  0  0  0
  6  7  1  0  0  0  0
  7  8  1  0  0  0  0
  8  9  4  0  0  0  0
  8 13  4  0  0  0  0
  9 10  4  0  0  0  0
 10 11  4  0  0  0  0
 10 14  1  0  0  0  0
 11 12  4  0  0  0  0
 12 13  4  0  0  0  0
M  END
>  <Name_Molregno>
438753

>  <HISTAMINE H3>
6.7

$$$$
438777
  Marvin  02231216192D 0   1.00000     0.00000     0

 28 31  0  0  0  0  0  0  0  0999 V2000
   -7.3355   -1.6108    0.0000 Cl  0  0  0  0  0  0  0  0  0
   -6.6210   -1.1983    0.0000 C   0  0  0  0  0  0  0  0  0
   -6.6210   -0.3733    0.0000 C   0  0  0  0  0  0  0  0  0
   -5.9065    0.0392    0.0000 C   0  0  0  0  0  0  0  0  0
   -5.1921   -0.3733    0.0000 C   0  0  0  0  0  0  0  0  0
   -4.4776    0.0392    0.0000 O   0  0  0  0  0  0  0  0  0
   -3.7631   -0.3733    0.0000 C   0  0  0  0  0  0  0  0  0
   -3.0487    0.0392    0.0000 C   0  0  0  0  0  0  0  0  0
   -2.3342   -0.3733    0.0000 C   0  0  0  0  0  0  0  0  0
   -2.3342   -1.1983    0.0000 C   0  0  0  0  0  0  0  0  0
   -3.0487   -1.6108    0.0000 C   0  0  0  0  0  0  0  0  0
   -3.7631   -1.1983    0.0000 C   0  0  0  0  0  0  0  0  0
   -4.4776   -1.6108    0.0000 C   0  0  0  0  0  0  0  0  0
   -4.4776   -2.4358    0.0000 N   0  0  0  0  0  0  0  0  0
   -5.1921   -2.8483    0.0000 C   0  0  0  0  0  0  0  0  0
   -1.6197   -1.6108    0.0000 C   0  0  0  0  0  0  0  0  0
   -0.9052   -1.1983    0.0000 O   0  0  0  0  0  0  0  0  0
   -1.6197   -2.4358    0.0000 N   0  0  0  0  0  0  0  0  0
   -0.9052   -2.8483    0.0000 C   0  0  0  0  0  0  0  0  0
   -0.9052   -3.6733    0.0000 C   0  0  0  0  0  0  0  0  0
   -1.6197   -4.0858    0.0000 N   0  0  0  0  0  0  0  0  0
   -2.3342   -3.6733    0.0000 C   0  0  0  0  0  0  0  0  0
   -2.3342   -2.8483    0.0000 C   0  0  0  0  0  0  0  0  0
   -1.6197   -4.9108    0.0000 C   0  0  0  0  0  0  0  0  0
   -1.2072   -5.6252    0.0000 C   0  0  0  0  0  0  0  0  0
   -2.0322   -5.6252    0.0000 C   0  0  0  0  0  0  0  0  0
   -5.1921   -1.1983    0.0000 C   0  0  0  0  0  0  0  0  0
   -5.9065   -1.6108    0.0000 C   0  0  0  0  0  0  0  0  0
  1  2  1  0  0  0  0
  2  3  4  0  0  0  0
  2 28  4  0  0  0  0
  3  4  4  0  0  0  0
  4  5  4  0  0  0  0
  5  6  1  0  0  0  0
  5 27  4  0  0  0  0
  6  7  1  0  0  0  0
  7  8  4  0  0  0  0
  7 12  4  0  0  0  0
  8  9  4  0  0  0  0
  9 10  4  0  0  0  0
 10 11  4  0  0  0  0
 10 16  1  0  0  0  0
 11 12  4  0  0  0  0
 12 13  1  0  0  0  0
 13 14  1  0  0  0  0
 14 15  1  0  0  0  0
 16 17  2  0  0  0  0
 16 18  1  0  0  0  0
 18 19  1  0  0  0  0
 18 23  1  0  0  0  0
 19 20  1  0  0  0  0
 20 21  1  0  0  0  0
 21 22  1  0  0  0  0
 21 24  1  0  0  0  0
 22 23  1  0  0  0  0
 24 25  1  0  0  0  0
 24 26  1  0  0  0  0
 25 26  1  0  0  0  0
 27 28  4  0  0  0  0
M  END
>  <Name_Molregno>
438777

>  <Dopamine transporter>
5.52

>  <HISTAMINE H3>
7.96

>  <Norepinephrine transporter>
5.89

>  <Serotonin transporter>
7.64

$$$$
438783
  Marvin  02231216192D 0   1.00000     0.00000     0

 28 30  0  0  0  0  0  0  0  0999 V2000
   -1.1706    1.1260    0.0000 Cl  0  0  0  0  0  0  0  0  0
   -1.1706    0.3010    0.0000 C   0  0  0  0  0  0  0  0  0
   -0.4562   -0.1115    0.0000 C   0  0  0  0  0  0  0  0  0
   -0.4562   -0.9365    0.0000 C   0  0  0  0  0  0  0  0  0
   -1.1706   -1.3490    0.0000 C   0  0  0  0  0  0  0  0  0
   -1.1706   -2.1740    0.0000 O   0  0  0  0  0  0  0  0  0
   -1.8851   -2.5865    0.0000 C   0  0  0  0  0  0  0  0  0
   -1.8851   -3.4115    0.0000 C   0  0  0  0  0  0  0  0  0
   -2.5996   -3.8240    0.0000 C   0  0  0  0  0  0  0  0  0
   -3.3141   -3.4115    0.0000 C   0  0  0  0  0  0  0  0  0
   -3.3141   -2.5865    0.0000 C   0  0  0  0  0  0  0  0  0
   -2.5996   -2.1740    0.0000 C   0  0  0  0  0  0  0  0  0
   -2.5996   -1.3490    0.0000 C   0  0  0  0  0  0  0  0  0
   -3.3141   -0.9365    0.0000 N   0  0  0  0  0  0  0  0  0
   -3.3141   -0.1115    0.0000 C   0  0  0  0  0  0  0  0  0
   -4.0285   -3.8240    0.0000 C   0  0  0  0  0  0  0  0  0
   -4.0285   -4.6490    0.0000 O   0  0  0  0  0  0  0  0  0
   -4.7430   -3.4115    0.0000 N   0  0  0  0  0  0  0  0  0
   -5.4575   -3.8240    0.0000 C   0  0  0  0  0  0  0  0  0
   -6.1719   -3.4115    0.0000 C   0  0  0  0  0  0  0  0  0
   -6.1719   -2.5865    0.0000 N   0  0  0  0  0  0  0  0  0
   -5.4575   -2.1740    0.0000 C   0  0  0  0  0  0  0  0  0
   -4.7430   -2.5865    0.0000 C   0  0  0  0  0  0  0  0  0
   -6.8864   -2.1740    0.0000 C   0  0  0  0  0  0  0  0  0
   -7.6009   -2.5865    0.0000 C   0  0  0  0  0  0  0  0  0
   -6.8864   -1.3490    0.0000 C   0  0  0  0  0  0  0  0  0
   -1.8851   -0.9365    0.0000 C   0  0  0  0  0  0  0  0  0
   -1.8851   -0.1115    0.0000 C   0  0  0  0  0  0  0  0  0
  1  2  1  0  0  0  0
  2  3  4  0  0  0  0
  2 28  4  0  0  0  0
  3  4  4  0  0  0  0
  4  5  4  0  0  0  0
  5  6  1  0  0  0  0
  5 27  4  0  0  0  0
  6  7  1  0  0  0  0
  7  8  4  0  0  0  0
  7 12  4  0  0  0  0
  8  9  4  0  0  0  0
  9 10  4  0  0  0  0
 10 11  4  0  0  0  0
 10 16  1  0  0  0  0
 11 12  4  0  0  0  0
 12 13  1  0  0  0  0
 13 14  1  0  0  0  0
 14 15  1  0  0  0  0
 16 17  2  0  0  0  0
 16 18  1  0  0  0  0
 18 19  1  0  0  0  0
 18 23  1  0  0  0  0
 19 20  1  0  0  0  0
 20 21  1  0  0  0  0
 21 22  1  0  0  0  0
 21 24  1  0  0  0  0
 22 23  1  0  0  0  0
 24 25  1  0  0  0  0
 24 26  1  0  0  0  0
 27 28  4  0  0  0  0
M  END
>  <Name_Molregno>
438783

>  <HISTAMINE H3>
8.96

>  <Serotonin transporter>
7.62

$$$$
438830
  Marvin  02231216192D 0   1.00000     0.00000     0

 31 34  0  0  0  0  0  0  0  0999 V2000
    0.4889    1.8740    0.0000 Cl  0  0  0  0  0  0  0  0  0
    1.2034    1.4615    0.0000 C   0  0  0  0  0  0  0  0  0
    1.9178    1.8740    0.0000 C   0  0  0  0  0  0  0  0  0
    2.6323    1.4615    0.0000 C   0  0  0  0  0  0  0  0  0
    3.3468    1.8740    0.0000 O   0  0  0  0  0  0  0  0  0
    4.0612    1.4615    0.0000 C   0  0  0  0  0  0  0  0  0
    4.7757    1.8740    0.0000 C   0  0  0  0  0  0  0  0  0
    5.4902    1.4615    0.0000 C   0  0  0  0  0  0  0  0  0
    5.4902    0.6365    0.0000 C   0  0  0  0  0  0  0  0  0
    4.7757    0.2240    0.0000 C   0  0  0  0  0  0  0  0  0
    4.0612    0.6365    0.0000 C   0  0  0  0  0  0  0  0  0
    3.3468    0.2240    0.0000 C   0  0  0  0  0  0  0  0  0
    3.3468   -0.6010    0.0000 N   0  0  0  0  0  0  0  0  0
    2.6323   -1.0135    0.0000 C   0  0  0  0  0  0  0  0  0
    6.2046    0.2240    0.0000 C   0  0  0  0  0  0  0  0  0
    6.9191    0.6365    0.0000 O   0  0  0  0  0  0  0  0  0
    6.2046   -0.6010    0.0000 N   0  0  0  0  0  0  0  0  0
    6.9191   -1.0135    0.0000 C   0  0  0  0  0  0  0  0  0
    6.9191   -1.8385    0.0000 C   0  0  0  0  0  0  0  0  0
    6.2046   -2.2510    0.0000 N   0  0  0  0  0  0  0  0  0
    5.4902   -1.8385    0.0000 C   0  0  0  0  0  0  0  0  0
    5.4902   -1.0135    0.0000 C   0  0  0  0  0  0  0  0  0
    6.2046   -3.0760    0.0000 C   0  0  0  0  0  0  0  0  0
    6.8721   -3.5609    0.0000 C   0  0  0  0  0  0  0  0  0
    6.6171   -4.3455    0.0000 C   0  0  0  0  0  0  0  0  0
    5.7921   -4.3455    0.0000 C   0  0  0  0  0  0  0  0  0
    5.5372   -3.5609    0.0000 C   0  0  0  0  0  0  0  0  0
    2.6323    0.6365    0.0000 C   0  0  0  0  0  0  0  0  0
    1.9178    0.2240    0.0000 C   0  0  0  0  0  0  0  0  0
    1.2034    0.6365    0.0000 C   0  0  0  0  0  0  0  0  0
    0.4889    0.2240    0.0000 Cl  0  0  0  0  0  0  0  0  0
  1  2  1  0  0  0  0
  2  3  4  0  0  0  0
  2 30  4  0  0  0  0
  3  4  4  0  0  0  0
  4  5  1  0  0  0  0
  4 28  4  0  0  0  0
  5  6  1  0  0  0  0
  6  7  4  0  0  0  0
  6 11  4  0  0  0  0
  7  8  4  0  0  0  0
  8  9  4  0  0  0  0
  9 10  4  0  0  0  0
  9 15  1  0  0  0  0
 10 11  4  0  0  0  0
 11 12  1  0  0  0  0
 12 13  1  0  0  0  0
 13 14  1  0  0  0  0
 15 16  2  0  0  0  0
 15 17  1  0  0  0  0
 17 18  1  0  0  0  0
 17 22  1  0  0  0  0
 18 19  1  0  0  0  0
 19 20  1  0  0  0  0
 20 21  1  0  0  0  0
 20 23  1  0  0  0  0
 21 22  1  0  0  0  0
 23 24  1  0  0  0  0
 23 27  1  0  0  0  0
 24 25  1  0  0  0  0
 25 26  1  0  0  0  0
 26 27  1  0  0  0  0
 28 29  4  0  0  0  0
 29 30  4  0  0  0  0
 30 31  1  0  0  0  0
M  END
>  <Name_Molregno>
438830

>  <HISTAMINE H3>
7.7

>  <Serotonin transporter>
7.82

$$$$
438877
  Marvin  02231216192D 0   1.00000     0.00000     0

 30 33  0  0  0  0  0  0  0  0999 V2000
    0.4309    1.6068    0.0000 Cl  0  0  0  0  0  0  0  0  0
    1.1454    1.1943    0.0000 C   0  0  0  0  0  0  0  0  0
    1.8599    1.6068    0.0000 C   0  0  0  0  0  0  0  0  0
    2.5743    1.1943    0.0000 C   0  0  0  0  0  0  0  0  0
    3.2888    1.6068    0.0000 O   0  0  0  0  0  0  0  0  0
    4.0033    1.1943    0.0000 C   0  0  0  0  0  0  0  0  0
    4.7178    1.6068    0.0000 C   0  0  0  0  0  0  0  0  0
    5.4322    1.1943    0.0000 C   0  0  0  0  0  0  0  0  0
    5.4322    0.3693    0.0000 C   0  0  0  0  0  0  0  0  0
    4.7178   -0.0432    0.0000 C   0  0  0  0  0  0  0  0  0
    4.0033    0.3693    0.0000 C   0  0  0  0  0  0  0  0  0
    3.2888   -0.0432    0.0000 C   0  0  0  0  0  0  0  0  0
    3.2888   -0.8682    0.0000 N   0  0  0  0  0  0  0  0  0
    2.5743   -1.2807    0.0000 C   0  0  0  0  0  0  0  0  0
    6.1467   -0.0432    0.0000 C   0  0  0  0  0  0  0  0  0
    6.8612    0.3693    0.0000 O   0  0  0  0  0  0  0  0  0
    6.1467   -0.8682    0.0000 N   0  0  0  0  0  0  0  0  0
    6.8612   -1.2807    0.0000 C   0  0  0  0  0  0  0  0  0
    6.8612   -2.1057    0.0000 C   0  0  0  0  0  0  0  0  0
    6.1467   -2.5182    0.0000 N   0  0  0  0  0  0  0  0  0
    5.4322   -2.1057    0.0000 C   0  0  0  0  0  0  0  0  0
    5.4322   -1.2807    0.0000 C   0  0  0  0  0  0  0  0  0
    6.1467   -3.3432    0.0000 C   0  0  0  0  0  0  0  0  0
    6.7301   -3.9266    0.0000 C   0  0  0  0  0  0  0  0  0
    6.1467   -4.5099    0.0000 C   0  0  0  0  0  0  0  0  0
    5.5633   -3.9266    0.0000 C   0  0  0  0  0  0  0  0  0
    2.5743    0.3693    0.0000 C   0  0  0  0  0  0  0  0  0
    1.8599   -0.0432    0.0000 C   0  0  0  0  0  0  0  0  0
    1.1454    0.3693    0.0000 C   0  0  0  0  0  0  0  0  0
    0.4309   -0.0432    0.0000 Cl  0  0  0  0  0  0  0  0  0
  1  2  1  0  0  0  0
  2  3  4  0  0  0  0
  2 29  4  0  0  0  0
  3  4  4  0  0  0  0
  4  5  1  0  0  0  0
  4 27  4  0  0  0  0
  5  6  1  0  0  0  0
  6  7  4  0  0  0  0
  6 11  4  0  0  0  0
  7  8  4  0  0  0  0
  8  9  4  0  0  0  0
  9 10  4  0  0  0  0
  9 15  1  0  0  0  0
 10 11  4  0  0  0  0
 11 12  1  0  0  0  0
 12 13  1  0  0  0  0
 13 14  1  0  0  0  0
 15 16  2  0  0  0  0
 15 17  1  0  0  0  0
 17 18  1  0  0  0  0
 17 22  1  0  0  0  0
 18 19  1  0  0  0  0
 19 20  1  0  0  0  0
 20 21  1  0  0  0  0
 20 23  1  0  0  0  0
 21 22  1  0  0  0  0
 23 24  1  0  0  0  0
 23 26  1  0  0  0  0
 24 25  1  0  0  0  0
 25 26  1  0  0  0  0
 27 28  4  0  0  0  0
 28 29  4  0  0  0  0
 29 30  1  0  0  0  0
M  END
>  <Name_Molregno>
438877

>  <HISTAMINE H3>
8.11

>  <Serotonin transporter>
7.8

$$$$
438879
  Marvin  02231216192D 0   1.00000     0.00000     0

 29 32  0  0  0  0  0  0  0  0999 V2000
    0.3794    2.5719    0.0000 Cl  0  0  0  0  0  0  0  0  0
    1.0938    2.1594    0.0000 C   0  0  0  0  0  0  0  0  0
    1.8083    2.5719    0.0000 C   0  0  0  0  0  0  0  0  0
    2.5228    2.1594    0.0000 C   0  0  0  0  0  0  0  0  0
    3.2373    2.5719    0.0000 O   0  0  0  0  0  0  0  0  0
    3.9517    2.1594    0.0000 C   0  0  0  0  0  0  0  0  0
    4.6662    2.5719    0.0000 C   0  0  0  0  0  0  0  0  0
    5.3807    2.1594    0.0000 C   0  0  0  0  0  0  0  0  0
    5.3807    1.3344    0.0000 C   0  0  0  0  0  0  0  0  0
    4.6662    0.9219    0.0000 C   0  0  0  0  0  0  0  0  0
    3.9517    1.3344    0.0000 C   0  0  0  0  0  0  0  0  0
    3.2373    0.9219    0.0000 C   0  0  0  0  0  0  0  0  0
    3.2373    0.0969    0.0000 N   0  0  0  0  0  0  0  0  0
    2.5228   -0.3156    0.0000 C   0  0  0  0  0  0  0  0  0
    6.0951    0.9219    0.0000 C   0  0  0  0  0  0  0  0  0
    6.8096    1.3344    0.0000 O   0  0  0  0  0  0  0  0  0
    6.0951    0.0969    0.0000 N   0  0  0  0  0  0  0  0  0
    6.8096   -0.3156    0.0000 C   0  0  0  0  0  0  0  0  0
    6.8096   -1.1406    0.0000 C   0  0  0  0  0  0  0  0  0
    6.0951   -1.5531    0.0000 N   0  0  0  0  0  0  0  0  0
    5.3807   -1.1406    0.0000 C   0  0  0  0  0  0  0  0  0
    5.3807   -0.3156    0.0000 C   0  0  0  0  0  0  0  0  0
    6.0951   -2.3781    0.0000 C   0  0  0  0  0  0  0  0  0
    6.5076   -3.0925    0.0000 C   0  0  0  0  0  0  0  0  0
    5.6826   -3.0925    0.0000 C   0  0  0  0  0  0  0  0  0
    2.5228    1.3344    0.0000 C   0  0  0  0  0  0  0  0  0
    1.8083    0.9219    0.0000 C   0  0  0  0  0  0  0  0  0
    1.0938    1.3344    0.0000 C   0  0  0  0  0  0  0  0  0
    0.3794    0.9219    0.0000 Cl  0  0  0  0  0  0  0  0  0
  1  2  1  0  0  0  0
  2  3  4  0  0  0  0
  2 28  4  0  0  0  0
  3  4  4  0  0  0  0
  4  5  1  0  0  0  0
  4 26  4  0  0  0  0
  5  6  1  0  0  0  0
  6  7  4  0  0  0  0
  6 11  4  0  0  0  0
  7  8  4  0  0  0  0
  8  9  4  0  0  0  0
  9 10  4  0  0  0  0
  9 15  1  0  0  0  0
 10 11  4  0  0  0  0
 11 12  1  0  0  0  0
 12 13  1  0  0  0  0
 13 14  1  0  0  0  0
 15 16  2  0  0  0  0
 15 17  1  0  0  0  0
 17 18  1  0  0  0  0
 17 22  1  0  0  0  0
 18 19  1  0  0  0  0
 19 20  1  0  0  0  0
 20 21  1  0  0  0  0
 20 23  1  0  0  0  0
 21 22  1  0  0  0  0
 23 24  1  0  0  0  0
 23 25  1  0  0  0  0
 24 25  1  0  0  0  0
 26 27  4  0  0  0  0
 27 28  4  0  0  0  0
 28 29  1  0  0  0  0
M  END
>  <Name_Molregno>
438879

>  <Dopamine transporter>
6.31

>  <HISTAMINE H3>
7.64

>  <Norepinephrine transporter>
5.49

>  <Serotonin transporter>
8.17

$$$$
438904
  Marvin  02231216192D 0   1.00000     0.00000     0

 17 18  0  0  1  0  0  0  0  0999 V2000
   -0.8884   -1.1088    0.0000 N   0  0  0  0  0  0  0  0  0
   -0.2210   -1.5937    0.0000 C   0  0  0  0  0  0  0  0  0
   -0.4759   -2.3783    0.0000 C   0  0  0  0  0  0  0  0  0
   -1.3009   -2.3783    0.0000 C   0  0  0  0  0  0  0  0  0
   -1.5559   -1.5937    0.0000 C   0  0  0  0  0  0  0  0  0
   -2.3405   -1.3388    0.0000 C   0  0  0  0  0  0  0  0  0
   -0.8884   -0.2838    0.0000 C   0  0  0  0  0  0  0  0  0
   -1.6029    0.1287    0.0000 C   0  0  0  0  0  0  0  0  0
   -1.6029    0.9537    0.0000 C   0  0  0  0  0  0  0  0  0
   -2.3174    1.3662    0.0000 C   0  0  0  0  0  0  0  0  0
   -2.3174    2.1912    0.0000 C   0  0  0  0  0  0  0  0  0
   -1.6029    2.6037    0.0000 C   0  0  0  0  0  0  0  0  0
   -0.8884    2.1912    0.0000 C   0  0  0  0  0  0  0  0  0
   -0.8884    1.3662    0.0000 C   0  0  0  0  0  0  0  0  0
   -0.1740    0.9537    0.0000 C   0  0  0  0  0  0  0  0  0
   -1.6029    3.4287    0.0000 C   0  0  0  0  0  0  0  0  0
   -3.0318    0.9537    0.0000 C   0  0  0  0  0  0  0  0  0
  1  2  1  0  0  0  0
  1  5  1  0  0  0  0
  1  7  1  0  0  0  0
  2  3  1  0  0  0  0
  3  4  1  0  0  0  0
  4  5  1  0  0  0  0
  5  6  1  0  0  0  0
  7  8  1  0  0  0  0
  8  9  1  0  0  0  0
  9 10  4  0  0  0  0
  9 14  4  0  0  0  0
 10 11  4  0  0  0  0
 10 17  1  0  0  0  0
 11 12  4  0  0  0  0
 12 13  4  0  0  0  0
 12 16  1  0  0  0  0
 13 14  4  0  0  0  0
 14 15  1  0  0  0  0
M  END
>  <Name_Molregno>
438904

>  <HISTAMINE H3>
7.98

$$$$
438924
  Marvin  02231216192D 0   1.00000     0.00000     0

 29 31  0  0  0  0  0  0  0  0999 V2000
    3.9382    3.5971    0.0000 Cl  0  0  0  0  0  0  0  0  0
    3.9382    2.7721    0.0000 C   0  0  0  0  0  0  0  0  0
    4.6527    2.3596    0.0000 C   0  0  0  0  0  0  0  0  0
    4.6527    1.5346    0.0000 C   0  0  0  0  0  0  0  0  0
    5.3672    1.1221    0.0000 O   0  0  0  0  0  0  0  0  0
    5.3672    0.2971    0.0000 C   0  0  0  0  0  0  0  0  0
    6.0817   -0.1154    0.0000 C   0  0  0  0  0  0  0  0  0
    6.0817   -0.9404    0.0000 C   0  0  0  0  0  0  0  0  0
    5.3672   -1.3529    0.0000 C   0  0  0  0  0  0  0  0  0
    4.6527   -0.9404    0.0000 C   0  0  0  0  0  0  0  0  0
    4.6527   -0.1154    0.0000 C   0  0  0  0  0  0  0  0  0
    3.9382    0.2971    0.0000 C   0  0  0  0  0  0  0  0  0
    3.2238   -0.1154    0.0000 N   0  0  0  0  0  0  0  0  0
    2.5093    0.2971    0.0000 C   0  0  0  0  0  0  0  0  0
    5.3672   -2.1779    0.0000 C   0  0  0  0  0  0  0  0  0
    6.0817   -2.5904    0.0000 O   0  0  0  0  0  0  0  0  0
    4.6527   -2.5904    0.0000 N   0  0  0  0  0  0  0  0  0
    4.6527   -3.4154    0.0000 C   0  0  0  0  0  0  0  0  0
    3.9382   -3.8279    0.0000 C   0  0  0  0  0  0  0  0  0
    3.2238   -3.4154    0.0000 N   0  0  0  0  0  0  0  0  0
    3.2238   -2.5904    0.0000 C   0  0  0  0  0  0  0  0  0
    3.9382   -2.1779    0.0000 C   0  0  0  0  0  0  0  0  0
    2.5093   -3.8279    0.0000 C   0  0  0  0  0  0  0  0  0
    1.7948   -3.4154    0.0000 C   0  0  0  0  0  0  0  0  0
    2.5093   -4.6529    0.0000 C   0  0  0  0  0  0  0  0  0
    3.9382    1.1221    0.0000 C   0  0  0  0  0  0  0  0  0
    3.2238    1.5346    0.0000 C   0  0  0  0  0  0  0  0  0
    3.2238    2.3596    0.0000 C   0  0  0  0  0  0  0  0  0
    2.5093    2.7721    0.0000 Cl  0  0  0  0  0  0  0  0  0
  1  2  1  0  0  0  0
  2  3  4  0  0  0  0
  2 28  4  0  0  0  0
  3  4  4  0  0  0  0
  4  5  1  0  0  0  0
  4 26  4  0  0  0  0
  5  6  1  0  0  0  0
  6  7  4  0  0  0  0
  6 11  4  0  0  0  0
  7  8  4  0  0  0  0
  8  9  4  0  0  0  0
  9 10  4  0  0  0  0
  9 15  1  0  0  0  0
 10 11  4  0  0  0  0
 11 12  1  0  0  0  0
 12 13  1  0  0  0  0
 13 14  1  0  0  0  0
 15 16  2  0  0  0  0
 15 17  1  0  0  0  0
 17 18  1  0  0  0  0
 17 22  1  0  0  0  0
 18 19  1  0  0  0  0
 19 20  1  0  0  0  0
 20 21  1  0  0  0  0
 20 23  1  0  0  0  0
 21 22  1  0  0  0  0
 23 24  1  0  0  0  0
 23 25  1  0  0  0  0
 26 27  4  0  0  0  0
 27 28  4  0  0  0  0
 28 29  1  0  0  0  0
M  END
>  <Name_Molregno>
438924

>  <Dopamine transporter>
6.48

>  <HISTAMINE H3>
8.62

>  <Norepinephrine transporter>
7.09

>  <Serotonin transporter>
8.2

$$$$
438950
  Marvin  02231216192D 0   1.00000     0.00000     0

 15 16  0  0  1  0  0  0  0  0999 V2000
   -0.6965   -0.8288    0.0000 O   0  0  0  0  0  0  0  0  0
    0.0180   -0.4163    0.0000 C   0  0  0  0  0  0  0  0  0
    0.0180    0.4087    0.0000 C   0  0  0  0  0  0  0  0  0
    0.7325    0.8212    0.0000 C   0  0  0  0  0  0  0  0  0
    1.4469    0.4087    0.0000 C   0  0  0  0  0  0  0  0  0
    1.4469   -0.4163    0.0000 C   0  0  0  0  0  0  0  0  0
    0.7325   -0.8288    0.0000 C   0  0  0  0  0  0  0  0  0
    0.7325   -1.6538    0.0000 C   0  0  0  0  0  0  0  0  0
    1.4469   -2.0663    0.0000 C   0  0  0  0  0  0  0  0  0
    1.4469   -2.8913    0.0000 N   0  0  0  0  0  0  0  0  0
    2.1144   -3.3762    0.0000 C   0  0  0  0  0  0  0  0  0
    1.8594   -4.1609    0.0000 C   0  0  0  0  0  0  0  0  0
    1.0344   -4.1609    0.0000 C   0  0  0  0  0  0  0  0  0
    0.7795   -3.3762    0.0000 C   0  0  0  0  0  0  0  0  0
   -0.0051   -3.1213    0.0000 C   0  0  0  0  0  0  0  0  0
  1  2  1  0  0  0  0
  2  3  4  0  0  0  0
  2  7  4  0  0  0  0
  3  4  4  0  0  0  0
  4  5  4  0  0  0  0
  5  6  4  0  0  0  0
  6  7  4  0  0  0  0
  7  8  1  0  0  0  0
  8  9  1  0  0  0  0
  9 10  1  0  0  0  0
 10 11  1  0  0  0  0
 10 14  1  0  0  0  0
 11 12  1  0  0  0  0
 12 13  1  0  0  0  0
 13 14  1  0  0  0  0
 14 15  1  0  0  0  0
M  END
>  <Name_Molregno>
438950

>  <HISTAMINE H3>
7.35

$$$$
438951
  Marvin  02231216192D 0   1.00000     0.00000     0

 16 17  0  0  0  0  0  0  0  0999 V2000
   -1.0509   -1.1109    0.0000 N   0  0  0  0  0  0  0  0  0
   -0.3834   -1.5958    0.0000 C   0  0  0  0  0  0  0  0  0
   -0.6384   -2.3804    0.0000 C   0  0  0  0  0  0  0  0  0
   -1.4634   -2.3804    0.0000 C   0  0  0  0  0  0  0  0  0
   -1.7183   -1.5958    0.0000 C   0  0  0  0  0  0  0  0  0
   -1.0509   -0.2859    0.0000 C   0  0  0  0  0  0  0  0  0
   -1.7653    0.1266    0.0000 C   0  0  0  0  0  0  0  0  0
   -1.7653    0.9516    0.0000 C   0  0  0  0  0  0  0  0  0
   -2.4798    1.3641    0.0000 C   0  0  0  0  0  0  0  0  0
   -2.4798    2.1891    0.0000 C   0  0  0  0  0  0  0  0  0
   -1.7653    2.6016    0.0000 C   0  0  0  0  0  0  0  0  0
   -1.0509    2.1891    0.0000 C   0  0  0  0  0  0  0  0  0
   -1.0509    1.3641    0.0000 C   0  0  0  0  0  0  0  0  0
   -0.3364    0.9516    0.0000 C   0  0  0  0  0  0  0  0  0
   -1.7653    3.4266    0.0000 C   0  0  0  0  0  0  0  0  0
   -3.1943    0.9516    0.0000 C   0  0  0  0  0  0  0  0  0
  1  2  1  0  0  0  0
  1  5  1  0  0  0  0
  1  6  1  0  0  0  0
  2  3  1  0  0  0  0
  3  4  1  0  0  0  0
  4  5  1  0  0  0  0
  6  7  1  0  0  0  0
  7  8  1  0  0  0  0
  8  9  4  0  0  0  0
  8 13  4  0  0  0  0
  9 10  4  0  0  0  0
  9 16  1  0  0  0  0
 10 11  4  0  0  0  0
 11 12  4  0  0  0  0
 11 15  1  0  0  0  0
 12 13  4  0  0  0  0
 13 14  1  0  0  0  0
M  END
>  <Name_Molregno>
438951

>  <HISTAMINE H3>
6.4

$$$$
438990
  Marvin  02231216192D 0   1.00000     0.00000     0

 17 18  0  0  1  0  0  0  0  0999 V2000
    2.2968    3.7818    0.0000 O   0  5  0  0  0  0  0  0  0
    3.0113    3.3693    0.0000 N   0  3  0  0  0  0  0  0  0
    3.7257    3.7818    0.0000 O   0  5  0  0  0  0  0  0  0
    3.0113    2.5443    0.0000 C   0  0  0  0  0  0  0  0  0
    3.7257    2.1318    0.0000 C   0  0  0  0  0  0  0  0  0
    3.7257    1.3068    0.0000 C   0  0  0  0  0  0  0  0  0
    3.0113    0.8943    0.0000 C   0  0  0  0  0  0  0  0  0
    2.2968    1.3068    0.0000 C   0  0  0  0  0  0  0  0  0
    2.2968    2.1318    0.0000 C   0  0  0  0  0  0  0  0  0
    3.0113    0.0693    0.0000 C   0  0  0  0  0  0  0  0  0
    3.7257   -0.3432    0.0000 C   0  0  0  0  0  0  0  0  0
    3.7257   -1.1682    0.0000 N   0  0  0  0  0  0  0  0  0
    4.3932   -1.6531    0.0000 C   0  0  0  0  0  0  0  0  0
    4.1382   -2.4377    0.0000 C   0  0  0  0  0  0  0  0  0
    3.3132   -2.4377    0.0000 C   0  0  0  0  0  0  0  0  0
    3.0583   -1.6531    0.0000 C   0  0  0  0  0  0  0  0  0
    2.2737   -1.3981    0.0000 C   0  0  0  0  0  0  0  0  0
  1  2  1  0  0  0  0
  2  3  1  0  0  0  0
  2  4  1  0  0  0  0
  4  5  4  0  0  0  0
  4  9  4  0  0  0  0
  5  6  4  0  0  0  0
  6  7  4  0  0  0  0
  7  8  4  0  0  0  0
  7 10  1  0  0  0  0
  8  9  4  0  0  0  0
 10 11  1  0  0  0  0
 11 12  1  0  0  0  0
 12 13  1  0  0  0  0
 12 16  1  0  0  0  0
 13 14  1  0  0  0  0
 14 15  1  0  0  0  0
 15 16  1  0  0  0  0
 16 17  1  0  0  0  0
M  CHG  3   1  -1   2   1   3  -1
M  END
>  <Name_Molregno>
438990

>  <HISTAMINE H3>
7.36

$$$$
438991
  Marvin  02231216192D 0   1.00000     0.00000     0

 14 15  0  0  0  0  0  0  0  0999 V2000
   -2.4004   -0.8065    0.0000 O   0  0  0  0  0  0  0  0  0
   -1.6859   -0.3940    0.0000 C   0  0  0  0  0  0  0  0  0
   -1.6859    0.4310    0.0000 C   0  0  0  0  0  0  0  0  0
   -0.9714    0.8435    0.0000 C   0  0  0  0  0  0  0  0  0
   -0.2570    0.4310    0.0000 C   0  0  0  0  0  0  0  0  0
   -0.2570   -0.3940    0.0000 C   0  0  0  0  0  0  0  0  0
   -0.9714   -0.8065    0.0000 C   0  0  0  0  0  0  0  0  0
   -0.9714   -1.6315    0.0000 C   0  0  0  0  0  0  0  0  0
   -0.2570   -2.0440    0.0000 C   0  0  0  0  0  0  0  0  0
   -0.2570   -2.8690    0.0000 N   0  0  0  0  0  0  0  0  0
    0.4105   -3.3539    0.0000 C   0  0  0  0  0  0  0  0  0
    0.1555   -4.1385    0.0000 C   0  0  0  0  0  0  0  0  0
   -0.6695   -4.1385    0.0000 C   0  0  0  0  0  0  0  0  0
   -0.9244   -3.3539    0.0000 C   0  0  0  0  0  0  0  0  0
  1  2  1  0  0  0  0
  2  3  4  0  0  0  0
  2  7  4  0  0  0  0
  3  4  4  0  0  0  0
  4  5  4  0  0  0  0
  5  6  4  0  0  0  0
  6  7  4  0  0  0  0
  7  8  1  0  0  0  0
  8  9  1  0  0  0  0
  9 10  1  0  0  0  0
 10 11  1  0  0  0  0
 10 14  1  0  0  0  0
 11 12  1  0  0  0  0
 12 13  1  0  0  0  0
 13 14  1  0  0  0  0
M  END
>  <Name_Molregno>
438991

>  <HISTAMINE H3>
6.57

$$$$
438996
  Marvin  02231216192D 0   1.00000     0.00000     0

 16 17  0  0  0  0  0  0  0  0999 V2000
    1.9956    2.6349    0.0000 O   0  5  0  0  0  0  0  0  0
    2.7100    2.2224    0.0000 N   0  3  0  0  0  0  0  0  0
    3.4245    2.6349    0.0000 O   0  5  0  0  0  0  0  0  0
    2.7100    1.3974    0.0000 C   0  0  0  0  0  0  0  0  0
    3.4245    0.9849    0.0000 C   0  0  0  0  0  0  0  0  0
    3.4245    0.1599    0.0000 C   0  0  0  0  0  0  0  0  0
    2.7100   -0.2526    0.0000 C   0  0  0  0  0  0  0  0  0
    1.9956    0.1599    0.0000 C   0  0  0  0  0  0  0  0  0
    1.9956    0.9849    0.0000 C   0  0  0  0  0  0  0  0  0
    2.7100   -1.0776    0.0000 C   0  0  0  0  0  0  0  0  0
    3.4245   -1.4901    0.0000 C   0  0  0  0  0  0  0  0  0
    3.4245   -2.3151    0.0000 N   0  0  0  0  0  0  0  0  0
    4.0920   -2.8000    0.0000 C   0  0  0  0  0  0  0  0  0
    3.8370   -3.5846    0.0000 C   0  0  0  0  0  0  0  0  0
    3.0120   -3.5846    0.0000 C   0  0  0  0  0  0  0  0  0
    2.7571   -2.8000    0.0000 C   0  0  0  0  0  0  0  0  0
  1  2  1  0  0  0  0
  2  3  1  0  0  0  0
  2  4  1  0  0  0  0
  4  5  4  0  0  0  0
  4  9  4  0  0  0  0
  5  6  4  0  0  0  0
  6  7  4  0  0  0  0
  7  8  4  0  0  0  0
  7 10  1  0  0  0  0
  8  9  4  0  0  0  0
 10 11  1  0  0  0  0
 11 12  1  0  0  0  0
 12 13  1  0  0  0  0
 12 16  1  0  0  0  0
 13 14  1  0  0  0  0
 14 15  1  0  0  0  0
 15 16  1  0  0  0  0
M  CHG  3   1  -1   2   1   3  -1
M  END
>  <Name_Molregno>
438996

>  <HISTAMINE H3>
6.44

$$$$
439043
  Marvin  02231216192D 0   1.00000     0.00000     0

 17 18  0  0  1  0  0  0  0  0999 V2000
    2.4842    3.1578    0.0000 N   0  0  0  0  0  0  0  0  0
    1.7697    3.5703    0.0000 C   0  0  0  0  0  0  0  0  0
    3.1987    3.5703    0.0000 C   0  0  0  0  0  0  0  0  0
    2.4842    2.3328    0.0000 C   0  0  0  0  0  0  0  0  0
    3.1987    1.9203    0.0000 C   0  0  0  0  0  0  0  0  0
    3.1987    1.0953    0.0000 C   0  0  0  0  0  0  0  0  0
    2.4842    0.6828    0.0000 C   0  0  0  0  0  0  0  0  0
    1.7697    1.0953    0.0000 C   0  0  0  0  0  0  0  0  0
    1.7697    1.9203    0.0000 C   0  0  0  0  0  0  0  0  0
    2.4842   -0.1422    0.0000 C   0  0  0  0  0  0  0  0  0
    3.1987   -0.5547    0.0000 C   0  0  0  0  0  0  0  0  0
    3.1987   -1.3797    0.0000 N   0  0  0  0  0  0  0  0  0
    3.8661   -1.8646    0.0000 C   0  0  0  0  0  0  0  0  0
    3.6112   -2.6492    0.0000 C   0  0  0  0  0  0  0  0  0
    2.7862   -2.6492    0.0000 C   0  0  0  0  0  0  0  0  0
    2.5312   -1.8646    0.0000 C   0  0  0  0  0  0  0  0  0
    1.7466   -1.6097    0.0000 C   0  0  0  0  0  0  0  0  0
  1  2  1  0  0  0  0
  1  3  1  0  0  0  0
  1  4  1  0  0  0  0
  4  5  4  0  0  0  0
  4  9  4  0  0  0  0
  5  6  4  0  0  0  0
  6  7  4  0  0  0  0
  7  8  4  0  0  0  0
  7 10  1  0  0  0  0
  8  9  4  0  0  0  0
 10 11  1  0  0  0  0
 11 12  1  0  0  0  0
 12 13  1  0  0  0  0
 12 16  1  0  0  0  0
 13 14  1  0  0  0  0
 14 15  1  0  0  0  0
 15 16  1  0  0  0  0
 16 17  1  0  0  0  0
M  END
>  <Name_Molregno>
439043

>  <HISTAMINE H3>
7.8

$$$$
439045
  Marvin  02231216192D 0   1.00000     0.00000     0

 16 17  0  0  0  0  0  0  0  0999 V2000
    2.3049    2.9162    0.0000 N   0  0  0  0  0  0  0  0  0
    1.5904    3.3287    0.0000 C   0  0  0  0  0  0  0  0  0
    3.0193    3.3287    0.0000 C   0  0  0  0  0  0  0  0  0
    2.3049    2.0912    0.0000 C   0  0  0  0  0  0  0  0  0
    3.0193    1.6787    0.0000 C   0  0  0  0  0  0  0  0  0
    3.0193    0.8537    0.0000 C   0  0  0  0  0  0  0  0  0
    2.3049    0.4412    0.0000 C   0  0  0  0  0  0  0  0  0
    1.5904    0.8537    0.0000 C   0  0  0  0  0  0  0  0  0
    1.5904    1.6787    0.0000 C   0  0  0  0  0  0  0  0  0
    2.3049   -0.3838    0.0000 C   0  0  0  0  0  0  0  0  0
    3.0193   -0.7963    0.0000 C   0  0  0  0  0  0  0  0  0
    3.0193   -1.6213    0.0000 N   0  0  0  0  0  0  0  0  0
    3.6868   -2.1062    0.0000 C   0  0  0  0  0  0  0  0  0
    3.4318   -2.8908    0.0000 C   0  0  0  0  0  0  0  0  0
    2.6068   -2.8908    0.0000 C   0  0  0  0  0  0  0  0  0
    2.3519   -2.1062    0.0000 C   0  0  0  0  0  0  0  0  0
  1  2  1  0  0  0  0
  1  3  1  0  0  0  0
  1  4  1  0  0  0  0
  4  5  4  0  0  0  0
  4  9  4  0  0  0  0
  5  6  4  0  0  0  0
  6  7  4  0  0  0  0
  7  8  4  0  0  0  0
  7 10  1  0  0  0  0
  8  9  4  0  0  0  0
 10 11  1  0  0  0  0
 11 12  1  0  0  0  0
 12 13  1  0  0  0  0
 12 16  1  0  0  0  0
 13 14  1  0  0  0  0
 14 15  1  0  0  0  0
 15 16  1  0  0  0  0
M  END
>  <Name_Molregno>
439045

>  <HISTAMINE H3>
6.44

$$$$
439047
  Marvin  02231216192D 0   1.00000     0.00000     0

 12 13  0  0  0  0  0  0  0  0999 V2000
    2.6762   -2.1866    0.0000 S   0  0  0  0  0  0  0  0  0
    2.4213   -2.9712    0.0000 C   0  0  0  0  0  0  0  0  0
    1.5963   -2.9712    0.0000 C   0  0  0  0  0  0  0  0  0
    1.3413   -2.1866    0.0000 C   0  0  0  0  0  0  0  0  0
    2.0088   -1.7017    0.0000 C   0  0  0  0  0  0  0  0  0
    2.0088   -0.8767    0.0000 C   0  0  0  0  0  0  0  0  0
    1.2943   -0.4642    0.0000 C   0  0  0  0  0  0  0  0  0
    1.2943    0.3608    0.0000 N   0  0  0  0  0  0  0  0  0
    0.6268    0.8457    0.0000 C   0  0  0  0  0  0  0  0  0
    0.8818    1.6303    0.0000 C   0  0  0  0  0  0  0  0  0
    1.7068    1.6303    0.0000 C   0  0  0  0  0  0  0  0  0
    1.9617    0.8457    0.0000 C   0  0  0  0  0  0  0  0  0
  1  2  4  0  0  0  0
  1  5  4  0  0  0  0
  2  3  4  0  0  0  0
  3  4  4  0  0  0  0
  4  5  4  0  0  0  0
  5  6  1  0  0  0  0
  6  7  1  0  0  0  0
  7  8  1  0  0  0  0
  8  9  1  0  0  0  0
  8 12  1  0  0  0  0
  9 10  1  0  0  0  0
 10 11  1  0  0  0  0
 11 12  1  0  0  0  0
M  END
>  <Name_Molregno>
439047

>  <HISTAMINE H3>
6.44

$$$$
439048
  Marvin  02231216192D 0   1.00000     0.00000     0

 13 14  0  0  1  0  0  0  0  0999 V2000
    2.4050   -2.2064    0.0000 S   0  0  0  0  0  0  0  0  0
    2.1500   -2.9910    0.0000 C   0  0  0  0  0  0  0  0  0
    1.3250   -2.9910    0.0000 C   0  0  0  0  0  0  0  0  0
    1.0701   -2.2064    0.0000 C   0  0  0  0  0  0  0  0  0
    1.7375   -1.7214    0.0000 C   0  0  0  0  0  0  0  0  0
    1.7375   -0.8964    0.0000 C   0  0  0  0  0  0  0  0  0
    1.0231   -0.4839    0.0000 C   0  0  0  0  0  0  0  0  0
    1.0231    0.3411    0.0000 N   0  0  0  0  0  0  0  0  0
    0.3556    0.8260    0.0000 C   0  0  0  0  0  0  0  0  0
    0.6106    1.6106    0.0000 C   0  0  0  0  0  0  0  0  0
    1.4356    1.6106    0.0000 C   0  0  0  0  0  0  0  0  0
    1.6905    0.8260    0.0000 C   0  0  0  0  0  0  0  0  0
    2.4751    0.5711    0.0000 C   0  0  0  0  0  0  0  0  0
  1  2  4  0  0  0  0
  1  5  4  0  0  0  0
  2  3  4  0  0  0  0
  3  4  4  0  0  0  0
  4  5  4  0  0  0  0
  5  6  1  0  0  0  0
  6  7  1  0  0  0  0
  7  8  1  0  0  0  0
  8  9  1  0  0  0  0
  8 12  1  0  0  0  0
  9 10  1  0  0  0  0
 10 11  1  0  0  0  0
 11 12  1  0  0  0  0
 12 13  1  0  0  0  0
M  END
>  <Name_Molregno>
439048

>  <HISTAMINE H3>
7.21

$$$$
439084
  Marvin  02231216192D 0   1.00000     0.00000     0

 13 14  0  0  1  0  0  0  0  0999 V2000
    2.4050   -2.2064    0.0000 S   0  0  0  0  0  0  0  0  0
    2.1500   -2.9910    0.0000 N   0  0  0  0  0  0  0  0  0
    1.3250   -2.9910    0.0000 C   0  0  0  0  0  0  0  0  0
    1.0701   -2.2064    0.0000 C   0  0  0  0  0  0  0  0  0
    1.7375   -1.7214    0.0000 C   0  0  0  0  0  0  0  0  0
    1.7375   -0.8964    0.0000 C   0  0  0  0  0  0  0  0  0
    1.0231   -0.4839    0.0000 C   0  0  0  0  0  0  0  0  0
    1.0231    0.3411    0.0000 N   0  0  0  0  0  0  0  0  0
    0.3556    0.8260    0.0000 C   0  0  0  0  0  0  0  0  0
    0.6106    1.6106    0.0000 C   0  0  0  0  0  0  0  0  0
    1.4356    1.6106    0.0000 C   0  0  0  0  0  0  0  0  0
    1.6905    0.8260    0.0000 C   0  0  0  0  0  0  0  0  0
    2.4751    0.5711    0.0000 C   0  0  0  0  0  0  0  0  0
  1  2  4  0  0  0  0
  1  5  4  0  0  0  0
  2  3  4  0  0  0  0
  3  4  4  0  0  0  0
  4  5  4  0  0  0  0
  5  6  1  0  0  0  0
  6  7  1  0  0  0  0
  7  8  1  0  0  0  0
  8  9  1  0  0  0  0
  8 12  1  0  0  0  0
  9 10  1  0  0  0  0
 10 11  1  0  0  0  0
 11 12  1  0  0  0  0
 12 13  1  0  0  0  0
M  END
>  <Name_Molregno>
439084

>  <HISTAMINE H3>
7.63

$$$$
439088
  Marvin  02231216192D 0   1.00000     0.00000     0

 16 17  0  0  1  0  0  0  0  0999 V2000
   -0.0140    0.5502    0.0000 N   0  0  0  0  0  0  0  0  0
   -0.0140    1.3752    0.0000 C   0  0  0  0  0  0  0  0  0
    0.7005    1.7877    0.0000 C   0  0  0  0  0  0  0  0  0
    1.4150    1.3752    0.0000 C   0  0  0  0  0  0  0  0  0
    1.4150    0.5502    0.0000 C   0  0  0  0  0  0  0  0  0
    0.7005    0.1377    0.0000 C   0  0  0  0  0  0  0  0  0
    0.7005   -0.6873    0.0000 C   0  0  0  0  0  0  0  0  0
    1.4150   -1.0998    0.0000 C   0  0  0  0  0  0  0  0  0
    1.4150   -1.9248    0.0000 N   0  0  0  0  0  0  0  0  0
    2.0824   -2.4097    0.0000 C   0  0  0  0  0  0  0  0  0
    1.8275   -3.1943    0.0000 C   0  0  0  0  0  0  0  0  0
    1.0025   -3.1943    0.0000 C   0  0  0  0  0  0  0  0  0
    0.7475   -2.4097    0.0000 C   0  0  0  0  0  0  0  0  0
   -0.0371   -2.1548    0.0000 C   0  0  0  0  0  0  0  0  0
    0.7005    2.6127    0.0000 C   0  0  0  0  0  0  0  0  0
   -0.0140    3.0252    0.0000 C   0  0  0  0  0  0  0  0  0
  1  2  4  0  0  0  0
  1  6  4  0  0  0  0
  2  3  4  0  0  0  0
  3  4  4  0  0  0  0
  3 15  1  0  0  0  0
  4  5  4  0  0  0  0
  5  6  4  0  0  0  0
  6  7  1  0  0  0  0
  7  8  1  0  0  0  0
  8  9  1  0  0  0  0
  9 10  1  0  0  0  0
  9 13  1  0  0  0  0
 10 11  1  0  0  0  0
 11 12  1  0  0  0  0
 12 13  1  0  0  0  0
 13 14  1  0  0  0  0
 15 16  1  0  0  0  0
M  END
>  <Name_Molregno>
439088

>  <HISTAMINE H3>
6.99

$$$$
439089
  Marvin  02231216192D 0   1.00000     0.00000     0

 12 13  0  0  0  0  0  0  0  0999 V2000
    2.6762   -2.1866    0.0000 S   0  0  0  0  0  0  0  0  0
    2.4213   -2.9712    0.0000 N   0  0  0  0  0  0  0  0  0
    1.5963   -2.9712    0.0000 C   0  0  0  0  0  0  0  0  0
    1.3413   -2.1866    0.0000 C   0  0  0  0  0  0  0  0  0
    2.0088   -1.7017    0.0000 C   0  0  0  0  0  0  0  0  0
    2.0088   -0.8767    0.0000 C   0  0  0  0  0  0  0  0  0
    1.2943   -0.4642    0.0000 C   0  0  0  0  0  0  0  0  0
    1.2943    0.3608    0.0000 N   0  0  0  0  0  0  0  0  0
    0.6268    0.8457    0.0000 C   0  0  0  0  0  0  0  0  0
    0.8818    1.6303    0.0000 C   0  0  0  0  0  0  0  0  0
    1.7068    1.6303    0.0000 C   0  0  0  0  0  0  0  0  0
    1.9617    0.8457    0.0000 C   0  0  0  0  0  0  0  0  0
  1  2  4  0  0  0  0
  1  5  4  0  0  0  0
  2  3  4  0  0  0  0
  3  4  4  0  0  0  0
  4  5  4  0  0  0  0
  5  6  1  0  0  0  0
  6  7  1  0  0  0  0
  7  8  1  0  0  0  0
  8  9  1  0  0  0  0
  8 12  1  0  0  0  0
  9 10  1  0  0  0  0
 10 11  1  0  0  0  0
 11 12  1  0  0  0  0
M  END
>  <Name_Molregno>
439089

>  <HISTAMINE H3>
6.72

$$$$
439103
  Marvin  02231216192D 0   1.00000     0.00000     0

 30 33  0  0  0  0  0  0  0  0999 V2000
   -0.4560    2.3389    0.0000 S   0  0  0  0  0  0  0  0  0
   -0.4560    1.5139    0.0000 C   0  0  0  0  0  0  0  0  0
    0.2585    2.7514    0.0000 C   0  0  0  0  0  0  0  0  0
    0.2585    3.5764    0.0000 C   0  0  0  0  0  0  0  0  0
    0.9730    3.9889    0.0000 C   0  0  0  0  0  0  0  0  0
    1.6874    3.5764    0.0000 C   0  0  0  0  0  0  0  0  0
    2.4019    3.9889    0.0000 O   0  0  0  0  0  0  0  0  0
    3.1164    3.5764    0.0000 C   0  0  0  0  0  0  0  0  0
    3.8309    3.9889    0.0000 C   0  0  0  0  0  0  0  0  0
    4.5453    3.5764    0.0000 C   0  0  0  0  0  0  0  0  0
    4.5453    2.7514    0.0000 C   0  0  0  0  0  0  0  0  0
    3.8309    2.3389    0.0000 C   0  0  0  0  0  0  0  0  0
    3.1164    2.7514    0.0000 C   0  0  0  0  0  0  0  0  0
    2.4019    2.3389    0.0000 C   0  0  0  0  0  0  0  0  0
    2.4019    1.5139    0.0000 N   0  0  0  0  0  0  0  0  0
    1.6874    1.1014    0.0000 C   0  0  0  0  0  0  0  0  0
    5.2598    2.3389    0.0000 C   0  0  0  0  0  0  0  0  0
    5.9743    2.7514    0.0000 O   0  0  0  0  0  0  0  0  0
    5.2598    1.5139    0.0000 N   0  0  0  0  0  0  0  0  0
    5.9743    1.1014    0.0000 C   0  0  0  0  0  0  0  0  0
    5.9743    0.2764    0.0000 C   0  0  0  0  0  0  0  0  0
    5.2598   -0.1361    0.0000 N   0  0  0  0  0  0  0  0  0
    4.5453    0.2764    0.0000 C   0  0  0  0  0  0  0  0  0
    4.5453    1.1014    0.0000 C   0  0  0  0  0  0  0  0  0
    5.2598   -0.9611    0.0000 C   0  0  0  0  0  0  0  0  0
    5.6723   -1.6755    0.0000 C   0  0  0  0  0  0  0  0  0
    4.8473   -1.6755    0.0000 C   0  0  0  0  0  0  0  0  0
    1.6874    2.7514    0.0000 C   0  0  0  0  0  0  0  0  0
    0.9730    2.3389    0.0000 C   0  0  0  0  0  0  0  0  0
    0.9730    1.5139    0.0000 C   0  0  0  0  0  0  0  0  0
  1  2  1  0  0  0  0
  1  3  1  0  0  0  0
  3  4  4  0  0  0  0
  3 29  4  0  0  0  0
  4  5  4  0  0  0  0
  5  6  4  0  0  0  0
  6  7  1  0  0  0  0
  6 28  4  0  0  0  0
  7  8  1  0  0  0  0
  8  9  4  0  0  0  0
  8 13  4  0  0  0  0
  9 10  4  0  0  0  0
 10 11  4  0  0  0  0
 11 12  4  0  0  0  0
 11 17  1  0  0  0  0
 12 13  4  0  0  0  0
 13 14  1  0  0  0  0
 14 15  1  0  0  0  0
 15 16  1  0  0  0  0
 17 18  2  0  0  0  0
 17 19  1  0  0  0  0
 19 20  1  0  0  0  0
 19 24  1  0  0  0  0
 20 21  1  0  0  0  0
 21 22  1  0  0  0  0
 22 23  1  0  0  0  0
 22 25  1  0  0  0  0
 23 24  1  0  0  0  0
 25 26  1  0  0  0  0
 25 27  1  0  0  0  0
 26 27  1  0  0  0  0
 28 29  4  0  0  0  0
 29 30  1  0  0  0  0
M  END
>  <Name_Molregno>
439103

>  <Dopamine transporter>
5.15

>  <HISTAMINE H3>
7.68

>  <Norepinephrine transporter>
5.32

>  <Serotonin transporter>
7.96

$$$$
439135
  Marvin  02231216192D 0   1.00000     0.00000     0

 15 16  0  0  0  0  0  0  0  0999 V2000
   -0.1931    0.3134    0.0000 N   0  0  0  0  0  0  0  0  0
   -0.1931    1.1384    0.0000 C   0  0  0  0  0  0  0  0  0
    0.5214    1.5509    0.0000 C   0  0  0  0  0  0  0  0  0
    1.2358    1.1384    0.0000 C   0  0  0  0  0  0  0  0  0
    1.2358    0.3134    0.0000 C   0  0  0  0  0  0  0  0  0
    0.5214   -0.0991    0.0000 C   0  0  0  0  0  0  0  0  0
    0.5214   -0.9241    0.0000 C   0  0  0  0  0  0  0  0  0
    1.2358   -1.3366    0.0000 C   0  0  0  0  0  0  0  0  0
    1.2358   -2.1616    0.0000 N   0  0  0  0  0  0  0  0  0
    1.9033   -2.6465    0.0000 C   0  0  0  0  0  0  0  0  0
    1.6483   -3.4312    0.0000 C   0  0  0  0  0  0  0  0  0
    0.8233   -3.4312    0.0000 C   0  0  0  0  0  0  0  0  0
    0.5684   -2.6465    0.0000 C   0  0  0  0  0  0  0  0  0
    0.5214    2.3759    0.0000 C   0  0  0  0  0  0  0  0  0
   -0.1931    2.7884    0.0000 C   0  0  0  0  0  0  0  0  0
  1  2  4  0  0  0  0
  1  6  4  0  0  0  0
  2  3  4  0  0  0  0
  3  4  4  0  0  0  0
  3 14  1  0  0  0  0
  4  5  4  0  0  0  0
  5  6  4  0  0  0  0
  6  7  1  0  0  0  0
  7  8  1  0  0  0  0
  8  9  1  0  0  0  0
  9 10  1  0  0  0  0
  9 13  1  0  0  0  0
 10 11  1  0  0  0  0
 11 12  1  0  0  0  0
 12 13  1  0  0  0  0
 14 15  1  0  0  0  0
M  END
>  <Name_Molregno>
439135

>  <HISTAMINE H3>
6.64

$$$$
439138
  Marvin  02231216192D 0   1.00000     0.00000     0

 14 15  0  0  1  0  0  0  0  0999 V2000
    2.2763    2.1604    0.0000 N   0  0  0  0  0  0  0  0  0
    2.9908    1.7479    0.0000 C   0  0  0  0  0  0  0  0  0
    2.9908    0.9229    0.0000 C   0  0  0  0  0  0  0  0  0
    2.2763    0.5104    0.0000 C   0  0  0  0  0  0  0  0  0
    1.5618    0.9229    0.0000 C   0  0  0  0  0  0  0  0  0
    1.5618    1.7479    0.0000 C   0  0  0  0  0  0  0  0  0
    2.2763   -0.3146    0.0000 C   0  0  0  0  0  0  0  0  0
    2.9908   -0.7271    0.0000 C   0  0  0  0  0  0  0  0  0
    2.9908   -1.5521    0.0000 N   0  0  0  0  0  0  0  0  0
    3.6582   -2.0370    0.0000 C   0  0  0  0  0  0  0  0  0
    3.4033   -2.8216    0.0000 C   0  0  0  0  0  0  0  0  0
    2.5783   -2.8216    0.0000 C   0  0  0  0  0  0  0  0  0
    2.3233   -2.0370    0.0000 C   0  0  0  0  0  0  0  0  0
    1.5387   -1.7821    0.0000 C   0  0  0  0  0  0  0  0  0
  1  2  4  0  0  0  0
  1  6  4  0  0  0  0
  2  3  4  0  0  0  0
  3  4  4  0  0  0  0
  4  5  4  0  0  0  0
  4  7  1  0  0  0  0
  5  6  4  0  0  0  0
  7  8  1  0  0  0  0
  8  9  1  0  0  0  0
  9 10  1  0  0  0  0
  9 13  1  0  0  0  0
 10 11  1  0  0  0  0
 11 12  1  0  0  0  0
 12 13  1  0  0  0  0
 13 14  1  0  0  0  0
M  END
>  <Name_Molregno>
439138

>  <HISTAMINE H3>
7

$$$$
439140
  Marvin  02231216192D 0   1.00000     0.00000     0

 13 14  0  0  0  0  0  0  0  0999 V2000
    2.0939    2.1494    0.0000 N   0  0  0  0  0  0  0  0  0
    2.8083    1.7369    0.0000 C   0  0  0  0  0  0  0  0  0
    2.8083    0.9119    0.0000 C   0  0  0  0  0  0  0  0  0
    2.0939    0.4994    0.0000 C   0  0  0  0  0  0  0  0  0
    1.3794    0.9119    0.0000 C   0  0  0  0  0  0  0  0  0
    1.3794    1.7369    0.0000 C   0  0  0  0  0  0  0  0  0
    2.0939   -0.3256    0.0000 C   0  0  0  0  0  0  0  0  0
    2.8083   -0.7381    0.0000 C   0  0  0  0  0  0  0  0  0
    2.8083   -1.5631    0.0000 N   0  0  0  0  0  0  0  0  0
    3.4758   -2.0480    0.0000 C   0  0  0  0  0  0  0  0  0
    3.2208   -2.8326    0.0000 C   0  0  0  0  0  0  0  0  0
    2.3958   -2.8326    0.0000 C   0  0  0  0  0  0  0  0  0
    2.1409   -2.0480    0.0000 C   0  0  0  0  0  0  0  0  0
  1  2  4  0  0  0  0
  1  6  4  0  0  0  0
  2  3  4  0  0  0  0
  3  4  4  0  0  0  0
  4  5  4  0  0  0  0
  4  7  1  0  0  0  0
  5  6  4  0  0  0  0
  7  8  1  0  0  0  0
  8  9  1  0  0  0  0
  9 10  1  0  0  0  0
  9 13  1  0  0  0  0
 10 11  1  0  0  0  0
 11 12  1  0  0  0  0
 12 13  1  0  0  0  0
M  END
>  <Name_Molregno>
439140

>  <HISTAMINE H3>
6.46

$$$$
448805
  Marvin  02231216192D 0   1.00000     0.00000     0

 30 34  0  0  1  0  0  0  0  0999 V2000
   -8.4123    2.3258    0.0000 O   0  0  0  0  0  0  0  0  0
   -7.5873    2.3258    0.0000 C   0  0  0  0  0  0  0  0  0
   -7.1748    1.6113    0.0000 C   0  0  0  0  0  0  0  0  0
   -7.5873    0.8969    0.0000 C   0  0  0  0  0  0  0  0  0
   -8.4123    0.8969    0.0000 C   0  0  0  0  0  0  0  0  0
   -8.8248    1.6113    0.0000 C   0  0  0  0  0  0  0  0  0
   -7.1748    0.1824    0.0000 C   0  0  0  0  0  0  0  0  0
   -7.5873   -0.5321    0.0000 O   0  0  0  0  0  0  0  0  0
   -6.3498    0.1824    0.0000 N   0  0  0  0  0  0  0  0  0
   -5.8649   -0.4850    0.0000 C   0  0  0  0  0  0  0  0  0
   -5.0802   -0.2301    0.0000 C   0  0  0  0  0  0  0  0  0
   -5.0802    0.5949    0.0000 C   0  0  0  0  0  0  0  0  0
   -4.2956    0.8498    0.0000 C   0  0  0  0  0  0  0  0  0
   -3.8107    0.1824    0.0000 C   0  0  0  0  0  0  0  0  0
   -4.2956   -0.4850    0.0000 C   0  0  0  0  0  0  0  0  0
   -4.0407   -1.2697    0.0000 C   0  0  0  0  0  0  0  0  0
   -3.2337   -1.4412    0.0000 C   0  0  0  0  0  0  0  0  0
   -2.9788   -2.2258    0.0000 C   0  0  0  0  0  0  0  0  0
   -3.5308   -2.8389    0.0000 C   0  0  0  0  0  0  0  0  0
   -4.3378   -2.6674    0.0000 C   0  0  0  0  0  0  0  0  0
   -4.5927   -1.8828    0.0000 C   0  0  0  0  0  0  0  0  0
   -3.2759   -3.6235    0.0000 C   0  0  0  0  0  0  0  0  0
   -2.4689   -3.7951    0.0000 C   0  0  0  0  0  0  0  0  0
   -2.2139   -4.5797    0.0000 N   0  0  0  0  0  0  0  0  0
   -1.4293   -4.8346    0.0000 C   0  0  0  0  0  0  0  0  0
   -1.4293   -5.6596    0.0000 C   0  0  0  0  0  0  0  0  0
   -2.2139   -5.9146    0.0000 C   0  0  0  0  0  0  0  0  0
   -2.6989   -5.2471    0.0000 C   0  0  0  0  0  0  0  0  0
   -3.5239   -5.2471    0.0000 C   0  0  0  0  0  0  0  0  0
   -5.8649    0.8498    0.0000 C   0  0  0  0  0  0  0  0  0
  1  2  1  0  0  0  0
  1  6  1  0  0  0  0
  2  3  1  0  0  0  0
  3  4  1  0  0  0  0
  4  5  1  0  0  0  0
  4  7  1  0  0  0  0
  5  6  1  0  0  0  0
  7  8  2  0  0  0  0
  7  9  1  0  0  0  0
  9 10  1  0  0  0  0
  9 30  1  0  0  0  0
 10 11  1  0  0  0  0
 11 12  1  0  0  0  0
 11 15  1  0  0  0  0
 12 13  1  0  0  0  0
 12 30  1  0  0  0  0
 13 14  1  0  0  0  0
 14 15  2  0  0  0  0
 15 16  1  0  0  0  0
 16 17  4  0  0  0  0
 16 21  4  0  0  0  0
 17 18  4  0  0  0  0
 18 19  4  0  0  0  0
 19 20  4  0  0  0  0
 19 22  1  0  0  0  0
 20 21  4  0  0  0  0
 22 23  1  0  0  0  0
 23 24  1  0  0  0  0
 24 25  1  0  0  0  0
 24 28  1  0  0  0  0
 25 26  1  0  0  0  0
 26 27  1  0  0  0  0
 27 28  1  0  0  0  0
 28 29  1  0  0  0  0
M  END
>  <Name_Molregno>
448805

>  <HISTAMINE H3>
8.55

$$$$
451250
  Marvin  02231216192D 0   1.00000     0.00000     0

 36 41  0  0  1  0  0  0  0  0999 V2000
    0.0697   -0.4965    0.0000 S   0  0  0  0  0  0  0  0  0
   -0.6898   -0.8188    0.0000 O   0  0  0  0  0  0  0  0  0
    0.8291   -0.1742    0.0000 O   0  0  0  0  0  0  0  0  0
   -0.2526    0.2630    0.0000 N   0  0  0  0  0  0  0  0  0
    0.2440    0.9218    0.0000 C   0  0  0  0  0  0  0  0  0
   -1.0714    0.3636    0.0000 C   0  0  0  0  0  0  0  0  0
   -1.3937    1.1230    0.0000 C   0  0  0  0  0  0  0  0  0
   -2.2126    1.2236    0.0000 C   0  0  0  0  0  0  0  0  0
   -2.5349    1.9831    0.0000 C   0  0  0  0  0  0  0  0  0
   -3.3537    2.0837    0.0000 C   0  0  0  0  0  0  0  0  0
   -3.8503    1.4249    0.0000 C   0  0  0  0  0  0  0  0  0
   -3.5280    0.6654    0.0000 C   0  0  0  0  0  0  0  0  0
   -4.0245    0.0066    0.0000 C   0  0  0  0  0  0  0  0  0
   -4.8434    0.1072    0.0000 C   0  0  0  0  0  0  0  0  0
   -5.1657    0.8667    0.0000 C   0  0  0  0  0  0  0  0  0
   -5.9457    1.1353    0.0000 C   0  0  0  0  0  0  0  0  0
   -5.9312    1.9602    0.0000 C   0  0  0  0  0  0  0  0  0
   -5.1422    2.2013    0.0000 C   0  0  0  0  0  0  0  0  0
   -4.6691    1.5255    0.0000 C   0  0  0  0  0  0  0  0  0
   -6.4422    0.4765    0.0000 C   0  0  0  0  0  0  0  0  0
   -5.9691   -0.1993    0.0000 N   0  0  0  0  0  0  0  0  0
   -5.1801    0.0418    0.0000 C   0  0  0  0  0  0  0  0  0
   -6.2378   -0.9794    0.0000 C   0  0  0  0  0  0  0  0  0
   -7.2671    0.4910    0.0000 C   0  0  0  0  0  0  0  0  0
   -2.7091    0.5648    0.0000 C   0  0  0  0  0  0  0  0  0
   -2.3868   -0.1946    0.0000 C   0  0  0  0  0  0  0  0  0
   -1.5680   -0.2952    0.0000 C   0  0  0  0  0  0  0  0  0
   -3.2057   -0.0940    0.0000 C   0  0  0  0  0  0  0  0  0
    0.3920   -1.2559    0.0000 C   0  0  0  0  0  0  0  0  0
    1.2108   -1.3565    0.0000 C   0  0  0  0  0  0  0  0  0
    1.5331   -2.1160    0.0000 C   0  0  0  0  0  0  0  0  0
    1.0365   -2.7748    0.0000 C   0  0  0  0  0  0  0  0  0
    0.2177   -2.6742    0.0000 C   0  0  0  0  0  0  0  0  0
   -0.1046   -1.9148    0.0000 C   0  0  0  0  0  0  0  0  0
    1.3588   -3.5343    0.0000 C   0  0  0  0  0  0  0  0  0
    1.6811   -4.2937    0.0000 N   0  0  0  0  0  0  0  0  0
  1  2  2  0  0  0  0
  1  3  2  0  0  0  0
  1  4  1  0  0  0  0
  1 29  1  0  0  0  0
  4  5  1  0  0  0  0
  4  6  1  0  0  0  0
  6  7  1  0  0  0  0
  6 27  1  0  0  0  0
  7  8  1  0  0  0  0
  8  9  2  0  0  0  0
  8 25  1  0  0  0  0
  9 10  1  0  0  0  0
 10 11  1  0  0  0  0
 11 12  1  0  0  0  0
 11 19  1  0  0  0  0
 12 13  1  0  0  0  0
 12 25  1  0  0  0  0
 13 14  1  0  0  0  0
 14 15  1  0  0  0  0
 15 16  1  0  0  0  0
 15 19  1  0  0  0  0
 15 22  1  0  0  0  0
 16 17  1  0  0  0  0
 16 20  1  0  0  0  0
 17 18  1  0  0  0  0
 18 19  1  0  0  0  0
 20 21  1  0  0  0  0
 20 24  1  0  0  0  0
 21 22  1  0  0  0  0
 21 23  1  0  0  0  0
 25 26  1  0  0  0  0
 25 28  1  0  0  0  0
 26 27  1  0  0  0  0
 29 30  4  0  0  0  0
 29 34  4  0  0  0  0
 30 31  4  0  0  0  0
 31 32  4  0  0  0  0
 32 33  4  0  0  0  0
 32 35  1  0  0  0  0
 33 34  4  0  0  0  0
 35 36  3  0  0  0  0
M  END
>  <Name_Molregno>
451250

>  <HISTAMINE H3>
7.72

$$$$
451251
  Marvin  02231216192D 0   1.00000     0.00000     0

 33 37  0  0  1  0  0  0  0  0999 V2000
    4.9819    1.0241    0.0000 O   0  0  0  0  0  0  0  0  0
    5.3042    0.2646    0.0000 C   0  0  0  0  0  0  0  0  0
    4.8076   -0.3942    0.0000 N   0  0  0  0  0  0  0  0  0
    5.1299   -1.1537    0.0000 C   0  0  0  0  0  0  0  0  0
    3.9888   -0.2936    0.0000 C   0  0  0  0  0  0  0  0  0
    3.6665    0.4659    0.0000 C   0  0  0  0  0  0  0  0  0
    2.8477    0.5665    0.0000 C   0  0  0  0  0  0  0  0  0
    2.5254    1.3259    0.0000 C   0  0  0  0  0  0  0  0  0
    1.7066    1.4265    0.0000 C   0  0  0  0  0  0  0  0  0
    1.2100    0.7677    0.0000 C   0  0  0  0  0  0  0  0  0
    1.5323    0.0083    0.0000 C   0  0  0  0  0  0  0  0  0
    1.0357   -0.6506    0.0000 C   0  0  0  0  0  0  0  0  0
    0.2169   -0.5499    0.0000 C   0  0  0  0  0  0  0  0  0
   -0.1054    0.2095    0.0000 C   0  0  0  0  0  0  0  0  0
   -0.8854    0.4782    0.0000 C   0  0  0  0  0  0  0  0  0
   -0.8710    1.3030    0.0000 C   0  0  0  0  0  0  0  0  0
   -0.0820    1.5442    0.0000 C   0  0  0  0  0  0  0  0  0
    0.3912    0.8683    0.0000 C   0  0  0  0  0  0  0  0  0
   -1.3820   -0.1807    0.0000 C   0  0  0  0  0  0  0  0  0
   -0.9089   -0.8565    0.0000 N   0  0  0  0  0  0  0  0  0
   -0.1199   -0.6154    0.0000 C   0  0  0  0  0  0  0  0  0
   -1.1775   -1.6365    0.0000 C   0  0  0  0  0  0  0  0  0
   -2.2069   -0.1662    0.0000 C   0  0  0  0  0  0  0  0  0
    2.3511   -0.0924    0.0000 C   0  0  0  0  0  0  0  0  0
    2.6734   -0.8518    0.0000 C   0  0  0  0  0  0  0  0  0
    3.4922   -0.9524    0.0000 C   0  0  0  0  0  0  0  0  0
    1.8546   -0.7512    0.0000 C   0  0  0  0  0  0  0  0  0
    6.1230    0.1640    0.0000 C   0  0  0  0  0  0  0  0  0
    6.4453   -0.5954    0.0000 N   0  0  0  0  0  0  0  0  0
    6.6196    0.8228    0.0000 C   0  0  0  0  0  0  0  0  0
    7.4384    0.7222    0.0000 C   0  0  0  0  0  0  0  0  0
    7.9350    1.3810    0.0000 C   0  0  0  0  0  0  0  0  0
    6.2973    1.5823    0.0000 C   0  0  0  0  0  0  0  0  0
  1  2  2  0  0  0  0
  2  3  1  0  0  0  0
  2 28  1  0  0  0  0
  3  4  1  0  0  0  0
  3  5  1  0  0  0  0
  5  6  1  0  0  0  0
  5 26  1  0  0  0  0
  6  7  1  0  0  0  0
  7  8  2  0  0  0  0
  7 24  1  0  0  0  0
  8  9  1  0  0  0  0
  9 10  1  0  0  0  0
 10 11  1  0  0  0  0
 10 18  1  0  0  0  0
 11 12  1  0  0  0  0
 11 24  1  0  0  0  0
 12 13  1  0  0  0  0
 13 14  1  0  0  0  0
 14 15  1  0  0  0  0
 14 18  1  0  0  0  0
 14 21  1  0  0  0  0
 15 16  1  0  0  0  0
 15 19  1  0  0  0  0
 16 17  1  0  0  0  0
 17 18  1  0  0  0  0
 19 20  1  0  0  0  0
 19 23  1  0  0  0  0
 20 21  1  0  0  0  0
 20 22  1  0  0  0  0
 24 25  1  0  0  0  0
 24 27  1  0  0  0  0
 25 26  1  0  0  0  0
 28 29  1  0  0  0  0
 28 30  1  0  0  0  0
 30 31  1  0  0  0  0
 30 33  1  0  0  0  0
 31 32  1  0  0  0  0
M  END
>  <Name_Molregno>
451251

>  <HISTAMINE H3>
9.54

$$$$
451262
  Marvin  02231216192D 0   1.00000     0.00000     0

 36 40  0  0  1  0  0  0  0  0999 V2000
    3.9327   -1.3925    0.0000 O   0  0  0  0  0  0  0  0  0
    4.4293   -0.7337    0.0000 C   0  0  0  0  0  0  0  0  0
    4.1070    0.0258    0.0000 N   0  0  0  0  0  0  0  0  0
    4.6035    0.6846    0.0000 C   0  0  0  0  0  0  0  0  0
    3.2881    0.1264    0.0000 C   0  0  0  0  0  0  0  0  0
    2.9659    0.8858    0.0000 C   0  0  0  0  0  0  0  0  0
    2.1470    0.9865    0.0000 C   0  0  0  0  0  0  0  0  0
    1.8247    1.7459    0.0000 C   0  0  0  0  0  0  0  0  0
    1.0059    1.8465    0.0000 C   0  0  0  0  0  0  0  0  0
    0.5093    1.1877    0.0000 C   0  0  0  0  0  0  0  0  0
    0.8316    0.4283    0.0000 C   0  0  0  0  0  0  0  0  0
    0.3351   -0.2306    0.0000 C   0  0  0  0  0  0  0  0  0
   -0.4838   -0.1300    0.0000 C   0  0  0  0  0  0  0  0  0
   -0.8061    0.6295    0.0000 C   0  0  0  0  0  0  0  0  0
   -1.5861    0.8982    0.0000 C   0  0  0  0  0  0  0  0  0
   -1.5716    1.7230    0.0000 C   0  0  0  0  0  0  0  0  0
   -0.7826    1.9642    0.0000 C   0  0  0  0  0  0  0  0  0
   -0.3095    1.2883    0.0000 C   0  0  0  0  0  0  0  0  0
   -2.0827    0.2393    0.0000 C   0  0  0  0  0  0  0  0  0
   -1.6095   -0.4365    0.0000 N   0  0  0  0  0  0  0  0  0
   -0.8205   -0.1954    0.0000 C   0  0  0  0  0  0  0  0  0
   -1.8782   -1.2165    0.0000 C   0  0  0  0  0  0  0  0  0
   -2.9075    0.2538    0.0000 C   0  0  0  0  0  0  0  0  0
    1.6505    0.3276    0.0000 C   0  0  0  0  0  0  0  0  0
    1.9727   -0.4318    0.0000 C   0  0  0  0  0  0  0  0  0
    2.7916   -0.5324    0.0000 C   0  0  0  0  0  0  0  0  0
    1.1539   -0.3312    0.0000 C   0  0  0  0  0  0  0  0  0
    5.2481   -0.8343    0.0000 C   0  0  0  0  0  0  0  0  0
    5.7447   -0.1755    0.0000 N   0  0  0  0  0  0  0  0  0
    6.5635   -0.2761    0.0000 C   0  0  0  0  0  0  0  0  0
    7.0601    0.3828    0.0000 O   0  0  0  0  0  0  0  0  0
    6.8858   -1.0355    0.0000 C   0  0  0  0  0  0  0  0  0
    5.5704   -1.5937    0.0000 C   0  0  0  0  0  0  0  0  0
    6.3892   -1.6943    0.0000 C   0  0  0  0  0  0  0  0  0
    7.1782   -1.4532    0.0000 C   0  0  0  0  0  0  0  0  0
    6.7115   -2.4538    0.0000 C   0  0  0  0  0  0  0  0  0
  1  2  2  0  0  0  0
  2  3  1  0  0  0  0
  2 28  1  0  0  0  0
  3  4  1  0  0  0  0
  3  5  1  0  0  0  0
  5  6  1  0  0  0  0
  5 26  1  0  0  0  0
  6  7  1  0  0  0  0
  7  8  2  0  0  0  0
  7 24  1  0  0  0  0
  8  9  1  0  0  0  0
  9 10  1  0  0  0  0
 10 11  1  0  0  0  0
 10 18  1  0  0  0  0
 11 12  1  0  0  0  0
 11 24  1  0  0  0  0
 12 13  1  0  0  0  0
 13 14  1  0  0  0  0
 14 15  1  0  0  0  0
 14 18  1  0  0  0  0
 14 21  1  0  0  0  0
 15 16  1  0  0  0  0
 15 19  1  0  0  0  0
 16 17  1  0  0  0  0
 17 18  1  0  0  0  0
 19 20  1  0  0  0  0
 19 23  1  0  0  0  0
 20 21  1  0  0  0  0
 20 22  1  0  0  0  0
 24 25  1  0  0  0  0
 24 27  1  0  0  0  0
 25 26  1  0  0  0  0
 28 29  1  0  0  0  0
 28 33  1  0  0  0  0
 29 30  1  0  0  0  0
 30 31  2  0  0  0  0
 30 32  1  0  0  0  0
 33 34  1  0  0  0  0
 34 35  1  0  0  0  0
 34 36  1  0  0  0  0
M  END
>  <Name_Molregno>
451262

>  <HISTAMINE H3>
8.79

$$$$
451263
  Marvin  02231216192D 0   1.00000     0.00000     0

 39 44  0  0  1  0  0  0  0  0999 V2000
    0.0574    0.4538    0.0000 O   0  0  0  0  0  0  0  0  0
    0.3797   -0.3056    0.0000 C   0  0  0  0  0  0  0  0  0
   -0.1169   -0.9645    0.0000 N   0  0  0  0  0  0  0  0  0
    0.2054   -1.7239    0.0000 C   0  0  0  0  0  0  0  0  0
   -0.9357   -0.8638    0.0000 C   0  0  0  0  0  0  0  0  0
   -1.2580   -0.1044    0.0000 C   0  0  0  0  0  0  0  0  0
   -2.0768   -0.0038    0.0000 C   0  0  0  0  0  0  0  0  0
   -2.3991    0.7557    0.0000 C   0  0  0  0  0  0  0  0  0
   -3.2180    0.8563    0.0000 C   0  0  0  0  0  0  0  0  0
   -3.7145    0.1975    0.0000 C   0  0  0  0  0  0  0  0  0
   -3.3922   -0.5620    0.0000 C   0  0  0  0  0  0  0  0  0
   -3.8888   -1.2208    0.0000 C   0  0  0  0  0  0  0  0  0
   -4.7076   -1.1202    0.0000 C   0  0  0  0  0  0  0  0  0
   -5.0299   -0.3607    0.0000 C   0  0  0  0  0  0  0  0  0
   -5.8100   -0.0921    0.0000 C   0  0  0  0  0  0  0  0  0
   -5.7955    0.7328    0.0000 C   0  0  0  0  0  0  0  0  0
   -5.0065    0.9739    0.0000 C   0  0  0  0  0  0  0  0  0
   -4.5334    0.2981    0.0000 C   0  0  0  0  0  0  0  0  0
   -6.3065   -0.7509    0.0000 C   0  0  0  0  0  0  0  0  0
   -5.8334   -1.4267    0.0000 N   0  0  0  0  0  0  0  0  0
   -5.0444   -1.1856    0.0000 C   0  0  0  0  0  0  0  0  0
   -6.1020   -2.2068    0.0000 C   0  0  0  0  0  0  0  0  0
   -7.1314   -0.7364    0.0000 C   0  0  0  0  0  0  0  0  0
   -2.5734   -0.6626    0.0000 C   0  0  0  0  0  0  0  0  0
   -2.2511   -1.4220    0.0000 C   0  0  0  0  0  0  0  0  0
   -1.4323   -1.5227    0.0000 C   0  0  0  0  0  0  0  0  0
   -3.0700   -1.3214    0.0000 C   0  0  0  0  0  0  0  0  0
    1.1985   -0.4062    0.0000 C   0  0  0  0  0  0  0  0  0
    1.5208   -1.1657    0.0000 N   0  0  0  0  0  0  0  0  0
    2.3396   -1.2663    0.0000 C   0  0  0  0  0  0  0  0  0
    2.8362   -0.6075    0.0000 O   0  0  0  0  0  0  0  0  0
    2.6619   -2.0258    0.0000 C   0  0  0  0  0  0  0  0  0
    1.6951    0.2526    0.0000 C   0  0  0  0  0  0  0  0  0
    1.3728    1.0120    0.0000 C   0  0  0  0  0  0  0  0  0
    0.5540    1.1126    0.0000 C   0  0  0  0  0  0  0  0  0
    0.2317    1.8721    0.0000 C   0  0  0  0  0  0  0  0  0
    0.7282    2.5309    0.0000 C   0  0  0  0  0  0  0  0  0
    1.5471    2.4303    0.0000 C   0  0  0  0  0  0  0  0  0
    1.8694    1.6709    0.0000 C   0  0  0  0  0  0  0  0  0
  1  2  2  0  0  0  0
  2  3  1  0  0  0  0
  2 28  1  0  0  0  0
  3  4  1  0  0  0  0
  3  5  1  0  0  0  0
  5  6  1  0  0  0  0
  5 26  1  0  0  0  0
  6  7  1  0  0  0  0
  7  8  2  0  0  0  0
  7 24  1  0  0  0  0
  8  9  1  0  0  0  0
  9 10  1  0  0  0  0
 10 11  1  0  0  0  0
 10 18  1  0  0  0  0
 11 12  1  0  0  0  0
 11 24  1  0  0  0  0
 12 13  1  0  0  0  0
 13 14  1  0  0  0  0
 14 15  1  0  0  0  0
 14 18  1  0  0  0  0
 14 21  1  0  0  0  0
 15 16  1  0  0  0  0
 15 19  1  0  0  0  0
 16 17  1  0  0  0  0
 17 18  1  0  0  0  0
 19 20  1  0  0  0  0
 19 23  1  0  0  0  0
 20 21  1  0  0  0  0
 20 22  1  0  0  0  0
 24 25  1  0  0  0  0
 24 27  1  0  0  0  0
 25 26  1  0  0  0  0
 28 29  1  0  0  0  0
 28 33  1  0  0  0  0
 29 30  1  0  0  0  0
 30 31  2  0  0  0  0
 30 32  1  0  0  0  0
 33 34  1  0  0  0  0
 34 35  4  0  0  0  0
 34 39  4  0  0  0  0
 35 36  4  0  0  0  0
 36 37  4  0  0  0  0
 37 38  4  0  0  0  0
 38 39  4  0  0  0  0
M  END
>  <Name_Molregno>
451263

>  <HISTAMINE H3>
8.94

$$$$
451337
  Marvin  02231216192D 0   1.00000     0.00000     0

 33 37  0  0  1  0  0  0  0  0999 V2000
    4.7376   -1.4397    0.0000 O   0  0  0  0  0  0  0  0  0
    5.2341   -0.7809    0.0000 C   0  0  0  0  0  0  0  0  0
    4.9119   -0.0215    0.0000 N   0  0  0  0  0  0  0  0  0
    5.4084    0.6374    0.0000 C   0  0  0  0  0  0  0  0  0
    4.0930    0.0792    0.0000 C   0  0  0  0  0  0  0  0  0
    3.7707    0.8386    0.0000 C   0  0  0  0  0  0  0  0  0
    2.9519    0.9392    0.0000 C   0  0  0  0  0  0  0  0  0
    2.6296    1.6987    0.0000 C   0  0  0  0  0  0  0  0  0
    1.8108    1.7993    0.0000 C   0  0  0  0  0  0  0  0  0
    1.3142    1.1405    0.0000 C   0  0  0  0  0  0  0  0  0
    1.6365    0.3810    0.0000 C   0  0  0  0  0  0  0  0  0
    1.1399   -0.2778    0.0000 C   0  0  0  0  0  0  0  0  0
    0.3211   -0.1772    0.0000 C   0  0  0  0  0  0  0  0  0
   -0.0012    0.5823    0.0000 C   0  0  0  0  0  0  0  0  0
   -0.7812    0.8509    0.0000 C   0  0  0  0  0  0  0  0  0
   -0.7667    1.6758    0.0000 C   0  0  0  0  0  0  0  0  0
    0.0222    1.9169    0.0000 C   0  0  0  0  0  0  0  0  0
    0.4954    1.2411    0.0000 C   0  0  0  0  0  0  0  0  0
   -1.2778    0.1921    0.0000 C   0  0  0  0  0  0  0  0  0
   -0.8046   -0.4837    0.0000 N   0  0  0  0  0  0  0  0  0
   -0.0157   -0.2426    0.0000 C   0  0  0  0  0  0  0  0  0
   -1.0733   -1.2638    0.0000 C   0  0  0  0  0  0  0  0  0
   -2.1026    0.2066    0.0000 C   0  0  0  0  0  0  0  0  0
    2.4553    0.2804    0.0000 C   0  0  0  0  0  0  0  0  0
    2.7776   -0.4790    0.0000 C   0  0  0  0  0  0  0  0  0
    3.5965   -0.5797    0.0000 C   0  0  0  0  0  0  0  0  0
    1.9588   -0.3784    0.0000 C   0  0  0  0  0  0  0  0  0
    6.0530   -0.8815    0.0000 C   0  0  0  0  0  0  0  0  0
    6.3753   -1.6410    0.0000 N   0  0  0  0  0  0  0  0  0
    7.1941   -1.7416    0.0000 C   0  0  0  0  0  0  0  0  0
    6.5495   -0.2227    0.0000 C   0  0  0  0  0  0  0  0  0
    6.2273    0.5368    0.0000 C   0  0  0  0  0  0  0  0  0
    7.3684   -0.3233    0.0000 C   0  0  0  0  0  0  0  0  0
  1  2  2  0  0  0  0
  2  3  1  0  0  0  0
  2 28  1  0  0  0  0
  3  4  1  0  0  0  0
  3  5  1  0  0  0  0
  5  6  1  0  0  0  0
  5 26  1  0  0  0  0
  6  7  1  0  0  0  0
  7  8  2  0  0  0  0
  7 24  1  0  0  0  0
  8  9  1  0  0  0  0
  9 10  1  0  0  0  0
 10 11  1  0  0  0  0
 10 18  1  0  0  0  0
 11 12  1  0  0  0  0
 11 24  1  0  0  0  0
 12 13  1  0  0  0  0
 13 14  1  0  0  0  0
 14 15  1  0  0  0  0
 14 18  1  0  0  0  0
 14 21  1  0  0  0  0
 15 16  1  0  0  0  0
 15 19  1  0  0  0  0
 16 17  1  0  0  0  0
 17 18  1  0  0  0  0
 19 20  1  0  0  0  0
 19 23  1  0  0  0  0
 20 21  1  0  0  0  0
 20 22  1  0  0  0  0
 24 25  1  0  0  0  0
 24 27  1  0  0  0  0
 25 26  1  0  0  0  0
 28 29  1  0  0  0  0
 28 31  1  0  0  0  0
 29 30  1  0  0  0  0
 31 32  1  0  0  0  0
 31 33  1  0  0  0  0
M  END
>  <Name_Molregno>
451337

>  <Alpha-2C>
7.11

>  <HISTAMINE H1>
5

>  <HISTAMINE H2>
5

>  <HISTAMINE H3>
9.68

>  <HISTAMINE H4>
5

$$$$
452023
  Marvin  02231216192D 0   1.00000     0.00000     0

 33 37  0  0  1  0  0  0  0  0999 V2000
    9.9740   -1.4014    0.0000 Cl  0  0  0  0  0  0  0  0  0
    9.1551   -1.3007    0.0000 C   0  0  0  0  0  0  0  0  0
    9.2557   -0.4819    0.0000 Cl  0  0  0  0  0  0  0  0  0
    9.0545   -2.1196    0.0000 Cl  0  0  0  0  0  0  0  0  0
    8.3363   -1.2001    0.0000 C   0  0  0  0  0  0  0  0  0
    8.0140   -0.4407    0.0000 O   0  0  0  0  0  0  0  0  0
    7.1952   -0.3401    0.0000 C   0  0  0  0  0  0  0  0  0
    6.6986   -0.9989    0.0000 O   0  0  0  0  0  0  0  0  0
    6.8729    0.4194    0.0000 N   0  0  0  0  0  0  0  0  0
    7.3694    1.0782    0.0000 C   0  0  0  0  0  0  0  0  0
    6.0540    0.5200    0.0000 C   0  0  0  0  0  0  0  0  0
    5.7318    1.2794    0.0000 C   0  0  0  0  0  0  0  0  0
    4.9129    1.3801    0.0000 C   0  0  0  0  0  0  0  0  0
    4.5906    2.1395    0.0000 C   0  0  0  0  0  0  0  0  0
    3.7718    2.2401    0.0000 C   0  0  0  0  0  0  0  0  0
    3.2752    1.5813    0.0000 C   0  0  0  0  0  0  0  0  0
    3.5975    0.8219    0.0000 C   0  0  0  0  0  0  0  0  0
    3.1010    0.1630    0.0000 C   0  0  0  0  0  0  0  0  0
    2.2821    0.2636    0.0000 C   0  0  0  0  0  0  0  0  0
    1.9598    1.0231    0.0000 C   0  0  0  0  0  0  0  0  0
    1.1798    1.2918    0.0000 C   0  0  0  0  0  0  0  0  0
    1.1943    2.1166    0.0000 C   0  0  0  0  0  0  0  0  0
    1.9833    2.3578    0.0000 C   0  0  0  0  0  0  0  0  0
    2.4564    1.6819    0.0000 C   0  0  0  0  0  0  0  0  0
    0.6832    0.6329    0.0000 C   0  0  0  0  0  0  0  0  0
    1.1564   -0.0429    0.0000 N   0  0  0  0  0  0  0  0  0
    1.9454    0.1982    0.0000 C   0  0  0  0  0  0  0  0  0
    0.8877   -0.8229    0.0000 C   0  0  0  0  0  0  0  0  0
   -0.1416    0.6474    0.0000 C   0  0  0  0  0  0  0  0  0
    4.4164    0.7212    0.0000 C   0  0  0  0  0  0  0  0  0
    4.7386   -0.0382    0.0000 C   0  0  0  0  0  0  0  0  0
    5.5575   -0.1388    0.0000 C   0  0  0  0  0  0  0  0  0
    3.9198    0.0624    0.0000 C   0  0  0  0  0  0  0  0  0
  1  2  1  0  0  0  0
  2  3  1  0  0  0  0
  2  4  1  0  0  0  0
  2  5  1  0  0  0  0
  5  6  1  0  0  0  0
  6  7  1  0  0  0  0
  7  8  2  0  0  0  0
  7  9  1  0  0  0  0
  9 10  1  0  0  0  0
  9 11  1  0  0  0  0
 11 12  1  0  0  0  0
 11 32  1  0  0  0  0
 12 13  1  0  0  0  0
 13 14  2  0  0  0  0
 13 30  1  0  0  0  0
 14 15  1  0  0  0  0
 15 16  1  0  0  0  0
 16 17  1  0  0  0  0
 16 24  1  0  0  0  0
 17 18  1  0  0  0  0
 17 30  1  0  0  0  0
 18 19  1  0  0  0  0
 19 20  1  0  0  0  0
 20 21  1  0  0  0  0
 20 24  1  0  0  0  0
 20 27  1  0  0  0  0
 21 22  1  0  0  0  0
 21 25  1  0  0  0  0
 22 23  1  0  0  0  0
 23 24  1  0  0  0  0
 25 26  1  0  0  0  0
 25 29  1  0  0  0  0
 26 27  1  0  0  0  0
 26 28  1  0  0  0  0
 30 31  1  0  0  0  0
 30 33  1  0  0  0  0
 31 32  1  0  0  0  0
M  END
>  <Name_Molregno>
452023

>  <HISTAMINE H3>
7.71

$$$$
452024
  Marvin  02231216192D 0   1.00000     0.00000     0

 26 30  0  0  1  0  0  0  0  0999 V2000
   -0.1072   -0.8587    0.0000 O   0  0  0  0  0  0  0  0  0
    0.7176   -0.8732    0.0000 C   0  0  0  0  0  0  0  0  0
    1.1908   -1.5490    0.0000 N   0  0  0  0  0  0  0  0  0
    1.9798   -1.3079    0.0000 C   0  0  0  0  0  0  0  0  0
    1.9942   -0.4830    0.0000 C   0  0  0  0  0  0  0  0  0
    1.2142   -0.2143    0.0000 C   0  0  0  0  0  0  0  0  0
    1.2287    0.6105    0.0000 C   0  0  0  0  0  0  0  0  0
    2.0177    0.8517    0.0000 C   0  0  0  0  0  0  0  0  0
    2.4908    0.1758    0.0000 C   0  0  0  0  0  0  0  0  0
    3.3096    0.0752    0.0000 C   0  0  0  0  0  0  0  0  0
    3.6319   -0.6842    0.0000 C   0  0  0  0  0  0  0  0  0
    3.1354   -1.3431    0.0000 C   0  0  0  0  0  0  0  0  0
    2.3165   -1.2424    0.0000 C   0  0  0  0  0  0  0  0  0
    4.4508   -0.7848    0.0000 C   0  0  0  0  0  0  0  0  0
    4.9473   -0.1260    0.0000 C   0  0  0  0  0  0  0  0  0
    5.7662   -0.2266    0.0000 C   0  0  0  0  0  0  0  0  0
    6.0884   -0.9861    0.0000 C   0  0  0  0  0  0  0  0  0
    6.9073   -1.0867    0.0000 N   0  0  0  0  0  0  0  0  0
    7.4038   -0.4279    0.0000 C   0  0  0  0  0  0  0  0  0
    7.2296   -1.8462    0.0000 C   0  0  0  0  0  0  0  0  0
    5.5919   -1.6449    0.0000 C   0  0  0  0  0  0  0  0  0
    4.7730   -1.5443    0.0000 C   0  0  0  0  0  0  0  0  0
    4.6250    0.6334    0.0000 C   0  0  0  0  0  0  0  0  0
    3.8062    0.7340    0.0000 C   0  0  0  0  0  0  0  0  0
    3.9542   -1.4437    0.0000 C   0  0  0  0  0  0  0  0  0
    0.9221   -2.3290    0.0000 C   0  0  0  0  0  0  0  0  0
  1  2  2  0  0  0  0
  2  3  1  0  0  0  0
  2  6  1  0  0  0  0
  3  4  1  0  0  0  0
  3 26  1  0  0  0  0
  4  5  1  0  0  0  0
  5  6  1  0  0  0  0
  5  9  1  0  0  0  0
  5 13  1  0  0  0  0
  6  7  1  0  0  0  0
  7  8  1  0  0  0  0
  8  9  1  0  0  0  0
  9 10  1  0  0  0  0
 10 11  1  0  0  0  0
 10 24  1  0  0  0  0
 11 12  1  0  0  0  0
 11 14  1  0  0  0  0
 12 13  1  0  0  0  0
 14 15  1  0  0  0  0
 14 22  1  0  0  0  0
 14 25  1  0  0  0  0
 15 16  1  0  0  0  0
 15 23  2  0  0  0  0
 16 17  1  0  0  0  0
 17 18  1  0  0  0  0
 17 21  1  0  0  0  0
 18 19  1  0  0  0  0
 18 20  1  0  0  0  0
 21 22  1  0  0  0  0
 23 24  1  0  0  0  0
M  END
>  <Name_Molregno>
452024

>  <HISTAMINE H3>
6.27

$$$$
452025
  Marvin  02231216192D 0   1.00000     0.00000     0

 25 29  0  0  1  0  0  0  0  0999 V2000
   -0.1055   -0.8755    0.0000 O   0  0  0  0  0  0  0  0  0
    0.7194   -0.8899    0.0000 C   0  0  0  0  0  0  0  0  0
    1.1925   -1.5658    0.0000 N   0  0  0  0  0  0  0  0  0
    1.9815   -1.3246    0.0000 C   0  0  0  0  0  0  0  0  0
    1.9959   -0.4998    0.0000 C   0  0  0  0  0  0  0  0  0
    1.2159   -0.2311    0.0000 C   0  0  0  0  0  0  0  0  0
    1.2304    0.5938    0.0000 C   0  0  0  0  0  0  0  0  0
    2.0194    0.8349    0.0000 C   0  0  0  0  0  0  0  0  0
    2.4925    0.1591    0.0000 C   0  0  0  0  0  0  0  0  0
    3.3113    0.0584    0.0000 C   0  0  0  0  0  0  0  0  0
    3.6336   -0.7010    0.0000 C   0  0  0  0  0  0  0  0  0
    3.1371   -1.3598    0.0000 C   0  0  0  0  0  0  0  0  0
    2.3182   -1.2592    0.0000 C   0  0  0  0  0  0  0  0  0
    4.4525   -0.8016    0.0000 C   0  0  0  0  0  0  0  0  0
    4.9490   -0.1428    0.0000 C   0  0  0  0  0  0  0  0  0
    5.7679   -0.2434    0.0000 C   0  0  0  0  0  0  0  0  0
    6.0902   -1.0029    0.0000 C   0  0  0  0  0  0  0  0  0
    6.9090   -1.1035    0.0000 N   0  0  0  0  0  0  0  0  0
    7.4056   -0.4447    0.0000 C   0  0  0  0  0  0  0  0  0
    5.5936   -1.6617    0.0000 C   0  0  0  0  0  0  0  0  0
    4.7748   -1.5611    0.0000 C   0  0  0  0  0  0  0  0  0
    4.6267    0.6166    0.0000 C   0  0  0  0  0  0  0  0  0
    3.8079    0.7173    0.0000 C   0  0  0  0  0  0  0  0  0
    3.9559   -1.4605    0.0000 C   0  0  0  0  0  0  0  0  0
    0.9238   -2.3458    0.0000 C   0  0  0  0  0  0  0  0  0
  1  2  2  0  0  0  0
  2  3  1  0  0  0  0
  2  6  1  0  0  0  0
  3  4  1  0  0  0  0
  3 25  1  0  0  0  0
  4  5  1  0  0  0  0
  5  6  1  0  0  0  0
  5  9  1  0  0  0  0
  5 13  1  0  0  0  0
  6  7  1  0  0  0  0
  7  8  1  0  0  0  0
  8  9  1  0  0  0  0
  9 10  1  0  0  0  0
 10 11  1  0  0  0  0
 10 23  1  0  0  0  0
 11 12  1  0  0  0  0
 11 14  1  0  0  0  0
 12 13  1  0  0  0  0
 14 15  1  0  0  0  0
 14 21  1  0  0  0  0
 14 24  1  0  0  0  0
 15 16  1  0  0  0  0
 15 22  2  0  0  0  0
 16 17  1  0  0  0  0
 17 18  1  0  0  0  0
 17 20  1  0  0  0  0
 18 19  1  0  0  0  0
 20 21  1  0  0  0  0
 22 23  1  0  0  0  0
M  END
>  <Name_Molregno>
452025

>  <HISTAMINE H3>
7.42

$$$$
452026
  Marvin  02231216192D 0   1.00000     0.00000     0

 28 32  0  0  1  0  0  0  0  0999 V2000
    7.2352   -2.4962    0.0000 O   0  0  0  0  0  0  0  0  0
    6.4163   -2.3955    0.0000 C   0  0  0  0  0  0  0  0  0
    6.0940   -1.6361    0.0000 N   0  0  0  0  0  0  0  0  0
    6.5906   -0.9773    0.0000 C   0  0  0  0  0  0  0  0  0
    5.2752   -1.5355    0.0000 C   0  0  0  0  0  0  0  0  0
    4.9529   -0.7760    0.0000 C   0  0  0  0  0  0  0  0  0
    4.1341   -0.6754    0.0000 C   0  0  0  0  0  0  0  0  0
    3.8118    0.0840    0.0000 C   0  0  0  0  0  0  0  0  0
    2.9930    0.1846    0.0000 C   0  0  0  0  0  0  0  0  0
    2.4964   -0.4742    0.0000 C   0  0  0  0  0  0  0  0  0
    2.8187   -1.2336    0.0000 C   0  0  0  0  0  0  0  0  0
    2.3221   -1.8925    0.0000 C   0  0  0  0  0  0  0  0  0
    1.5033   -1.7918    0.0000 C   0  0  0  0  0  0  0  0  0
    1.1810   -1.0324    0.0000 C   0  0  0  0  0  0  0  0  0
    0.4010   -0.7637    0.0000 C   0  0  0  0  0  0  0  0  0
    0.4154    0.0612    0.0000 C   0  0  0  0  0  0  0  0  0
    1.2044    0.3023    0.0000 C   0  0  0  0  0  0  0  0  0
    1.6776   -0.3736    0.0000 C   0  0  0  0  0  0  0  0  0
   -0.0956   -1.4225    0.0000 C   0  0  0  0  0  0  0  0  0
    0.3775   -2.0984    0.0000 N   0  0  0  0  0  0  0  0  0
    1.1665   -1.8573    0.0000 C   0  0  0  0  0  0  0  0  0
    0.1089   -2.8784    0.0000 C   0  0  0  0  0  0  0  0  0
   -0.9205   -1.4081    0.0000 C   0  0  0  0  0  0  0  0  0
    3.6375   -1.3342    0.0000 C   0  0  0  0  0  0  0  0  0
    3.9598   -2.0937    0.0000 C   0  0  0  0  0  0  0  0  0
    4.7786   -2.1943    0.0000 C   0  0  0  0  0  0  0  0  0
    3.1410   -1.9931    0.0000 C   0  0  0  0  0  0  0  0  0
    5.9198   -3.0544    0.0000 C   0  0  0  0  0  0  0  0  0
  1  2  2  0  0  0  0
  2  3  1  0  0  0  0
  2 28  1  0  0  0  0
  3  4  1  0  0  0  0
  3  5  1  0  0  0  0
  5  6  1  0  0  0  0
  5 26  1  0  0  0  0
  6  7  1  0  0  0  0
  7  8  2  0  0  0  0
  7 24  1  0  0  0  0
  8  9  1  0  0  0  0
  9 10  1  0  0  0  0
 10 11  1  0  0  0  0
 10 18  1  0  0  0  0
 11 12  1  0  0  0  0
 11 24  1  0  0  0  0
 12 13  1  0  0  0  0
 13 14  1  0  0  0  0
 14 15  1  0  0  0  0
 14 18  1  0  0  0  0
 14 21  1  0  0  0  0
 15 16  1  0  0  0  0
 15 19  1  0  0  0  0
 16 17  1  0  0  0  0
 17 18  1  0  0  0  0
 19 20  1  0  0  0  0
 19 23  1  0  0  0  0
 20 21  1  0  0  0  0
 20 22  1  0  0  0  0
 24 25  1  0  0  0  0
 24 27  1  0  0  0  0
 25 26  1  0  0  0  0
M  END
>  <Name_Molregno>
452026

>  <HISTAMINE H3>
6.96

$$$$
452099
  Marvin  02231216192D 0   1.00000     0.00000     0

 30 35  0  0  1  0  0  0  0  0999 V2000
    5.8777    1.1835    0.0000 O   0  0  0  0  0  0  0  0  0
    6.2000    0.4240    0.0000 C   0  0  0  0  0  0  0  0  0
    5.7034   -0.2348    0.0000 N   0  0  0  0  0  0  0  0  0
    6.0257   -0.9943    0.0000 C   0  0  0  0  0  0  0  0  0
    4.8846   -0.1342    0.0000 C   0  0  0  0  0  0  0  0  0
    4.5623    0.6253    0.0000 C   0  0  0  0  0  0  0  0  0
    3.7434    0.7259    0.0000 C   0  0  0  0  0  0  0  0  0
    3.4212    1.4853    0.0000 C   0  0  0  0  0  0  0  0  0
    2.6023    1.5859    0.0000 C   0  0  0  0  0  0  0  0  0
    2.1058    0.9271    0.0000 C   0  0  0  0  0  0  0  0  0
    2.4280    0.1677    0.0000 C   0  0  0  0  0  0  0  0  0
    1.9315   -0.4912    0.0000 C   0  0  0  0  0  0  0  0  0
    1.1126   -0.3905    0.0000 C   0  0  0  0  0  0  0  0  0
    0.7904    0.3689    0.0000 C   0  0  0  0  0  0  0  0  0
    0.0103    0.6376    0.0000 C   0  0  0  0  0  0  0  0  0
    0.0248    1.4624    0.0000 C   0  0  0  0  0  0  0  0  0
    0.8138    1.7036    0.0000 C   0  0  0  0  0  0  0  0  0
    1.2869    1.0277    0.0000 C   0  0  0  0  0  0  0  0  0
   -0.4862   -0.0213    0.0000 C   0  0  0  0  0  0  0  0  0
   -0.0131   -0.6971    0.0000 N   0  0  0  0  0  0  0  0  0
    0.7759   -0.4560    0.0000 C   0  0  0  0  0  0  0  0  0
   -0.2818   -1.4771    0.0000 C   0  0  0  0  0  0  0  0  0
   -1.3111   -0.0068    0.0000 C   0  0  0  0  0  0  0  0  0
    3.2469    0.0670    0.0000 C   0  0  0  0  0  0  0  0  0
    3.5692   -0.6924    0.0000 C   0  0  0  0  0  0  0  0  0
    4.3880   -0.7930    0.0000 C   0  0  0  0  0  0  0  0  0
    2.7503   -0.5918    0.0000 C   0  0  0  0  0  0  0  0  0
    7.0188    0.3234    0.0000 C   0  0  0  0  0  0  0  0  0
    7.7782    0.6457    0.0000 C   0  0  0  0  0  0  0  0  0
    7.6776   -0.1732    0.0000 C   0  0  0  0  0  0  0  0  0
  1  2  2  0  0  0  0
  2  3  1  0  0  0  0
  2 28  1  0  0  0  0
  3  4  1  0  0  0  0
  3  5  1  0  0  0  0
  5  6  1  0  0  0  0
  5 26  1  0  0  0  0
  6  7  1  0  0  0  0
  7  8  2  0  0  0  0
  7 24  1  0  0  0  0
  8  9  1  0  0  0  0
  9 10  1  0  0  0  0
 10 11  1  0  0  0  0
 10 18  1  0  0  0  0
 11 12  1  0  0  0  0
 11 24  1  0  0  0  0
 12 13  1  0  0  0  0
 13 14  1  0  0  0  0
 14 15  1  0  0  0  0
 14 18  1  0  0  0  0
 14 21  1  0  0  0  0
 15 16  1  0  0  0  0
 15 19  1  0  0  0  0
 16 17  1  0  0  0  0
 17 18  1  0  0  0  0
 19 20  1  0  0  0  0
 19 23  1  0  0  0  0
 20 21  1  0  0  0  0
 20 22  1  0  0  0  0
 24 25  1  0  0  0  0
 24 27  1  0  0  0  0
 25 26  1  0  0  0  0
 28 29  1  0  0  0  0
 28 30  1  0  0  0  0
 29 30  1  0  0  0  0
M  END
>  <Name_Molregno>
452099

>  <HISTAMINE H3>
7.22

$$$$
452100
  Marvin  02231216192D 0   1.00000     0.00000     0

 33 38  0  0  1  0  0  0  0  0999 V2000
    4.9792    1.0283    0.0000 O   0  0  0  0  0  0  0  0  0
    5.3015    0.2689    0.0000 C   0  0  0  0  0  0  0  0  0
    4.8049   -0.3900    0.0000 N   0  0  0  0  0  0  0  0  0
    5.1272   -1.1494    0.0000 C   0  0  0  0  0  0  0  0  0
    3.9861   -0.2893    0.0000 C   0  0  0  0  0  0  0  0  0
    3.6638    0.4701    0.0000 C   0  0  0  0  0  0  0  0  0
    2.8449    0.5707    0.0000 C   0  0  0  0  0  0  0  0  0
    2.5227    1.3302    0.0000 C   0  0  0  0  0  0  0  0  0
    1.7038    1.4308    0.0000 C   0  0  0  0  0  0  0  0  0
    1.2073    0.7720    0.0000 C   0  0  0  0  0  0  0  0  0
    1.5295    0.0125    0.0000 C   0  0  0  0  0  0  0  0  0
    1.0330   -0.6463    0.0000 C   0  0  0  0  0  0  0  0  0
    0.2141   -0.5457    0.0000 C   0  0  0  0  0  0  0  0  0
   -0.1081    0.2137    0.0000 C   0  0  0  0  0  0  0  0  0
   -0.8882    0.4824    0.0000 C   0  0  0  0  0  0  0  0  0
   -0.8737    1.3073    0.0000 C   0  0  0  0  0  0  0  0  0
   -0.0847    1.5484    0.0000 C   0  0  0  0  0  0  0  0  0
    0.3884    0.8726    0.0000 C   0  0  0  0  0  0  0  0  0
   -1.3847   -0.1764    0.0000 C   0  0  0  0  0  0  0  0  0
   -0.9116   -0.8523    0.0000 N   0  0  0  0  0  0  0  0  0
   -0.1226   -0.6111    0.0000 C   0  0  0  0  0  0  0  0  0
   -1.1803   -1.6323    0.0000 C   0  0  0  0  0  0  0  0  0
   -2.2096   -0.1619    0.0000 C   0  0  0  0  0  0  0  0  0
    2.3484   -0.0881    0.0000 C   0  0  0  0  0  0  0  0  0
    2.6707   -0.8476    0.0000 C   0  0  0  0  0  0  0  0  0
    3.4895   -0.9482    0.0000 C   0  0  0  0  0  0  0  0  0
    1.8518   -0.7469    0.0000 C   0  0  0  0  0  0  0  0  0
    6.1203    0.1682    0.0000 C   0  0  0  0  0  0  0  0  0
    6.6169    0.8271    0.0000 C   0  0  0  0  0  0  0  0  0
    7.4357    0.7265    0.0000 C   0  0  0  0  0  0  0  0  0
    7.7580   -0.0330    0.0000 C   0  0  0  0  0  0  0  0  0
    7.2614   -0.6918    0.0000 C   0  0  0  0  0  0  0  0  0
    6.4426   -0.5912    0.0000 C   0  0  0  0  0  0  0  0  0
  1  2  2  0  0  0  0
  2  3  1  0  0  0  0
  2 28  1  0  0  0  0
  3  4  1  0  0  0  0
  3  5  1  0  0  0  0
  5  6  1  0  0  0  0
  5 26  1  0  0  0  0
  6  7  1  0  0  0  0
  7  8  2  0  0  0  0
  7 24  1  0  0  0  0
  8  9  1  0  0  0  0
  9 10  1  0  0  0  0
 10 11  1  0  0  0  0
 10 18  1  0  0  0  0
 11 12  1  0  0  0  0
 11 24  1  0  0  0  0
 12 13  1  0  0  0  0
 13 14  1  0  0  0  0
 14 15  1  0  0  0  0
 14 18  1  0  0  0  0
 14 21  1  0  0  0  0
 15 16  1  0  0  0  0
 15 19  1  0  0  0  0
 16 17  1  0  0  0  0
 17 18  1  0  0  0  0
 19 20  1  0  0  0  0
 19 23  1  0  0  0  0
 20 21  1  0  0  0  0
 20 22  1  0  0  0  0
 24 25  1  0  0  0  0
 24 27  1  0  0  0  0
 25 26  1  0  0  0  0
 28 29  4  0  0  0  0
 28 33  4  0  0  0  0
 29 30  4  0  0  0  0
 30 31  4  0  0  0  0
 31 32  4  0  0  0  0
 32 33  4  0  0  0  0
M  END
>  <Name_Molregno>
452100

>  <HISTAMINE H3>
7.91

$$$$
452101
  Marvin  02231216192D 0   1.00000     0.00000     0

 35 40  0  0  1  0  0  0  0  0999 V2000
    4.2860    0.8664    0.0000 O   0  0  0  0  0  0  0  0  0
    4.6083    0.1069    0.0000 C   0  0  0  0  0  0  0  0  0
    4.1118   -0.5519    0.0000 N   0  0  0  0  0  0  0  0  0
    4.4340   -1.3113    0.0000 C   0  0  0  0  0  0  0  0  0
    3.2929   -0.4513    0.0000 C   0  0  0  0  0  0  0  0  0
    2.9706    0.3082    0.0000 C   0  0  0  0  0  0  0  0  0
    2.1518    0.4088    0.0000 C   0  0  0  0  0  0  0  0  0
    1.8295    1.1682    0.0000 C   0  0  0  0  0  0  0  0  0
    1.0107    1.2689    0.0000 C   0  0  0  0  0  0  0  0  0
    0.5141    0.6100    0.0000 C   0  0  0  0  0  0  0  0  0
    0.8364   -0.1494    0.0000 C   0  0  0  0  0  0  0  0  0
    0.3398   -0.8082    0.0000 C   0  0  0  0  0  0  0  0  0
   -0.4790   -0.7076    0.0000 C   0  0  0  0  0  0  0  0  0
   -0.8013    0.0518    0.0000 C   0  0  0  0  0  0  0  0  0
   -1.5813    0.3205    0.0000 C   0  0  0  0  0  0  0  0  0
   -1.5668    1.1454    0.0000 C   0  0  0  0  0  0  0  0  0
   -0.7779    1.3865    0.0000 C   0  0  0  0  0  0  0  0  0
   -0.3047    0.7106    0.0000 C   0  0  0  0  0  0  0  0  0
   -2.0779   -0.3383    0.0000 C   0  0  0  0  0  0  0  0  0
   -1.6047   -1.0142    0.0000 N   0  0  0  0  0  0  0  0  0
   -0.8158   -0.7731    0.0000 C   0  0  0  0  0  0  0  0  0
   -1.8734   -1.7942    0.0000 C   0  0  0  0  0  0  0  0  0
   -2.9027   -0.3239    0.0000 C   0  0  0  0  0  0  0  0  0
    1.6552   -0.2500    0.0000 C   0  0  0  0  0  0  0  0  0
    1.9775   -1.0095    0.0000 C   0  0  0  0  0  0  0  0  0
    2.7964   -1.1101    0.0000 C   0  0  0  0  0  0  0  0  0
    1.1587   -0.9089    0.0000 C   0  0  0  0  0  0  0  0  0
    5.4272    0.0063    0.0000 C   0  0  0  0  0  0  0  0  0
    5.9237    0.6651    0.0000 C   0  0  0  0  0  0  0  0  0
    6.7426    0.5645    0.0000 C   0  0  0  0  0  0  0  0  0
    7.0648   -0.1949    0.0000 C   0  0  0  0  0  0  0  0  0
    6.5683   -0.8538    0.0000 C   0  0  0  0  0  0  0  0  0
    5.7494   -0.7531    0.0000 C   0  0  0  0  0  0  0  0  0
    7.8837   -0.2955    0.0000 C   0  0  0  0  0  0  0  0  0
    8.7025   -0.3962    0.0000 N   0  0  0  0  0  0  0  0  0
  1  2  2  0  0  0  0
  2  3  1  0  0  0  0
  2 28  1  0  0  0  0
  3  4  1  0  0  0  0
  3  5  1  0  0  0  0
  5  6  1  0  0  0  0
  5 26  1  0  0  0  0
  6  7  1  0  0  0  0
  7  8  2  0  0  0  0
  7 24  1  0  0  0  0
  8  9  1  0  0  0  0
  9 10  1  0  0  0  0
 10 11  1  0  0  0  0
 10 18  1  0  0  0  0
 11 12  1  0  0  0  0
 11 24  1  0  0  0  0
 12 13  1  0  0  0  0
 13 14  1  0  0  0  0
 14 15  1  0  0  0  0
 14 18  1  0  0  0  0
 14 21  1  0  0  0  0
 15 16  1  0  0  0  0
 15 19  1  0  0  0  0
 16 17  1  0  0  0  0
 17 18  1  0  0  0  0
 19 20  1  0  0  0  0
 19 23  1  0  0  0  0
 20 21  1  0  0  0  0
 20 22  1  0  0  0  0
 24 25  1  0  0  0  0
 24 27  1  0  0  0  0
 25 26  1  0  0  0  0
 28 29  4  0  0  0  0
 28 33  4  0  0  0  0
 29 30  4  0  0  0  0
 30 31  4  0  0  0  0
 31 32  4  0  0  0  0
 31 34  1  0  0  0  0
 32 33  4  0  0  0  0
 34 35  3  0  0  0  0
M  END
>  <Name_Molregno>
452101

>  <HISTAMINE H3>
7.4

$$$$
452155
  Marvin  02231216192D 0   1.00000     0.00000     0

 33 38  0  0  1  0  0  0  0  0999 V2000
    4.9792    1.0283    0.0000 O   0  0  0  0  0  0  0  0  0
    5.3015    0.2689    0.0000 C   0  0  0  0  0  0  0  0  0
    4.8049   -0.3900    0.0000 N   0  0  0  0  0  0  0  0  0
    5.1272   -1.1494    0.0000 C   0  0  0  0  0  0  0  0  0
    3.9861   -0.2893    0.0000 C   0  0  0  0  0  0  0  0  0
    3.6638    0.4701    0.0000 C   0  0  0  0  0  0  0  0  0
    2.8449    0.5707    0.0000 C   0  0  0  0  0  0  0  0  0
    2.5227    1.3302    0.0000 C   0  0  0  0  0  0  0  0  0
    1.7038    1.4308    0.0000 C   0  0  0  0  0  0  0  0  0
    1.2073    0.7720    0.0000 C   0  0  0  0  0  0  0  0  0
    1.5295    0.0125    0.0000 C   0  0  0  0  0  0  0  0  0
    1.0330   -0.6463    0.0000 C   0  0  0  0  0  0  0  0  0
    0.2141   -0.5457    0.0000 C   0  0  0  0  0  0  0  0  0
   -0.1081    0.2137    0.0000 C   0  0  0  0  0  0  0  0  0
   -0.8882    0.4824    0.0000 C   0  0  0  0  0  0  0  0  0
   -0.8737    1.3073    0.0000 C   0  0  0  0  0  0  0  0  0
   -0.0847    1.5484    0.0000 C   0  0  0  0  0  0  0  0  0
    0.3884    0.8726    0.0000 C   0  0  0  0  0  0  0  0  0
   -1.3847   -0.1764    0.0000 C   0  0  0  0  0  0  0  0  0
   -0.9116   -0.8523    0.0000 N   0  0  0  0  0  0  0  0  0
   -0.1226   -0.6111    0.0000 C   0  0  0  0  0  0  0  0  0
   -1.1803   -1.6323    0.0000 C   0  0  0  0  0  0  0  0  0
   -2.2096   -0.1619    0.0000 C   0  0  0  0  0  0  0  0  0
    2.3484   -0.0881    0.0000 C   0  0  0  0  0  0  0  0  0
    2.6707   -0.8476    0.0000 C   0  0  0  0  0  0  0  0  0
    3.4895   -0.9482    0.0000 C   0  0  0  0  0  0  0  0  0
    1.8518   -0.7469    0.0000 C   0  0  0  0  0  0  0  0  0
    6.1203    0.1682    0.0000 C   0  0  0  0  0  0  0  0  0
    6.6169    0.8271    0.0000 C   0  0  0  0  0  0  0  0  0
    7.4357    0.7265    0.0000 C   0  0  0  0  0  0  0  0  0
    7.7580   -0.0330    0.0000 N   0  0  0  0  0  0  0  0  0
    7.2614   -0.6918    0.0000 C   0  0  0  0  0  0  0  0  0
    6.4426   -0.5912    0.0000 C   0  0  0  0  0  0  0  0  0
  1  2  2  0  0  0  0
  2  3  1  0  0  0  0
  2 28  1  0  0  0  0
  3  4  1  0  0  0  0
  3  5  1  0  0  0  0
  5  6  1  0  0  0  0
  5 26  1  0  0  0  0
  6  7  1  0  0  0  0
  7  8  2  0  0  0  0
  7 24  1  0  0  0  0
  8  9  1  0  0  0  0
  9 10  1  0  0  0  0
 10 11  1  0  0  0  0
 10 18  1  0  0  0  0
 11 12  1  0  0  0  0
 11 24  1  0  0  0  0
 12 13  1  0  0  0  0
 13 14  1  0  0  0  0
 14 15  1  0  0  0  0
 14 18  1  0  0  0  0
 14 21  1  0  0  0  0
 15 16  1  0  0  0  0
 15 19  1  0  0  0  0
 16 17  1  0  0  0  0
 17 18  1  0  0  0  0
 19 20  1  0  0  0  0
 19 23  1  0  0  0  0
 20 21  1  0  0  0  0
 20 22  1  0  0  0  0
 24 25  1  0  0  0  0
 24 27  1  0  0  0  0
 25 26  1  0  0  0  0
 28 29  4  0  0  0  0
 28 33  4  0  0  0  0
 29 30  4  0  0  0  0
 30 31  4  0  0  0  0
 31 32  4  0  0  0  0
 32 33  4  0  0  0  0
M  END
>  <Name_Molregno>
452155

>  <HISTAMINE H3>
7.79

$$$$
452156
  Marvin  02231216192D 0   1.00000     0.00000     0

 33 38  0  0  1  0  0  0  0  0999 V2000
    8.5791   -1.4528    0.0000 S   0  0  0  0  0  0  0  0  0
    8.6509   -2.2747    0.0000 C   0  0  0  0  0  0  0  0  0
    7.8914   -2.5969    0.0000 C   0  0  0  0  0  0  0  0  0
    7.3502   -1.9743    0.0000 C   0  0  0  0  0  0  0  0  0
    7.7752   -1.2671    0.0000 C   0  0  0  0  0  0  0  0  0
    7.4529   -0.5077    0.0000 C   0  0  0  0  0  0  0  0  0
    6.6341   -0.4071    0.0000 C   0  0  0  0  0  0  0  0  0
    6.1375   -1.0659    0.0000 O   0  0  0  0  0  0  0  0  0
    6.3118    0.3524    0.0000 N   0  0  0  0  0  0  0  0  0
    6.8084    1.0112    0.0000 C   0  0  0  0  0  0  0  0  0
    5.4930    0.4530    0.0000 C   0  0  0  0  0  0  0  0  0
    5.1707    1.2124    0.0000 C   0  0  0  0  0  0  0  0  0
    4.3518    1.3131    0.0000 C   0  0  0  0  0  0  0  0  0
    4.0296    2.0725    0.0000 C   0  0  0  0  0  0  0  0  0
    3.2107    2.1731    0.0000 C   0  0  0  0  0  0  0  0  0
    2.7142    1.5143    0.0000 C   0  0  0  0  0  0  0  0  0
    3.0364    0.7549    0.0000 C   0  0  0  0  0  0  0  0  0
    2.5399    0.0960    0.0000 C   0  0  0  0  0  0  0  0  0
    1.7210    0.1966    0.0000 C   0  0  0  0  0  0  0  0  0
    1.3988    0.9561    0.0000 C   0  0  0  0  0  0  0  0  0
    0.6187    1.2248    0.0000 C   0  0  0  0  0  0  0  0  0
    0.6332    2.0496    0.0000 C   0  0  0  0  0  0  0  0  0
    1.4222    2.2908    0.0000 C   0  0  0  0  0  0  0  0  0
    1.8953    1.6149    0.0000 C   0  0  0  0  0  0  0  0  0
    0.1222    0.5659    0.0000 C   0  0  0  0  0  0  0  0  0
    0.5953   -0.1099    0.0000 N   0  0  0  0  0  0  0  0  0
    1.3843    0.1312    0.0000 C   0  0  0  0  0  0  0  0  0
    0.3266   -0.8899    0.0000 C   0  0  0  0  0  0  0  0  0
   -0.7027    0.5804    0.0000 C   0  0  0  0  0  0  0  0  0
    3.8553    0.6542    0.0000 C   0  0  0  0  0  0  0  0  0
    4.1776   -0.1052    0.0000 C   0  0  0  0  0  0  0  0  0
    4.9964   -0.2058    0.0000 C   0  0  0  0  0  0  0  0  0
    3.3587   -0.0046    0.0000 C   0  0  0  0  0  0  0  0  0
  1  2  4  0  0  0  0
  1  5  4  0  0  0  0
  2  3  4  0  0  0  0
  3  4  4  0  0  0  0
  4  5  4  0  0  0  0
  5  6  1  0  0  0  0
  6  7  1  0  0  0  0
  7  8  2  0  0  0  0
  7  9  1  0  0  0  0
  9 10  1  0  0  0  0
  9 11  1  0  0  0  0
 11 12  1  0  0  0  0
 11 32  1  0  0  0  0
 12 13  1  0  0  0  0
 13 14  2  0  0  0  0
 13 30  1  0  0  0  0
 14 15  1  0  0  0  0
 15 16  1  0  0  0  0
 16 17  1  0  0  0  0
 16 24  1  0  0  0  0
 17 18  1  0  0  0  0
 17 30  1  0  0  0  0
 18 19  1  0  0  0  0
 19 20  1  0  0  0  0
 20 21  1  0  0  0  0
 20 24  1  0  0  0  0
 20 27  1  0  0  0  0
 21 22  1  0  0  0  0
 21 25  1  0  0  0  0
 22 23  1  0  0  0  0
 23 24  1  0  0  0  0
 25 26  1  0  0  0  0
 25 29  1  0  0  0  0
 26 27  1  0  0  0  0
 26 28  1  0  0  0  0
 30 31  1  0  0  0  0
 30 33  1  0  0  0  0
 31 32  1  0  0  0  0
M  END
>  <Name_Molregno>
452156

>  <HISTAMINE H3>
8.48

$$$$
452157
  Marvin  02231216192D 0   1.00000     0.00000     0

 33 38  0  0  1  0  0  0  0  0999 V2000
    4.8084    0.5533    0.0000 N   0  0  0  0  0  0  0  0  0
    5.3050    1.2121    0.0000 C   0  0  0  0  0  0  0  0  0
    3.9896    0.6539    0.0000 C   0  0  0  0  0  0  0  0  0
    3.6673    1.4133    0.0000 C   0  0  0  0  0  0  0  0  0
    2.8485    1.5140    0.0000 C   0  0  0  0  0  0  0  0  0
    2.5262    2.2734    0.0000 C   0  0  0  0  0  0  0  0  0
    1.7073    2.3740    0.0000 C   0  0  0  0  0  0  0  0  0
    1.2108    1.7152    0.0000 C   0  0  0  0  0  0  0  0  0
    1.5331    0.9557    0.0000 C   0  0  0  0  0  0  0  0  0
    1.0365    0.2969    0.0000 C   0  0  0  0  0  0  0  0  0
    0.2177    0.3975    0.0000 C   0  0  0  0  0  0  0  0  0
   -0.1046    1.1570    0.0000 C   0  0  0  0  0  0  0  0  0
   -0.8846    1.4256    0.0000 C   0  0  0  0  0  0  0  0  0
   -0.8702    2.2505    0.0000 C   0  0  0  0  0  0  0  0  0
   -0.0812    2.4917    0.0000 C   0  0  0  0  0  0  0  0  0
    0.3919    1.8158    0.0000 C   0  0  0  0  0  0  0  0  0
   -1.3812    0.7668    0.0000 C   0  0  0  0  0  0  0  0  0
   -0.9081    0.0910    0.0000 N   0  0  0  0  0  0  0  0  0
   -0.1191    0.3321    0.0000 C   0  0  0  0  0  0  0  0  0
   -1.1767   -0.6891    0.0000 C   0  0  0  0  0  0  0  0  0
   -2.2061    0.7813    0.0000 C   0  0  0  0  0  0  0  0  0
    2.3519    0.8551    0.0000 C   0  0  0  0  0  0  0  0  0
    2.6742    0.0957    0.0000 C   0  0  0  0  0  0  0  0  0
    3.4930   -0.0049    0.0000 C   0  0  0  0  0  0  0  0  0
    1.8553    0.1963    0.0000 C   0  0  0  0  0  0  0  0  0
    5.1307   -0.2062    0.0000 C   0  0  0  0  0  0  0  0  0
    5.9496   -0.3068    0.0000 C   0  0  0  0  0  0  0  0  0
    6.2718   -1.0662    0.0000 C   0  0  0  0  0  0  0  0  0
    5.7753   -1.7251    0.0000 C   0  0  0  0  0  0  0  0  0
    4.9564   -1.6245    0.0000 C   0  0  0  0  0  0  0  0  0
    4.6342   -0.8650    0.0000 C   0  0  0  0  0  0  0  0  0
    6.0976   -2.4845    0.0000 C   0  0  0  0  0  0  0  0  0
    6.4198   -3.2440    0.0000 N   0  0  0  0  0  0  0  0  0
  1  2  1  0  0  0  0
  1  3  1  0  0  0  0
  1 26  1  0  0  0  0
  3  4  1  0  0  0  0
  3 24  1  0  0  0  0
  4  5  1  0  0  0  0
  5  6  2  0  0  0  0
  5 22  1  0  0  0  0
  6  7  1  0  0  0  0
  7  8  1  0  0  0  0
  8  9  1  0  0  0  0
  8 16  1  0  0  0  0
  9 10  1  0  0  0  0
  9 22  1  0  0  0  0
 10 11  1  0  0  0  0
 11 12  1  0  0  0  0
 12 13  1  0  0  0  0
 12 16  1  0  0  0  0
 12 19  1  0  0  0  0
 13 14  1  0  0  0  0
 13 17  1  0  0  0  0
 14 15  1  0  0  0  0
 15 16  1  0  0  0  0
 17 18  1  0  0  0  0
 17 21  1  0  0  0  0
 18 19  1  0  0  0  0
 18 20  1  0  0  0  0
 22 23  1  0  0  0  0
 22 25  1  0  0  0  0
 23 24  1  0  0  0  0
 26 27  4  0  0  0  0
 26 31  4  0  0  0  0
 27 28  4  0  0  0  0
 28 29  4  0  0  0  0
 29 30  4  0  0  0  0
 29 32  1  0  0  0  0
 30 31  4  0  0  0  0
 32 33  3  0  0  0  0
M  END
>  <Name_Molregno>
452157

>  <HISTAMINE H3>
8.78

$$$$
452158
  Marvin  02231216192D 0   1.00000     0.00000     0

 29 33  0  0  1  0  0  0  0  0999 V2000
    8.2792    0.6732    0.0000 O   0  0  0  0  0  0  0  0  0
    7.4603    0.7738    0.0000 C   0  0  0  0  0  0  0  0  0
    7.1381    1.5332    0.0000 O   0  0  0  0  0  0  0  0  0
    6.9638    0.1150    0.0000 N   0  0  0  0  0  0  0  0  0
    7.2861   -0.6445    0.0000 C   0  0  0  0  0  0  0  0  0
    6.1449    0.2156    0.0000 C   0  0  0  0  0  0  0  0  0
    5.8227    0.9750    0.0000 C   0  0  0  0  0  0  0  0  0
    5.0038    1.0756    0.0000 C   0  0  0  0  0  0  0  0  0
    4.6815    1.8351    0.0000 C   0  0  0  0  0  0  0  0  0
    3.8627    1.9357    0.0000 C   0  0  0  0  0  0  0  0  0
    3.3661    1.2769    0.0000 C   0  0  0  0  0  0  0  0  0
    3.6884    0.5174    0.0000 C   0  0  0  0  0  0  0  0  0
    3.1919   -0.1414    0.0000 C   0  0  0  0  0  0  0  0  0
    2.3730   -0.0408    0.0000 C   0  0  0  0  0  0  0  0  0
    2.0507    0.7187    0.0000 C   0  0  0  0  0  0  0  0  0
    1.2707    0.9873    0.0000 C   0  0  0  0  0  0  0  0  0
    1.2852    1.8122    0.0000 C   0  0  0  0  0  0  0  0  0
    2.0742    2.0533    0.0000 C   0  0  0  0  0  0  0  0  0
    2.5473    1.3775    0.0000 C   0  0  0  0  0  0  0  0  0
    0.7742    0.3285    0.0000 C   0  0  0  0  0  0  0  0  0
    1.2473   -0.3473    0.0000 N   0  0  0  0  0  0  0  0  0
    2.0363   -0.1062    0.0000 C   0  0  0  0  0  0  0  0  0
    0.9786   -1.1274    0.0000 C   0  0  0  0  0  0  0  0  0
   -0.0507    0.3430    0.0000 C   0  0  0  0  0  0  0  0  0
    4.5073    0.4168    0.0000 C   0  0  0  0  0  0  0  0  0
    4.8295   -0.3426    0.0000 C   0  0  0  0  0  0  0  0  0
    5.6484   -0.4432    0.0000 C   0  0  0  0  0  0  0  0  0
    4.0107   -0.2420    0.0000 C   0  0  0  0  0  0  0  0  0
    8.7757    1.3320    0.0000 C   0  0  0  0  0  0  0  0  0
  1  2  1  0  0  0  0
  1 29  1  0  0  0  0
  2  3  2  0  0  0  0
  2  4  1  0  0  0  0
  4  5  1  0  0  0  0
  4  6  1  0  0  0  0
  6  7  1  0  0  0  0
  6 27  1  0  0  0  0
  7  8  1  0  0  0  0
  8  9  2  0  0  0  0
  8 25  1  0  0  0  0
  9 10  1  0  0  0  0
 10 11  1  0  0  0  0
 11 12  1  0  0  0  0
 11 19  1  0  0  0  0
 12 13  1  0  0  0  0
 12 25  1  0  0  0  0
 13 14  1  0  0  0  0
 14 15  1  0  0  0  0
 15 16  1  0  0  0  0
 15 19  1  0  0  0  0
 15 22  1  0  0  0  0
 16 17  1  0  0  0  0
 16 20  1  0  0  0  0
 17 18  1  0  0  0  0
 18 19  1  0  0  0  0
 20 21  1  0  0  0  0
 20 24  1  0  0  0  0
 21 22  1  0  0  0  0
 21 23  1  0  0  0  0
 25 26  1  0  0  0  0
 25 28  1  0  0  0  0
 26 27  1  0  0  0  0
M  END
>  <Name_Molregno>
452158

>  <HISTAMINE H3>
7.22

$$$$
452235
  Marvin  02231216192D 0   1.00000     0.00000     0

 30 34  0  0  1  0  0  0  0  0999 V2000
    5.9150    1.1875    0.0000 O   0  0  0  0  0  0  0  0  0
    6.2373    0.4280    0.0000 C   0  0  0  0  0  0  0  0  0
    5.7407   -0.2308    0.0000 N   0  0  0  0  0  0  0  0  0
    6.0630   -0.9903    0.0000 C   0  0  0  0  0  0  0  0  0
    4.9219   -0.1302    0.0000 C   0  0  0  0  0  0  0  0  0
    4.5996    0.6292    0.0000 C   0  0  0  0  0  0  0  0  0
    3.7808    0.7299    0.0000 C   0  0  0  0  0  0  0  0  0
    3.4585    1.4893    0.0000 C   0  0  0  0  0  0  0  0  0
    2.6396    1.5899    0.0000 C   0  0  0  0  0  0  0  0  0
    2.1431    0.9311    0.0000 C   0  0  0  0  0  0  0  0  0
    2.4654    0.1717    0.0000 C   0  0  0  0  0  0  0  0  0
    1.9688   -0.4872    0.0000 C   0  0  0  0  0  0  0  0  0
    1.1500   -0.3866    0.0000 C   0  0  0  0  0  0  0  0  0
    0.8277    0.3729    0.0000 C   0  0  0  0  0  0  0  0  0
    0.0476    0.6416    0.0000 C   0  0  0  0  0  0  0  0  0
    0.0621    1.4664    0.0000 C   0  0  0  0  0  0  0  0  0
    0.8511    1.7076    0.0000 C   0  0  0  0  0  0  0  0  0
    1.3242    1.0317    0.0000 C   0  0  0  0  0  0  0  0  0
   -0.4489   -0.0173    0.0000 C   0  0  0  0  0  0  0  0  0
    0.0242   -0.6931    0.0000 N   0  0  0  0  0  0  0  0  0
    0.8132   -0.4520    0.0000 C   0  0  0  0  0  0  0  0  0
   -0.2444   -1.4731    0.0000 C   0  0  0  0  0  0  0  0  0
   -1.2738   -0.0028    0.0000 C   0  0  0  0  0  0  0  0  0
    3.2842    0.0710    0.0000 C   0  0  0  0  0  0  0  0  0
    3.6065   -0.6884    0.0000 C   0  0  0  0  0  0  0  0  0
    4.4253   -0.7890    0.0000 C   0  0  0  0  0  0  0  0  0
    2.7876   -0.5878    0.0000 C   0  0  0  0  0  0  0  0  0
    7.0561    0.3274    0.0000 N   0  0  0  0  0  0  0  0  0
    7.5527    0.9862    0.0000 C   0  0  0  0  0  0  0  0  0
    7.3784   -0.4321    0.0000 C   0  0  0  0  0  0  0  0  0
  1  2  2  0  0  0  0
  2  3  1  0  0  0  0
  2 28  1  0  0  0  0
  3  4  1  0  0  0  0
  3  5  1  0  0  0  0
  5  6  1  0  0  0  0
  5 26  1  0  0  0  0
  6  7  1  0  0  0  0
  7  8  2  0  0  0  0
  7 24  1  0  0  0  0
  8  9  1  0  0  0  0
  9 10  1  0  0  0  0
 10 11  1  0  0  0  0
 10 18  1  0  0  0  0
 11 12  1  0  0  0  0
 11 24  1  0  0  0  0
 12 13  1  0  0  0  0
 13 14  1  0  0  0  0
 14 15  1  0  0  0  0
 14 18  1  0  0  0  0
 14 21  1  0  0  0  0
 15 16  1  0  0  0  0
 15 19  1  0  0  0  0
 16 17  1  0  0  0  0
 17 18  1  0  0  0  0
 19 20  1  0  0  0  0
 19 23  1  0  0  0  0
 20 21  1  0  0  0  0
 20 22  1  0  0  0  0
 24 25  1  0  0  0  0
 24 27  1  0  0  0  0
 25 26  1  0  0  0  0
 28 29  1  0  0  0  0
 28 30  1  0  0  0  0
M  END
>  <Name_Molregno>
452235

>  <HISTAMINE H3>
7.3

$$$$
452236
  Marvin  02231216192D 0   1.00000     0.00000     0

 31 35  0  0  1  0  0  0  0  0999 V2000
    0.1864   -1.9364    0.0000 S   0  0  0  0  0  0  0  0  0
   -0.5730   -2.2587    0.0000 O   0  0  0  0  0  0  0  0  0
    0.9458   -1.6141    0.0000 O   0  0  0  0  0  0  0  0  0
   -0.1359   -1.1769    0.0000 N   0  0  0  0  0  0  0  0  0
    0.3607   -0.5181    0.0000 C   0  0  0  0  0  0  0  0  0
   -0.9547   -1.0763    0.0000 C   0  0  0  0  0  0  0  0  0
   -1.2770   -0.3169    0.0000 C   0  0  0  0  0  0  0  0  0
   -2.0958   -0.2162    0.0000 C   0  0  0  0  0  0  0  0  0
   -2.4181    0.5432    0.0000 C   0  0  0  0  0  0  0  0  0
   -3.2370    0.6438    0.0000 C   0  0  0  0  0  0  0  0  0
   -3.7335   -0.0150    0.0000 C   0  0  0  0  0  0  0  0  0
   -3.4112   -0.7745    0.0000 C   0  0  0  0  0  0  0  0  0
   -3.9078   -1.4333    0.0000 C   0  0  0  0  0  0  0  0  0
   -4.7266   -1.3327    0.0000 C   0  0  0  0  0  0  0  0  0
   -5.0489   -0.5732    0.0000 C   0  0  0  0  0  0  0  0  0
   -5.8290   -0.3045    0.0000 C   0  0  0  0  0  0  0  0  0
   -5.8145    0.5203    0.0000 C   0  0  0  0  0  0  0  0  0
   -5.0255    0.7615    0.0000 C   0  0  0  0  0  0  0  0  0
   -4.5524    0.0856    0.0000 C   0  0  0  0  0  0  0  0  0
   -6.3255   -0.9634    0.0000 C   0  0  0  0  0  0  0  0  0
   -5.8524   -1.6392    0.0000 N   0  0  0  0  0  0  0  0  0
   -5.0634   -1.3981    0.0000 C   0  0  0  0  0  0  0  0  0
   -6.1210   -2.4192    0.0000 C   0  0  0  0  0  0  0  0  0
   -7.1504   -0.9489    0.0000 C   0  0  0  0  0  0  0  0  0
   -2.5924   -0.8751    0.0000 C   0  0  0  0  0  0  0  0  0
   -2.2701   -1.6345    0.0000 C   0  0  0  0  0  0  0  0  0
   -1.4513   -1.7351    0.0000 C   0  0  0  0  0  0  0  0  0
   -3.0890   -1.5339    0.0000 C   0  0  0  0  0  0  0  0  0
    0.5087   -2.6958    0.0000 N   0  0  0  0  0  0  0  0  0
    1.3275   -2.7964    0.0000 C   0  0  0  0  0  0  0  0  0
    0.0121   -3.3546    0.0000 C   0  0  0  0  0  0  0  0  0
  1  2  2  0  0  0  0
  1  3  2  0  0  0  0
  1  4  1  0  0  0  0
  1 29  1  0  0  0  0
  4  5  1  0  0  0  0
  4  6  1  0  0  0  0
  6  7  1  0  0  0  0
  6 27  1  0  0  0  0
  7  8  1  0  0  0  0
  8  9  2  0  0  0  0
  8 25  1  0  0  0  0
  9 10  1  0  0  0  0
 10 11  1  0  0  0  0
 11 12  1  0  0  0  0
 11 19  1  0  0  0  0
 12 13  1  0  0  0  0
 12 25  1  0  0  0  0
 13 14  1  0  0  0  0
 14 15  1  0  0  0  0
 15 16  1  0  0  0  0
 15 19  1  0  0  0  0
 15 22  1  0  0  0  0
 16 17  1  0  0  0  0
 16 20  1  0  0  0  0
 17 18  1  0  0  0  0
 18 19  1  0  0  0  0
 20 21  1  0  0  0  0
 20 24  1  0  0  0  0
 21 22  1  0  0  0  0
 21 23  1  0  0  0  0
 25 26  1  0  0  0  0
 25 28  1  0  0  0  0
 26 27  1  0  0  0  0
 29 30  1  0  0  0  0
 29 31  1  0  0  0  0
M  END
>  <Name_Molregno>
452236

>  <HISTAMINE H3>
7.51

$$$$
452237
  Marvin  02231216192D 0   1.00000     0.00000     0

 30 34  0  0  1  0  0  0  0  0999 V2000
    0.1627   -2.0046    0.0000 S   0  0  0  0  0  0  0  0  0
   -0.5967   -2.3269    0.0000 O   0  0  0  0  0  0  0  0  0
    0.9222   -1.6823    0.0000 O   0  0  0  0  0  0  0  0  0
   -0.1596   -1.2452    0.0000 N   0  0  0  0  0  0  0  0  0
    0.3370   -0.5863    0.0000 C   0  0  0  0  0  0  0  0  0
   -0.9784   -1.1446    0.0000 C   0  0  0  0  0  0  0  0  0
   -1.3007   -0.3851    0.0000 C   0  0  0  0  0  0  0  0  0
   -2.1195   -0.2845    0.0000 C   0  0  0  0  0  0  0  0  0
   -2.4418    0.4750    0.0000 C   0  0  0  0  0  0  0  0  0
   -3.2607    0.5756    0.0000 C   0  0  0  0  0  0  0  0  0
   -3.7572   -0.0833    0.0000 C   0  0  0  0  0  0  0  0  0
   -3.4349   -0.8427    0.0000 C   0  0  0  0  0  0  0  0  0
   -3.9315   -1.5015    0.0000 C   0  0  0  0  0  0  0  0  0
   -4.7503   -1.4009    0.0000 C   0  0  0  0  0  0  0  0  0
   -5.0726   -0.6415    0.0000 C   0  0  0  0  0  0  0  0  0
   -5.8526   -0.3728    0.0000 C   0  0  0  0  0  0  0  0  0
   -5.8382    0.4521    0.0000 C   0  0  0  0  0  0  0  0  0
   -5.0492    0.6932    0.0000 C   0  0  0  0  0  0  0  0  0
   -4.5761    0.0174    0.0000 C   0  0  0  0  0  0  0  0  0
   -6.3492   -1.0316    0.0000 C   0  0  0  0  0  0  0  0  0
   -5.8761   -1.7075    0.0000 N   0  0  0  0  0  0  0  0  0
   -5.0871   -1.4663    0.0000 C   0  0  0  0  0  0  0  0  0
   -6.1447   -2.4875    0.0000 C   0  0  0  0  0  0  0  0  0
   -7.1741   -1.0171    0.0000 C   0  0  0  0  0  0  0  0  0
   -2.6161   -0.9433    0.0000 C   0  0  0  0  0  0  0  0  0
   -2.2938   -1.7028    0.0000 C   0  0  0  0  0  0  0  0  0
   -1.4750   -1.8034    0.0000 C   0  0  0  0  0  0  0  0  0
   -3.1127   -1.6021    0.0000 C   0  0  0  0  0  0  0  0  0
    0.4850   -2.7641    0.0000 C   0  0  0  0  0  0  0  0  0
    1.3038   -2.8647    0.0000 C   0  0  0  0  0  0  0  0  0
  1  2  2  0  0  0  0
  1  3  2  0  0  0  0
  1  4  1  0  0  0  0
  1 29  1  0  0  0  0
  4  5  1  0  0  0  0
  4  6  1  0  0  0  0
  6  7  1  0  0  0  0
  6 27  1  0  0  0  0
  7  8  1  0  0  0  0
  8  9  2  0  0  0  0
  8 25  1  0  0  0  0
  9 10  1  0  0  0  0
 10 11  1  0  0  0  0
 11 12  1  0  0  0  0
 11 19  1  0  0  0  0
 12 13  1  0  0  0  0
 12 25  1  0  0  0  0
 13 14  1  0  0  0  0
 14 15  1  0  0  0  0
 15 16  1  0  0  0  0
 15 19  1  0  0  0  0
 15 22  1  0  0  0  0
 16 17  1  0  0  0  0
 16 20  1  0  0  0  0
 17 18  1  0  0  0  0
 18 19  1  0  0  0  0
 20 21  1  0  0  0  0
 20 24  1  0  0  0  0
 21 22  1  0  0  0  0
 21 23  1  0  0  0  0
 25 26  1  0  0  0  0
 25 28  1  0  0  0  0
 26 27  1  0  0  0  0
 29 30  1  0  0  0  0
M  END
>  <Name_Molregno>
452237

>  <HISTAMINE H3>
7.63

$$$$
452238
  Marvin  02231216192D 0   1.00000     0.00000     0

 34 39  0  0  1  0  0  0  0  0999 V2000
    0.0512   -0.3379    0.0000 S   0  0  0  0  0  0  0  0  0
   -0.7083   -0.6602    0.0000 O   0  0  0  0  0  0  0  0  0
    0.8106   -0.0156    0.0000 O   0  0  0  0  0  0  0  0  0
   -0.2711    0.4215    0.0000 N   0  0  0  0  0  0  0  0  0
    0.2254    1.0804    0.0000 C   0  0  0  0  0  0  0  0  0
   -1.0900    0.5222    0.0000 C   0  0  0  0  0  0  0  0  0
   -1.4122    1.2816    0.0000 C   0  0  0  0  0  0  0  0  0
   -2.2311    1.3822    0.0000 C   0  0  0  0  0  0  0  0  0
   -2.5534    2.1417    0.0000 C   0  0  0  0  0  0  0  0  0
   -3.3722    2.2423    0.0000 C   0  0  0  0  0  0  0  0  0
   -3.8688    1.5835    0.0000 C   0  0  0  0  0  0  0  0  0
   -3.5465    0.8240    0.0000 C   0  0  0  0  0  0  0  0  0
   -4.0430    0.1652    0.0000 C   0  0  0  0  0  0  0  0  0
   -4.8619    0.2658    0.0000 C   0  0  0  0  0  0  0  0  0
   -5.1842    1.0252    0.0000 C   0  0  0  0  0  0  0  0  0
   -5.9642    1.2939    0.0000 C   0  0  0  0  0  0  0  0  0
   -5.9497    2.1188    0.0000 C   0  0  0  0  0  0  0  0  0
   -5.1607    2.3599    0.0000 C   0  0  0  0  0  0  0  0  0
   -4.6876    1.6841    0.0000 C   0  0  0  0  0  0  0  0  0
   -6.4607    0.6351    0.0000 C   0  0  0  0  0  0  0  0  0
   -5.9876   -0.0408    0.0000 N   0  0  0  0  0  0  0  0  0
   -5.1986    0.2004    0.0000 C   0  0  0  0  0  0  0  0  0
   -6.2563   -0.8208    0.0000 C   0  0  0  0  0  0  0  0  0
   -7.2856    0.6496    0.0000 C   0  0  0  0  0  0  0  0  0
   -2.7276    0.7234    0.0000 C   0  0  0  0  0  0  0  0  0
   -2.4054   -0.0361    0.0000 C   0  0  0  0  0  0  0  0  0
   -1.5865   -0.1367    0.0000 C   0  0  0  0  0  0  0  0  0
   -3.2242    0.0646    0.0000 C   0  0  0  0  0  0  0  0  0
    0.3735   -1.0974    0.0000 C   0  0  0  0  0  0  0  0  0
    1.1923   -1.1980    0.0000 C   0  0  0  0  0  0  0  0  0
    1.5146   -1.9574    0.0000 C   0  0  0  0  0  0  0  0  0
    1.0180   -2.6163    0.0000 C   0  0  0  0  0  0  0  0  0
    0.1992   -2.5156    0.0000 C   0  0  0  0  0  0  0  0  0
   -0.1231   -1.7562    0.0000 C   0  0  0  0  0  0  0  0  0
  1  2  2  0  0  0  0
  1  3  2  0  0  0  0
  1  4  1  0  0  0  0
  1 29  1  0  0  0  0
  4  5  1  0  0  0  0
  4  6  1  0  0  0  0
  6  7  1  0  0  0  0
  6 27  1  0  0  0  0
  7  8  1  0  0  0  0
  8  9  2  0  0  0  0
  8 25  1  0  0  0  0
  9 10  1  0  0  0  0
 10 11  1  0  0  0  0
 11 12  1  0  0  0  0
 11 19  1  0  0  0  0
 12 13  1  0  0  0  0
 12 25  1  0  0  0  0
 13 14  1  0  0  0  0
 14 15  1  0  0  0  0
 15 16  1  0  0  0  0
 15 19  1  0  0  0  0
 15 22  1  0  0  0  0
 16 17  1  0  0  0  0
 16 20  1  0  0  0  0
 17 18  1  0  0  0  0
 18 19  1  0  0  0  0
 20 21  1  0  0  0  0
 20 24  1  0  0  0  0
 21 22  1  0  0  0  0
 21 23  1  0  0  0  0
 25 26  1  0  0  0  0
 25 28  1  0  0  0  0
 26 27  1  0  0  0  0
 29 30  4  0  0  0  0
 29 34  4  0  0  0  0
 30 31  4  0  0  0  0
 31 32  4  0  0  0  0
 32 33  4  0  0  0  0
 33 34  4  0  0  0  0
M  END
>  <Name_Molregno>
452238

>  <HISTAMINE H3>
8.11

$$$$
453013
  Marvin  02231216192D 0   1.00000     0.00000     0

 27 30  0  0  0  0  0  0  0  0999 V2000
   -0.0161   -0.9161    0.0000 O   0  0  0  0  0  0  0  0  0
   -0.0161   -1.7411    0.0000 C   0  0  0  0  0  0  0  0  0
   -0.7306   -2.1536    0.0000 C   0  0  0  0  0  0  0  0  0
   -0.7306   -2.9786    0.0000 C   0  0  0  0  0  0  0  0  0
   -1.4450   -3.3911    0.0000 N   0  0  0  0  0  0  0  0  0
   -1.5313   -4.2116    0.0000 C   0  0  0  0  0  0  0  0  0
   -2.3382   -4.3831    0.0000 C   0  0  0  0  0  0  0  0  0
   -2.7507   -3.6686    0.0000 C   0  0  0  0  0  0  0  0  0
   -2.1987   -3.0556    0.0000 C   0  0  0  0  0  0  0  0  0
    0.6984   -0.5036    0.0000 C   0  0  0  0  0  0  0  0  0
    0.6984    0.3214    0.0000 C   0  0  0  0  0  0  0  0  0
    1.4129    0.7339    0.0000 C   0  0  0  0  0  0  0  0  0
    2.1273    0.3214    0.0000 C   0  0  0  0  0  0  0  0  0
    2.1273   -0.5036    0.0000 C   0  0  0  0  0  0  0  0  0
    1.4129   -0.9161    0.0000 C   0  0  0  0  0  0  0  0  0
    2.8418    0.7339    0.0000 C   0  0  0  0  0  0  0  0  0
    3.5563    0.3214    0.0000 N   0  0  0  0  0  0  0  0  0
    4.2707    0.7339    0.0000 C   0  0  0  0  0  0  0  0  0
    4.2707    1.5589    0.0000 C   0  0  0  0  0  0  0  0  0
    4.9852    1.9714    0.0000 C   0  0  0  0  0  0  0  0  0
    5.6997    1.5589    0.0000 C   0  0  0  0  0  0  0  0  0
    5.6997    0.7339    0.0000 C   0  0  0  0  0  0  0  0  0
    4.9852    0.3214    0.0000 C   0  0  0  0  0  0  0  0  0
    3.5563    1.9714    0.0000 C   0  0  0  0  0  0  0  0  0
    3.5563    2.7964    0.0000 O   0  0  0  0  0  0  0  0  0
    2.8418    1.5589    0.0000 N   0  0  0  0  0  0  0  0  0
    2.1273    1.9714    0.0000 C   0  0  0  0  0  0  0  0  0
  1  2  1  0  0  0  0
  1 10  1  0  0  0  0
  2  3  1  0  0  0  0
  3  4  1  0  0  0  0
  4  5  1  0  0  0  0
  5  6  1  0  0  0  0
  5  9  1  0  0  0  0
  6  7  1  0  0  0  0
  7  8  1  0  0  0  0
  8  9  1  0  0  0  0
 10 11  4  0  0  0  0
 10 15  4  0  0  0  0
 11 12  4  0  0  0  0
 12 13  4  0  0  0  0
 13 14  4  0  0  0  0
 13 16  1  0  0  0  0
 14 15  4  0  0  0  0
 16 17  2  0  0  0  0
 16 26  1  0  0  0  0
 17 18  1  0  0  0  0
 18 19  4  0  0  0  0
 18 23  4  0  0  0  0
 19 20  4  0  0  0  0
 19 24  1  0  0  0  0
 20 21  4  0  0  0  0
 21 22  4  0  0  0  0
 22 23  4  0  0  0  0
 24 25  2  0  0  0  0
 24 26  1  0  0  0  0
 26 27  1  0  0  0  0
M  END
>  <Name_Molregno>
453013

>  <HISTAMINE H3>
8.38

$$$$
454365
  Marvin  02231216192D 0   1.00000     0.00000     0

 20 21  0  0  0  0  0  0  0  0999 V2000
   -0.1314   -2.0322    0.0000 Cl  0  0  0  0  0  0  0  0  0
    0.5831   -1.6197    0.0000 C   0  0  0  0  0  0  0  0  0
    0.5831   -0.7947    0.0000 C   0  0  0  0  0  0  0  0  0
    1.2975   -0.3822    0.0000 C   0  0  0  0  0  0  0  0  0
    2.0120   -0.7947    0.0000 C   0  0  0  0  0  0  0  0  0
    2.0120   -1.6197    0.0000 C   0  0  0  0  0  0  0  0  0
    1.2975   -2.0322    0.0000 C   0  0  0  0  0  0  0  0  0
    2.7265   -0.3822    0.0000 C   0  0  0  0  0  0  0  0  0
    3.4409   -0.7947    0.0000 C   0  0  0  0  0  0  0  0  0
    4.1554   -0.3822    0.0000 C   0  0  0  0  0  0  0  0  0
    4.8699   -0.7947    0.0000 O   0  0  0  0  0  0  0  0  0
    5.5843   -0.3822    0.0000 C   0  0  0  0  0  0  0  0  0
    6.2988   -0.7947    0.0000 C   0  0  0  0  0  0  0  0  0
    7.0133   -0.3822    0.0000 C   0  0  0  0  0  0  0  0  0
    7.7278   -0.7947    0.0000 N   0  0  0  0  0  0  0  0  0
    8.4422   -0.3822    0.0000 C   0  0  0  0  0  0  0  0  0
    9.1567   -0.7947    0.0000 C   0  0  0  0  0  0  0  0  0
    9.1567   -1.6197    0.0000 C   0  0  0  0  0  0  0  0  0
    8.4422   -2.0322    0.0000 C   0  0  0  0  0  0  0  0  0
    7.7278   -1.6197    0.0000 C   0  0  0  0  0  0  0  0  0
  1  2  1  0  0  0  0
  2  3  4  0  0  0  0
  2  7  4  0  0  0  0
  3  4  4  0  0  0  0
  4  5  4  0  0  0  0
  5  6  4  0  0  0  0
  5  8  1  0  0  0  0
  6  7  4  0  0  0  0
  8  9  1  0  0  0  0
  9 10  1  0  0  0  0
 10 11  1  0  0  0  0
 11 12  1  0  0  0  0
 12 13  1  0  0  0  0
 13 14  1  0  0  0  0
 14 15  1  0  0  0  0
 15 16  1  0  0  0  0
 15 20  1  0  0  0  0
 16 17  1  0  0  0  0
 17 18  1  0  0  0  0
 18 19  1  0  0  0  0
 19 20  1  0  0  0  0
M  END
>  <Name_Molregno>
454365

>  <HISTAMINE H3>
8.66

$$$$
454367
  Marvin  02231216192D 0   1.00000     0.00000     0

 19 20  0  0  0  0  0  0  0  0999 V2000
    0.0000    0.0045    0.0000 O   0  0  0  0  0  0  0  0  0
   -0.7145    0.4170    0.0000 C   0  0  0  0  0  0  0  0  0
   -1.4289    0.0045    0.0000 C   0  0  0  0  0  0  0  0  0
   -2.1434    0.4170    0.0000 C   0  0  0  0  0  0  0  0  0
   -2.8579    0.0045    0.0000 C   0  0  0  0  0  0  0  0  0
   -2.8579   -0.8205    0.0000 C   0  0  0  0  0  0  0  0  0
   -3.5724   -1.2330    0.0000 C   0  0  0  0  0  0  0  0  0
   -4.2868   -0.8205    0.0000 C   0  0  0  0  0  0  0  0  0
   -4.2868    0.0045    0.0000 C   0  0  0  0  0  0  0  0  0
   -3.5724    0.4170    0.0000 C   0  0  0  0  0  0  0  0  0
    0.7145    0.4170    0.0000 C   0  0  0  0  0  0  0  0  0
    1.4289    0.0045    0.0000 C   0  0  0  0  0  0  0  0  0
    2.1434    0.4170    0.0000 C   0  0  0  0  0  0  0  0  0
    2.8579    0.0045    0.0000 N   0  0  0  0  0  0  0  0  0
    3.5724    0.4170    0.0000 C   0  0  0  0  0  0  0  0  0
    4.2868    0.0045    0.0000 C   0  0  0  0  0  0  0  0  0
    4.2868   -0.8205    0.0000 C   0  0  0  0  0  0  0  0  0
    3.5724   -1.2330    0.0000 C   0  0  0  0  0  0  0  0  0
    2.8579   -0.8205    0.0000 C   0  0  0  0  0  0  0  0  0
  1  2  1  0  0  0  0
  1 11  1  0  0  0  0
  2  3  1  0  0  0  0
  3  4  1  0  0  0  0
  4  5  1  0  0  0  0
  5  6  4  0  0  0  0
  5 10  4  0  0  0  0
  6  7  4  0  0  0  0
  7  8  4  0  0  0  0
  8  9  4  0  0  0  0
  9 10  4  0  0  0  0
 11 12  1  0  0  0  0
 12 13  1  0  0  0  0
 13 14  1  0  0  0  0
 14 15  1  0  0  0  0
 14 19  1  0  0  0  0
 15 16  1  0  0  0  0
 16 17  1  0  0  0  0
 17 18  1  0  0  0  0
 18 19  1  0  0  0  0
M  END
>  <Name_Molregno>
454367

>  <HISTAMINE H3>
8.51

$$$$
454439
  Marvin  02231216192D 0   1.00000     0.00000     0

 23 25  0  0  0  0  0  0  0  0999 V2000
   -1.8394    0.0046    0.0000 O   0  0  0  0  0  0  0  0  0
   -2.5539    0.4171    0.0000 C   0  0  0  0  0  0  0  0  0
   -3.2684    0.0046    0.0000 C   0  0  0  0  0  0  0  0  0
   -3.9828    0.4171    0.0000 C   0  0  0  0  0  0  0  0  0
   -4.6973    0.0046    0.0000 C   0  0  0  0  0  0  0  0  0
   -4.6973   -0.8204    0.0000 C   0  0  0  0  0  0  0  0  0
   -5.4118   -1.2329    0.0000 C   0  0  0  0  0  0  0  0  0
   -6.1262   -0.8204    0.0000 C   0  0  0  0  0  0  0  0  0
   -6.1262    0.0046    0.0000 C   0  0  0  0  0  0  0  0  0
   -5.4118    0.4171    0.0000 C   0  0  0  0  0  0  0  0  0
   -1.1249    0.4171    0.0000 C   0  0  0  0  0  0  0  0  0
   -0.4105    0.0046    0.0000 C   0  0  0  0  0  0  0  0  0
    0.3040    0.4171    0.0000 C   0  0  0  0  0  0  0  0  0
    1.0185    0.0046    0.0000 N   0  0  0  0  0  0  0  0  0
    1.0185   -0.8204    0.0000 C   0  0  0  0  0  0  0  0  0
    1.7329   -1.2329    0.0000 C   0  0  0  0  0  0  0  0  0
    2.4474   -0.8204    0.0000 C   0  0  0  0  0  0  0  0  0
    2.4474    0.0046    0.0000 C   0  0  0  0  0  0  0  0  0
    1.7329    0.4171    0.0000 C   0  0  0  0  0  0  0  0  0
    3.1619    0.4171    0.0000 C   0  0  0  0  0  0  0  0  0
    3.8763    0.0046    0.0000 C   0  0  0  0  0  0  0  0  0
    3.8763   -0.8204    0.0000 C   0  0  0  0  0  0  0  0  0
    3.1619   -1.2329    0.0000 C   0  0  0  0  0  0  0  0  0
  1  2  1  0  0  0  0
  1 11  1  0  0  0  0
  2  3  1  0  0  0  0
  3  4  1  0  0  0  0
  4  5  1  0  0  0  0
  5  6  4  0  0  0  0
  5 10  4  0  0  0  0
  6  7  4  0  0  0  0
  7  8  4  0  0  0  0
  8  9  4  0  0  0  0
  9 10  4  0  0  0  0
 11 12  1  0  0  0  0
 12 13  1  0  0  0  0
 13 14  1  0  0  0  0
 14 15  1  0  0  0  0
 14 19  1  0  0  0  0
 15 16  1  0  0  0  0
 16 17  1  0  0  0  0
 17 18  4  0  0  0  0
 17 23  4  0  0  0  0
 18 19  1  0  0  0  0
 18 20  4  0  0  0  0
 20 21  4  0  0  0  0
 21 22  4  0  0  0  0
 22 23  4  0  0  0  0
M  END
>  <Name_Molregno>
454439

>  <HISTAMINE H3>
6.25

$$$$
454440
  Marvin  02231216192D 0   1.00000     0.00000     0

 22 23  0  0  0  0  0  0  0  0999 V2000
   -1.4744    0.1223    0.0000 O   0  0  0  0  0  0  0  0  0
   -2.1889    0.5348    0.0000 C   0  0  0  0  0  0  0  0  0
   -2.9033    0.1223    0.0000 C   0  0  0  0  0  0  0  0  0
   -3.6178    0.5348    0.0000 C   0  0  0  0  0  0  0  0  0
   -4.3323    0.1223    0.0000 C   0  0  0  0  0  0  0  0  0
   -4.3323   -0.7027    0.0000 C   0  0  0  0  0  0  0  0  0
   -5.0468   -1.1152    0.0000 C   0  0  0  0  0  0  0  0  0
   -5.7612   -0.7027    0.0000 C   0  0  0  0  0  0  0  0  0
   -5.7612    0.1223    0.0000 C   0  0  0  0  0  0  0  0  0
   -5.0468    0.5348    0.0000 C   0  0  0  0  0  0  0  0  0
   -0.7599    0.5348    0.0000 C   0  0  0  0  0  0  0  0  0
   -0.0455    0.1223    0.0000 C   0  0  0  0  0  0  0  0  0
    0.6690    0.5348    0.0000 C   0  0  0  0  0  0  0  0  0
    1.3835    0.1223    0.0000 N   0  0  0  0  0  0  0  0  0
    2.0979    0.5348    0.0000 C   0  0  0  0  0  0  0  0  0
    2.8124    0.1223    0.0000 C   0  0  0  0  0  0  0  0  0
    2.8124   -0.7027    0.0000 C   0  0  0  0  0  0  0  0  0
    2.0979   -1.1152    0.0000 C   0  0  0  0  0  0  0  0  0
    1.3835   -0.7027    0.0000 C   0  0  0  0  0  0  0  0  0
    3.5269   -1.1152    0.0000 C   0  0  0  0  0  0  0  0  0
    3.5269   -1.9402    0.0000 C   0  0  0  0  0  0  0  0  0
    4.2414   -2.3527    0.0000 C   0  0  0  0  0  0  0  0  0
  1  2  1  0  0  0  0
  1 11  1  0  0  0  0
  2  3  1  0  0  0  0
  3  4  1  0  0  0  0
  4  5  1  0  0  0  0
  5  6  4  0  0  0  0
  5 10  4  0  0  0  0
  6  7  4  0  0  0  0
  7  8  4  0  0  0  0
  8  9  4  0  0  0  0
  9 10  4  0  0  0  0
 11 12  1  0  0  0  0
 12 13  1  0  0  0  0
 13 14  1  0  0  0  0
 14 15  1  0  0  0  0
 14 19  1  0  0  0  0
 15 16  1  0  0  0  0
 16 17  1  0  0  0  0
 17 18  1  0  0  0  0
 17 20  1  0  0  0  0
 18 19  1  0  0  0  0
 20 21  1  0  0  0  0
 21 22  1  0  0  0  0
M  END
>  <Name_Molregno>
454440

>  <HISTAMINE H3>
6.6

$$$$
454441
  Marvin  02231216192D 0   1.00000     0.00000     0

 23 24  0  0  0  0  0  0  0  0999 V2000
   -2.0868    0.0148    0.0000 O   0  0  0  0  0  0  0  0  0
   -2.8013    0.4273    0.0000 C   0  0  0  0  0  0  0  0  0
   -3.5157    0.0148    0.0000 C   0  0  0  0  0  0  0  0  0
   -4.2302    0.4273    0.0000 C   0  0  0  0  0  0  0  0  0
   -4.9447    0.0148    0.0000 C   0  0  0  0  0  0  0  0  0
   -4.9447   -0.8102    0.0000 C   0  0  0  0  0  0  0  0  0
   -5.6592   -1.2227    0.0000 C   0  0  0  0  0  0  0  0  0
   -6.3736   -0.8102    0.0000 C   0  0  0  0  0  0  0  0  0
   -6.3736    0.0148    0.0000 C   0  0  0  0  0  0  0  0  0
   -5.6592    0.4273    0.0000 C   0  0  0  0  0  0  0  0  0
   -1.3723    0.4273    0.0000 C   0  0  0  0  0  0  0  0  0
   -0.6579    0.0148    0.0000 C   0  0  0  0  0  0  0  0  0
    0.0566    0.4273    0.0000 C   0  0  0  0  0  0  0  0  0
    0.7711    0.0148    0.0000 N   0  0  0  0  0  0  0  0  0
    1.4856    0.4273    0.0000 C   0  0  0  0  0  0  0  0  0
    2.2000    0.0148    0.0000 C   0  0  0  0  0  0  0  0  0
    2.2000   -0.8102    0.0000 C   0  0  0  0  0  0  0  0  0
    1.4856   -1.2227    0.0000 C   0  0  0  0  0  0  0  0  0
    0.7711   -0.8102    0.0000 C   0  0  0  0  0  0  0  0  0
    2.9145   -1.2227    0.0000 C   0  0  0  0  0  0  0  0  0
    3.6290   -0.8102    0.0000 C   0  0  0  0  0  0  0  0  0
    4.3434   -1.2227    0.0000 C   0  0  0  0  0  0  0  0  0
    5.0579   -0.8102    0.0000 C   0  0  0  0  0  0  0  0  0
  1  2  1  0  0  0  0
  1 11  1  0  0  0  0
  2  3  1  0  0  0  0
  3  4  1  0  0  0  0
  4  5  1  0  0  0  0
  5  6  4  0  0  0  0
  5 10  4  0  0  0  0
  6  7  4  0  0  0  0
  7  8  4  0  0  0  0
  8  9  4  0  0  0  0
  9 10  4  0  0  0  0
 11 12  1  0  0  0  0
 12 13  1  0  0  0  0
 13 14  1  0  0  0  0
 14 15  1  0  0  0  0
 14 19  1  0  0  0  0
 15 16  1  0  0  0  0
 16 17  1  0  0  0  0
 17 18  1  0  0  0  0
 17 20  1  0  0  0  0
 18 19  1  0  0  0  0
 20 21  1  0  0  0  0
 21 22  1  0  0  0  0
 22 23  1  0  0  0  0
M  END
>  <Name_Molregno>
454441

>  <HISTAMINE H3>
6.56

$$$$
454442
  Marvin  02231216192D 0   1.00000     0.00000     0

 26 28  0  0  0  0  0  0  0  0999 V2000
   -3.3072   -0.0036    0.0000 O   0  0  0  0  0  0  0  0  0
   -4.0217    0.4089    0.0000 C   0  0  0  0  0  0  0  0  0
   -4.7361   -0.0036    0.0000 C   0  0  0  0  0  0  0  0  0
   -5.4506    0.4089    0.0000 C   0  0  0  0  0  0  0  0  0
   -6.1651   -0.0036    0.0000 C   0  0  0  0  0  0  0  0  0
   -6.1651   -0.8286    0.0000 C   0  0  0  0  0  0  0  0  0
   -6.8795   -1.2411    0.0000 C   0  0  0  0  0  0  0  0  0
   -7.5940   -0.8286    0.0000 C   0  0  0  0  0  0  0  0  0
   -7.5940   -0.0036    0.0000 C   0  0  0  0  0  0  0  0  0
   -6.8795    0.4089    0.0000 C   0  0  0  0  0  0  0  0  0
   -2.5927    0.4089    0.0000 C   0  0  0  0  0  0  0  0  0
   -1.8782   -0.0036    0.0000 C   0  0  0  0  0  0  0  0  0
   -1.1638    0.4089    0.0000 C   0  0  0  0  0  0  0  0  0
   -0.4493   -0.0036    0.0000 N   0  0  0  0  0  0  0  0  0
    0.2652    0.4089    0.0000 C   0  0  0  0  0  0  0  0  0
    0.9796   -0.0036    0.0000 C   0  0  0  0  0  0  0  0  0
    0.9796   -0.8286    0.0000 C   0  0  0  0  0  0  0  0  0
    0.2652   -1.2411    0.0000 C   0  0  0  0  0  0  0  0  0
   -0.4493   -0.8286    0.0000 C   0  0  0  0  0  0  0  0  0
    1.6941   -1.2411    0.0000 C   0  0  0  0  0  0  0  0  0
    2.4086   -0.8286    0.0000 C   0  0  0  0  0  0  0  0  0
    2.4086   -0.0036    0.0000 C   0  0  0  0  0  0  0  0  0
    3.1231    0.4089    0.0000 C   0  0  0  0  0  0  0  0  0
    3.8375   -0.0036    0.0000 C   0  0  0  0  0  0  0  0  0
    3.8375   -0.8286    0.0000 C   0  0  0  0  0  0  0  0  0
    3.1231   -1.2411    0.0000 C   0  0  0  0  0  0  0  0  0
  1  2  1  0  0  0  0
  1 11  1  0  0  0  0
  2  3  1  0  0  0  0
  3  4  1  0  0  0  0
  4  5  1  0  0  0  0
  5  6  4  0  0  0  0
  5 10  4  0  0  0  0
  6  7  4  0  0  0  0
  7  8  4  0  0  0  0
  8  9  4  0  0  0  0
  9 10  4  0  0  0  0
 11 12  1  0  0  0  0
 12 13  1  0  0  0  0
 13 14  1  0  0  0  0
 14 15  1  0  0  0  0
 14 19  1  0  0  0  0
 15 16  1  0  0  0  0
 16 17  1  0  0  0  0
 17 18  1  0  0  0  0
 17 20  1  0  0  0  0
 18 19  1  0  0  0  0
 20 21  1  0  0  0  0
 21 22  4  0  0  0  0
 21 26  4  0  0  0  0
 22 23  4  0  0  0  0
 23 24  4  0  0  0  0
 24 25  4  0  0  0  0
 25 26  4  0  0  0  0
M  END
>  <Name_Molregno>
454442

>  <HISTAMINE H3>
6.49

$$$$
454443
  Marvin  02231216192D 0   1.00000     0.00000     0

 23 25  0  0  1  0  0  0  0  0999 V2000
   -1.8394   -0.0046    0.0000 O   0  0  0  0  0  0  0  0  0
   -2.5539   -0.4171    0.0000 C   0  0  0  0  0  0  0  0  0
   -3.2684   -0.0046    0.0000 C   0  0  0  0  0  0  0  0  0
   -3.9828   -0.4171    0.0000 C   0  0  0  0  0  0  0  0  0
   -4.6973   -0.0046    0.0000 C   0  0  0  0  0  0  0  0  0
   -5.4118   -0.4171    0.0000 C   0  0  0  0  0  0  0  0  0
   -6.1262   -0.0046    0.0000 C   0  0  0  0  0  0  0  0  0
   -6.1262    0.8204    0.0000 C   0  0  0  0  0  0  0  0  0
   -5.4118    1.2329    0.0000 C   0  0  0  0  0  0  0  0  0
   -4.6973    0.8204    0.0000 C   0  0  0  0  0  0  0  0  0
   -1.1249   -0.4171    0.0000 C   0  0  0  0  0  0  0  0  0
   -0.4105   -0.0046    0.0000 C   0  0  0  0  0  0  0  0  0
    0.3040   -0.4171    0.0000 C   0  0  0  0  0  0  0  0  0
    1.0185   -0.0046    0.0000 N   0  0  0  0  0  0  0  0  0
    1.7329   -0.4171    0.0000 C   0  0  0  0  0  0  0  0  0
    2.4474   -0.0046    0.0000 C   0  0  0  0  0  0  0  0  0
    2.4474    0.8204    0.0000 C   0  0  0  0  0  0  0  0  0
    3.1619    1.2329    0.0000 C   0  0  0  0  0  0  0  0  0
    3.8763    0.8204    0.0000 C   0  0  0  0  0  0  0  0  0
    3.8763   -0.0046    0.0000 C   0  0  0  0  0  0  0  0  0
    3.1619   -0.4171    0.0000 C   0  0  0  0  0  0  0  0  0
    1.7329    1.2329    0.0000 C   0  0  0  0  0  0  0  0  0
    1.0185    0.8204    0.0000 C   0  0  0  0  0  0  0  0  0
  1  2  1  0  0  0  0
  1 11  1  0  0  0  0
  2  3  1  0  0  0  0
  3  4  1  0  0  0  0
  4  5  1  0  0  0  0
  5  6  4  0  0  0  0
  5 10  4  0  0  0  0
  6  7  4  0  0  0  0
  7  8  4  0  0  0  0
  8  9  4  0  0  0  0
  9 10  4  0  0  0  0
 11 12  1  0  0  0  0
 12 13  1  0  0  0  0
 13 14  1  0  0  0  0
 14 15  1  0  0  0  0
 14 23  1  0  0  0  0
 15 16  1  0  0  0  0
 16 17  1  0  0  0  0
 16 21  1  0  0  0  0
 17 18  1  0  0  0  0
 17 22  1  0  0  0  0
 18 19  1  0  0  0  0
 19 20  1  0  0  0  0
 20 21  1  0  0  0  0
 22 23  1  0  0  0  0
M  END
>  <Name_Molregno>
454443

>  <HISTAMINE H3>
6.41

$$$$
454444
  Marvin  02231216192D 0   1.00000     0.00000     0

 22 24  0  0  0  0  0  0  0  0999 V2000
    3.0674    5.4692    0.0000 Cl  0  0  0  0  0  0  0  0  0
    3.0674    4.6442    0.0000 C   0  0  0  0  0  0  0  0  0
    3.7818    4.2317    0.0000 C   0  0  0  0  0  0  0  0  0
    3.7818    3.4067    0.0000 C   0  0  0  0  0  0  0  0  0
    4.4963    2.9942    0.0000 O   0  0  0  0  0  0  0  0  0
    4.4963    2.1692    0.0000 C   0  0  0  0  0  0  0  0  0
    5.2108    1.7567    0.0000 C   0  0  0  0  0  0  0  0  0
    5.2108    0.9317    0.0000 N   0  0  0  0  0  0  0  0  0
    5.9253    0.5192    0.0000 C   0  0  0  0  0  0  0  0  0
    5.9253   -0.3058    0.0000 C   0  0  0  0  0  0  0  0  0
    5.2108   -0.7183    0.0000 C   0  0  0  0  0  0  0  0  0
    5.2108   -1.5433    0.0000 N   0  0  0  0  0  0  0  0  0
    5.9253   -1.9558    0.0000 C   0  0  0  0  0  0  0  0  0
    5.9253   -2.7808    0.0000 C   0  0  0  0  0  0  0  0  0
    5.2108   -3.1933    0.0000 C   0  0  0  0  0  0  0  0  0
    4.4963   -2.7808    0.0000 C   0  0  0  0  0  0  0  0  0
    4.4963   -1.9558    0.0000 C   0  0  0  0  0  0  0  0  0
    4.4963   -0.3058    0.0000 C   0  0  0  0  0  0  0  0  0
    4.4963    0.5192    0.0000 C   0  0  0  0  0  0  0  0  0
    3.0674    2.9942    0.0000 C   0  0  0  0  0  0  0  0  0
    2.3529    3.4067    0.0000 C   0  0  0  0  0  0  0  0  0
    2.3529    4.2317    0.0000 C   0  0  0  0  0  0  0  0  0
  1  2  1  0  0  0  0
  2  3  4  0  0  0  0
  2 22  4  0  0  0  0
  3  4  4  0  0  0  0
  4  5  1  0  0  0  0
  4 20  4  0  0  0  0
  5  6  1  0  0  0  0
  6  7  1  0  0  0  0
  7  8  1  0  0  0  0
  8  9  1  0  0  0  0
  8 19  1  0  0  0  0
  9 10  1  0  0  0  0
 10 11  1  0  0  0  0
 11 12  1  0  0  0  0
 11 18  1  0  0  0  0
 12 13  1  0  0  0  0
 12 17  1  0  0  0  0
 13 14  1  0  0  0  0
 14 15  1  0  0  0  0
 15 16  1  0  0  0  0
 16 17  1  0  0  0  0
 18 19  1  0  0  0  0
 20 21  4  0  0  0  0
 21 22  4  0  0  0  0
M  END
>  <Name_Molregno>
454444

>  <HISTAMINE H3>
6.63

$$$$
454503
  Marvin  02231216192D 0   1.00000     0.00000     0

 23 25  0  0  0  0  0  0  0  0999 V2000
    1.6838    1.6587    0.0000 O   0  0  0  0  0  0  0  0  0
    1.6838    0.8337    0.0000 C   0  0  0  0  0  0  0  0  0
    0.9693    0.4212    0.0000 C   0  0  0  0  0  0  0  0  0
    0.9693   -0.4038    0.0000 N   0  0  0  0  0  0  0  0  0
    1.6838   -0.8163    0.0000 C   0  0  0  0  0  0  0  0  0
    1.6838   -1.6413    0.0000 C   0  0  0  0  0  0  0  0  0
    0.9693   -2.0538    0.0000 C   0  0  0  0  0  0  0  0  0
    0.9693   -2.8788    0.0000 N   0  0  0  0  0  0  0  0  0
    1.6838   -3.2913    0.0000 C   0  0  0  0  0  0  0  0  0
    1.6838   -4.1163    0.0000 C   0  0  0  0  0  0  0  0  0
    0.9693   -4.5288    0.0000 C   0  0  0  0  0  0  0  0  0
    0.2548   -4.1163    0.0000 C   0  0  0  0  0  0  0  0  0
    0.2548   -3.2913    0.0000 C   0  0  0  0  0  0  0  0  0
    0.2548   -1.6413    0.0000 C   0  0  0  0  0  0  0  0  0
    0.2548   -0.8163    0.0000 C   0  0  0  0  0  0  0  0  0
    2.3982    2.0712    0.0000 C   0  0  0  0  0  0  0  0  0
    2.3982    2.8962    0.0000 C   0  0  0  0  0  0  0  0  0
    3.1127    3.3087    0.0000 C   0  0  0  0  0  0  0  0  0
    3.1127    4.1337    0.0000 O   0  0  0  0  0  0  0  0  0
    2.3982    4.5462    0.0000 C   0  0  0  0  0  0  0  0  0
    3.8272    2.8962    0.0000 C   0  0  0  0  0  0  0  0  0
    3.8272    2.0712    0.0000 C   0  0  0  0  0  0  0  0  0
    3.1127    1.6587    0.0000 C   0  0  0  0  0  0  0  0  0
  1  2  1  0  0  0  0
  1 16  1  0  0  0  0
  2  3  1  0  0  0  0
  3  4  1  0  0  0  0
  4  5  1  0  0  0  0
  4 15  1  0  0  0  0
  5  6  1  0  0  0  0
  6  7  1  0  0  0  0
  7  8  1  0  0  0  0
  7 14  1  0  0  0  0
  8  9  1  0  0  0  0
  8 13  1  0  0  0  0
  9 10  1  0  0  0  0
 10 11  1  0  0  0  0
 11 12  1  0  0  0  0
 12 13  1  0  0  0  0
 14 15  1  0  0  0  0
 16 17  4  0  0  0  0
 16 23  4  0  0  0  0
 17 18  4  0  0  0  0
 18 19  1  0  0  0  0
 18 21  4  0  0  0  0
 19 20  1  0  0  0  0
 21 22  4  0  0  0  0
 22 23  4  0  0  0  0
M  END
>  <Name_Molregno>
454503

>  <HISTAMINE H3>
6.88

$$$$
454504
  Marvin  02231216192D 0   1.00000     0.00000     0

 24 26  0  0  0  0  0  0  0  0999 V2000
   -3.7330    0.5532    0.0000 O   0  0  0  0  0  0  0  0  0
   -3.0185    0.9657    0.0000 C   0  0  0  0  0  0  0  0  0
   -2.3040    0.5532    0.0000 C   0  0  0  0  0  0  0  0  0
   -1.5896    0.9657    0.0000 C   0  0  0  0  0  0  0  0  0
   -0.8751    0.5532    0.0000 N   0  0  0  0  0  0  0  0  0
   -0.1606    0.9657    0.0000 C   0  0  0  0  0  0  0  0  0
    0.5538    0.5532    0.0000 C   0  0  0  0  0  0  0  0  0
    0.5538   -0.2718    0.0000 C   0  0  0  0  0  0  0  0  0
    1.2683   -0.6843    0.0000 N   0  0  0  0  0  0  0  0  0
    1.9828   -0.2718    0.0000 C   0  0  0  0  0  0  0  0  0
    2.6973   -0.6843    0.0000 C   0  0  0  0  0  0  0  0  0
    2.6973   -1.5093    0.0000 C   0  0  0  0  0  0  0  0  0
    1.9828   -1.9218    0.0000 C   0  0  0  0  0  0  0  0  0
    1.2683   -1.5093    0.0000 C   0  0  0  0  0  0  0  0  0
   -0.1606   -0.6843    0.0000 C   0  0  0  0  0  0  0  0  0
   -0.8751   -0.2718    0.0000 C   0  0  0  0  0  0  0  0  0
   -4.4475    0.9657    0.0000 C   0  0  0  0  0  0  0  0  0
   -5.1619    0.5532    0.0000 C   0  0  0  0  0  0  0  0  0
   -5.8764    0.9657    0.0000 C   0  0  0  0  0  0  0  0  0
   -6.5909    0.5532    0.0000 O   0  0  0  0  0  0  0  0  0
   -6.5909   -0.2718    0.0000 C   0  0  0  0  0  0  0  0  0
   -5.8764    1.7907    0.0000 C   0  0  0  0  0  0  0  0  0
   -5.1619    2.2032    0.0000 C   0  0  0  0  0  0  0  0  0
   -4.4475    1.7907    0.0000 C   0  0  0  0  0  0  0  0  0
  1  2  1  0  0  0  0
  1 17  1  0  0  0  0
  2  3  1  0  0  0  0
  3  4  1  0  0  0  0
  4  5  1  0  0  0  0
  5  6  1  0  0  0  0
  5 16  1  0  0  0  0
  6  7  1  0  0  0  0
  7  8  1  0  0  0  0
  8  9  1  0  0  0  0
  8 15  1  0  0  0  0
  9 10  1  0  0  0  0
  9 14  1  0  0  0  0
 10 11  1  0  0  0  0
 11 12  1  0  0  0  0
 12 13  1  0  0  0  0
 13 14  1  0  0  0  0
 15 16  1  0  0  0  0
 17 18  4  0  0  0  0
 17 24  4  0  0  0  0
 18 19  4  0  0  0  0
 19 20  1  0  0  0  0
 19 22  4  0  0  0  0
 20 21  1  0  0  0  0
 22 23  4  0  0  0  0
 23 24  4  0  0  0  0
M  END
>  <Name_Molregno>
454504

>  <HISTAMINE H3>
5

$$$$
454505
  Marvin  02231216192D 0   1.00000     0.00000     0

 25 27  0  0  0  0  0  0  0  0999 V2000
    3.5210    5.1180    0.0000 F   0  0  0  0  0  0  0  0  0
    3.5210    4.2930    0.0000 C   0  0  0  0  0  0  0  0  0
    2.6960    4.2930    0.0000 F   0  0  0  0  0  0  0  0  0
    4.3460    4.2930    0.0000 F   0  0  0  0  0  0  0  0  0
    3.5210    3.4680    0.0000 C   0  0  0  0  0  0  0  0  0
    4.2355    3.0555    0.0000 C   0  0  0  0  0  0  0  0  0
    4.2355    2.2305    0.0000 C   0  0  0  0  0  0  0  0  0
    4.9500    1.8180    0.0000 O   0  0  0  0  0  0  0  0  0
    4.9500    0.9930    0.0000 C   0  0  0  0  0  0  0  0  0
    5.6644    0.5805    0.0000 C   0  0  0  0  0  0  0  0  0
    5.6644   -0.2445    0.0000 N   0  0  0  0  0  0  0  0  0
    6.3789   -0.6570    0.0000 C   0  0  0  0  0  0  0  0  0
    6.3789   -1.4820    0.0000 C   0  0  0  0  0  0  0  0  0
    5.6644   -1.8945    0.0000 C   0  0  0  0  0  0  0  0  0
    5.6644   -2.7195    0.0000 N   0  0  0  0  0  0  0  0  0
    6.3789   -3.1320    0.0000 C   0  0  0  0  0  0  0  0  0
    6.3789   -3.9570    0.0000 C   0  0  0  0  0  0  0  0  0
    5.6644   -4.3695    0.0000 C   0  0  0  0  0  0  0  0  0
    4.9500   -3.9570    0.0000 C   0  0  0  0  0  0  0  0  0
    4.9500   -3.1320    0.0000 C   0  0  0  0  0  0  0  0  0
    4.9500   -1.4820    0.0000 C   0  0  0  0  0  0  0  0  0
    4.9500   -0.6570    0.0000 C   0  0  0  0  0  0  0  0  0
    3.5210    1.8180    0.0000 C   0  0  0  0  0  0  0  0  0
    2.8066    2.2305    0.0000 C   0  0  0  0  0  0  0  0  0
    2.8066    3.0555    0.0000 C   0  0  0  0  0  0  0  0  0
  1  2  1  0  0  0  0
  2  3  1  0  0  0  0
  2  4  1  0  0  0  0
  2  5  1  0  0  0  0
  5  6  4  0  0  0  0
  5 25  4  0  0  0  0
  6  7  4  0  0  0  0
  7  8  1  0  0  0  0
  7 23  4  0  0  0  0
  8  9  1  0  0  0  0
  9 10  1  0  0  0  0
 10 11  1  0  0  0  0
 11 12  1  0  0  0  0
 11 22  1  0  0  0  0
 12 13  1  0  0  0  0
 13 14  1  0  0  0  0
 14 15  1  0  0  0  0
 14 21  1  0  0  0  0
 15 16  1  0  0  0  0
 15 20  1  0  0  0  0
 16 17  1  0  0  0  0
 17 18  1  0  0  0  0
 18 19  1  0  0  0  0
 19 20  1  0  0  0  0
 21 22  1  0  0  0  0
 23 24  4  0  0  0  0
 24 25  4  0  0  0  0
M  END
>  <Name_Molregno>
454505

>  <HISTAMINE H3>
6.79

$$$$
454506
  Marvin  02231216192D 0   1.00000     0.00000     0

 22 24  0  0  0  0  0  0  0  0999 V2000
    1.8925    1.9333    0.0000 O   0  0  0  0  0  0  0  0  0
    1.8925    1.1083    0.0000 C   0  0  0  0  0  0  0  0  0
    1.1780    0.6958    0.0000 C   0  0  0  0  0  0  0  0  0
    1.1780   -0.1292    0.0000 N   0  0  0  0  0  0  0  0  0
    1.8925   -0.5417    0.0000 C   0  0  0  0  0  0  0  0  0
    1.8925   -1.3667    0.0000 C   0  0  0  0  0  0  0  0  0
    1.1780   -1.7792    0.0000 C   0  0  0  0  0  0  0  0  0
    1.1780   -2.6042    0.0000 N   0  0  0  0  0  0  0  0  0
    1.8925   -3.0167    0.0000 C   0  0  0  0  0  0  0  0  0
    1.8925   -3.8417    0.0000 C   0  0  0  0  0  0  0  0  0
    1.1780   -4.2542    0.0000 C   0  0  0  0  0  0  0  0  0
    0.4636   -3.8417    0.0000 C   0  0  0  0  0  0  0  0  0
    0.4636   -3.0167    0.0000 C   0  0  0  0  0  0  0  0  0
    0.4636   -1.3667    0.0000 C   0  0  0  0  0  0  0  0  0
    0.4636   -0.5417    0.0000 C   0  0  0  0  0  0  0  0  0
    2.6070    2.3458    0.0000 C   0  0  0  0  0  0  0  0  0
    2.6070    3.1708    0.0000 C   0  0  0  0  0  0  0  0  0
    3.3214    3.5833    0.0000 C   0  0  0  0  0  0  0  0  0
    4.0359    3.1708    0.0000 C   0  0  0  0  0  0  0  0  0
    4.0359    2.3458    0.0000 C   0  0  0  0  0  0  0  0  0
    3.3214    1.9333    0.0000 C   0  0  0  0  0  0  0  0  0
    4.7504    3.5833    0.0000 C   0  0  0  0  0  0  0  0  0
  1  2  1  0  0  0  0
  1 16  1  0  0  0  0
  2  3  1  0  0  0  0
  3  4  1  0  0  0  0
  4  5  1  0  0  0  0
  4 15  1  0  0  0  0
  5  6  1  0  0  0  0
  6  7  1  0  0  0  0
  7  8  1  0  0  0  0
  7 14  1  0  0  0  0
  8  9  1  0  0  0  0
  8 13  1  0  0  0  0
  9 10  1  0  0  0  0
 10 11  1  0  0  0  0
 11 12  1  0  0  0  0
 12 13  1  0  0  0  0
 14 15  1  0  0  0  0
 16 17  4  0  0  0  0
 16 21  4  0  0  0  0
 17 18  4  0  0  0  0
 18 19  4  0  0  0  0
 19 20  4  0  0  0  0
 19 22  1  0  0  0  0
 20 21  4  0  0  0  0
M  END
>  <Name_Molregno>
454506

>  <HISTAMINE H3>
6.52

$$$$
454507
  Marvin  02231216192D 0   1.00000     0.00000     0

 22 24  0  0  0  0  0  0  0  0999 V2000
    6.2828    3.7426    0.0000 Cl  0  0  0  0  0  0  0  0  0
    6.2828    2.9176    0.0000 C   0  0  0  0  0  0  0  0  0
    6.9973    2.5051    0.0000 C   0  0  0  0  0  0  0  0  0
    6.9973    1.6801    0.0000 C   0  0  0  0  0  0  0  0  0
    6.2828    1.2676    0.0000 C   0  0  0  0  0  0  0  0  0
    6.2828    0.4426    0.0000 O   0  0  0  0  0  0  0  0  0
    5.5684    0.0301    0.0000 C   0  0  0  0  0  0  0  0  0
    5.5684   -0.7949    0.0000 C   0  0  0  0  0  0  0  0  0
    4.8539   -1.2074    0.0000 N   0  0  0  0  0  0  0  0  0
    4.8539   -2.0324    0.0000 C   0  0  0  0  0  0  0  0  0
    4.1394   -2.4449    0.0000 C   0  0  0  0  0  0  0  0  0
    3.4249   -2.0324    0.0000 C   0  0  0  0  0  0  0  0  0
    2.7105   -2.4449    0.0000 N   0  0  0  0  0  0  0  0  0
    2.7105   -3.2699    0.0000 C   0  0  0  0  0  0  0  0  0
    1.9960   -3.6824    0.0000 C   0  0  0  0  0  0  0  0  0
    1.2815   -3.2699    0.0000 C   0  0  0  0  0  0  0  0  0
    1.2815   -2.4449    0.0000 C   0  0  0  0  0  0  0  0  0
    1.9960   -2.0324    0.0000 C   0  0  0  0  0  0  0  0  0
    3.4249   -1.2074    0.0000 C   0  0  0  0  0  0  0  0  0
    4.1394   -0.7949    0.0000 C   0  0  0  0  0  0  0  0  0
    5.5684    1.6801    0.0000 C   0  0  0  0  0  0  0  0  0
    5.5684    2.5051    0.0000 C   0  0  0  0  0  0  0  0  0
  1  2  1  0  0  0  0
  2  3  4  0  0  0  0
  2 22  4  0  0  0  0
  3  4  4  0  0  0  0
  4  5  4  0  0  0  0
  5  6  1  0  0  0  0
  5 21  4  0  0  0  0
  6  7  1  0  0  0  0
  7  8  1  0  0  0  0
  8  9  1  0  0  0  0
  9 10  1  0  0  0  0
  9 20  1  0  0  0  0
 10 11  1  0  0  0  0
 11 12  1  0  0  0  0
 12 13  1  0  0  0  0
 12 19  1  0  0  0  0
 13 14  1  0  0  0  0
 13 18  1  0  0  0  0
 14 15  1  0  0  0  0
 15 16  1  0  0  0  0
 16 17  1  0  0  0  0
 17 18  1  0  0  0  0
 19 20  1  0  0  0  0
 21 22  4  0  0  0  0
M  END
>  <Name_Molregno>
454507

>  <HISTAMINE H3>
6.75

$$$$
454508
  Marvin  02231216192D 0   1.00000     0.00000     0

 23 25  0  0  0  0  0  0  0  0999 V2000
    0.1232    2.7568    0.0000 Cl  0  0  0  0  0  0  0  0  0
    0.8376    2.3443    0.0000 C   0  0  0  0  0  0  0  0  0
    1.5521    2.7568    0.0000 C   0  0  0  0  0  0  0  0  0
    2.2666    2.3443    0.0000 C   0  0  0  0  0  0  0  0  0
    2.2666    1.5193    0.0000 C   0  0  0  0  0  0  0  0  0
    2.9811    1.1068    0.0000 O   0  0  0  0  0  0  0  0  0
    3.6955    1.5193    0.0000 C   0  0  0  0  0  0  0  0  0
    4.4100    1.1068    0.0000 C   0  0  0  0  0  0  0  0  0
    5.1245    1.5193    0.0000 C   0  0  0  0  0  0  0  0  0
    5.8389    1.1068    0.0000 N   0  0  0  0  0  0  0  0  0
    6.5534    1.5193    0.0000 C   0  0  0  0  0  0  0  0  0
    7.2679    1.1068    0.0000 C   0  0  0  0  0  0  0  0  0
    7.2679    0.2818    0.0000 C   0  0  0  0  0  0  0  0  0
    7.9824   -0.1307    0.0000 N   0  0  0  0  0  0  0  0  0
    8.6968    0.2818    0.0000 C   0  0  0  0  0  0  0  0  0
    9.4113   -0.1307    0.0000 C   0  0  0  0  0  0  0  0  0
    9.4113   -0.9557    0.0000 C   0  0  0  0  0  0  0  0  0
    8.6968   -1.3682    0.0000 C   0  0  0  0  0  0  0  0  0
    7.9824   -0.9557    0.0000 C   0  0  0  0  0  0  0  0  0
    6.5534   -0.1307    0.0000 C   0  0  0  0  0  0  0  0  0
    5.8389    0.2818    0.0000 C   0  0  0  0  0  0  0  0  0
    1.5521    1.1068    0.0000 C   0  0  0  0  0  0  0  0  0
    0.8376    1.5193    0.0000 C   0  0  0  0  0  0  0  0  0
  1  2  1  0  0  0  0
  2  3  4  0  0  0  0
  2 23  4  0  0  0  0
  3  4  4  0  0  0  0
  4  5  4  0  0  0  0
  5  6  1  0  0  0  0
  5 22  4  0  0  0  0
  6  7  1  0  0  0  0
  7  8  1  0  0  0  0
  8  9  1  0  0  0  0
  9 10  1  0  0  0  0
 10 11  1  0  0  0  0
 10 21  1  0  0  0  0
 11 12  1  0  0  0  0
 12 13  1  0  0  0  0
 13 14  1  0  0  0  0
 13 20  1  0  0  0  0
 14 15  1  0  0  0  0
 14 19  1  0  0  0  0
 15 16  1  0  0  0  0
 16 17  1  0  0  0  0
 17 18  1  0  0  0  0
 18 19  1  0  0  0  0
 20 21  1  0  0  0  0
 22 23  4  0  0  0  0
M  END
>  <Name_Molregno>
454508

>  <HISTAMINE H3>
6.78

$$$$
454568
  Marvin  02231216192D 0   1.00000     0.00000     0

 26 28  0  0  0  0  0  0  0  0999 V2000
   -0.2463   -0.7689    0.0000 O   0  0  0  0  0  0  0  0  0
    0.4681   -0.3564    0.0000 C   0  0  0  0  0  0  0  0  0
    1.1826   -0.7689    0.0000 C   0  0  0  0  0  0  0  0  0
    1.8971   -0.3564    0.0000 C   0  0  0  0  0  0  0  0  0
    2.6116   -0.7689    0.0000 N   0  0  0  0  0  0  0  0  0
    3.3260   -0.3564    0.0000 C   0  0  0  0  0  0  0  0  0
    4.0405   -0.7689    0.0000 C   0  0  0  0  0  0  0  0  0
    4.0405   -1.5939    0.0000 C   0  0  0  0  0  0  0  0  0
    4.7550   -2.0064    0.0000 N   0  0  0  0  0  0  0  0  0
    5.4694   -1.5939    0.0000 C   0  0  0  0  0  0  0  0  0
    6.1839   -2.0064    0.0000 C   0  0  0  0  0  0  0  0  0
    6.1839   -2.8314    0.0000 C   0  0  0  0  0  0  0  0  0
    5.4694   -3.2439    0.0000 C   0  0  0  0  0  0  0  0  0
    4.7550   -2.8314    0.0000 C   0  0  0  0  0  0  0  0  0
    3.3260   -2.0064    0.0000 C   0  0  0  0  0  0  0  0  0
    2.6116   -1.5939    0.0000 C   0  0  0  0  0  0  0  0  0
   -0.9608   -0.3564    0.0000 C   0  0  0  0  0  0  0  0  0
   -1.6753   -0.7689    0.0000 C   0  0  0  0  0  0  0  0  0
   -2.3897   -0.3564    0.0000 C   0  0  0  0  0  0  0  0  0
   -2.3897    0.4686    0.0000 C   0  0  0  0  0  0  0  0  0
   -1.6753    0.8811    0.0000 C   0  0  0  0  0  0  0  0  0
   -0.9608    0.4686    0.0000 C   0  0  0  0  0  0  0  0  0
   -3.1042    0.8811    0.0000 C   0  0  0  0  0  0  0  0  0
   -3.8187    1.2936    0.0000 C   0  0  0  0  0  0  0  0  0
   -2.6917    1.5956    0.0000 C   0  0  0  0  0  0  0  0  0
   -3.5167    0.1666    0.0000 C   0  0  0  0  0  0  0  0  0
  1  2  1  0  0  0  0
  1 17  1  0  0  0  0
  2  3  1  0  0  0  0
  3  4  1  0  0  0  0
  4  5  1  0  0  0  0
  5  6  1  0  0  0  0
  5 16  1  0  0  0  0
  6  7  1  0  0  0  0
  7  8  1  0  0  0  0
  8  9  1  0  0  0  0
  8 15  1  0  0  0  0
  9 10  1  0  0  0  0
  9 14  1  0  0  0  0
 10 11  1  0  0  0  0
 11 12  1  0  0  0  0
 12 13  1  0  0  0  0
 13 14  1  0  0  0  0
 15 16  1  0  0  0  0
 17 18  4  0  0  0  0
 17 22  4  0  0  0  0
 18 19  4  0  0  0  0
 19 20  4  0  0  0  0
 20 21  4  0  0  0  0
 20 23  1  0  0  0  0
 21 22  4  0  0  0  0
 23 24  1  0  0  0  0
 23 25  1  0  0  0  0
 23 26  1  0  0  0  0
M  END
>  <Name_Molregno>
454568

>  <HISTAMINE H3>
7

$$$$
468948
  Marvin  02231216192D 0   1.00000     0.00000     0

 24 27  0  0  1  0  0  0  0  0999 V2000
   -1.7508   -1.7307    0.0000 N   0  0  0  0  0  0  0  0  0
   -1.0363   -2.1432    0.0000 C   0  0  0  0  0  0  0  0  0
   -1.0363   -2.9682    0.0000 N   0  0  0  0  0  0  0  0  0
   -0.3218   -3.3807    0.0000 C   0  0  0  0  0  0  0  0  0
   -0.3218   -4.2057    0.0000 C   0  0  0  0  0  0  0  0  0
   -1.0363   -4.6182    0.0000 N   0  0  0  0  0  0  0  0  0
   -1.7508   -4.2057    0.0000 C   0  0  0  0  0  0  0  0  0
   -1.7508   -3.3807    0.0000 C   0  0  0  0  0  0  0  0  0
   -0.3218   -1.7307    0.0000 C   0  0  0  0  0  0  0  0  0
   -0.3218   -0.9057    0.0000 C   0  0  0  0  0  0  0  0  0
   -1.0363   -0.4932    0.0000 N   0  0  0  0  0  0  0  0  0
   -1.7508   -0.9057    0.0000 C   0  0  0  0  0  0  0  0  0
   -2.4652   -0.4932    0.0000 N   0  0  0  0  0  0  0  0  0
    0.3232   -0.3914    0.0000 C   0  0  0  0  0  0  0  0  0
    1.1275   -0.5749    0.0000 C   0  0  0  0  0  0  0  0  0
    1.4854   -1.3182    0.0000 C   0  0  0  0  0  0  0  0  0
    1.1275   -2.0615    0.0000 C   0  0  0  0  0  0  0  0  0
    0.3232   -2.2451    0.0000 C   0  0  0  0  0  0  0  0  0
    0.1396    0.4130    0.0000 C   0  0  0  0  0  0  0  0  0
   -0.6488    0.6561    0.0000 C   0  0  0  0  0  0  0  0  0
   -0.8323    1.4605    0.0000 C   0  0  0  0  0  0  0  0  0
   -0.2276    2.0216    0.0000 C   0  0  0  0  0  0  0  0  0
    0.5608    1.7784    0.0000 C   0  0  0  0  0  0  0  0  0
    0.7444    0.9741    0.0000 C   0  0  0  0  0  0  0  0  0
  1  2  4  0  0  0  0
  1 12  4  0  0  0  0
  2  3  1  0  0  0  0
  2  9  4  0  0  0  0
  3  4  1  0  0  0  0
  3  8  1  0  0  0  0
  4  5  1  0  0  0  0
  5  6  1  0  0  0  0
  6  7  1  0  0  0  0
  7  8  1  0  0  0  0
  9 10  4  0  0  0  0
  9 18  1  0  0  0  0
 10 11  4  0  0  0  0
 10 14  1  0  0  0  0
 11 12  4  0  0  0  0
 12 13  1  0  0  0  0
 14 15  1  0  0  0  0
 14 19  1  0  0  0  0
 15 16  1  0  0  0  0
 16 17  1  0  0  0  0
 17 18  1  0  0  0  0
 19 20  4  0  0  0  0
 19 24  4  0  0  0  0
 20 21  4  0  0  0  0
 21 22  4  0  0  0  0
 22 23  4  0  0  0  0
 23 24  4  0  0  0  0
M  END
>  <Name_Molregno>
468948

>  <HISTAMINE H3>
5.65

>  <HISTAMINE H4>
7.4

$$$$
469398
  Marvin  02231216192D 0   1.00000     0.00000     0

 22 24  0  0  0  0  0  0  0  0999 V2000
    0.3240    2.6735    0.0000 N   0  0  0  0  0  0  0  0  0
    0.3240    1.8485    0.0000 C   0  0  0  0  0  0  0  0  0
   -0.3904    1.4360    0.0000 C   0  0  0  0  0  0  0  0  0
   -1.1049    1.8485    0.0000 C   0  0  0  0  0  0  0  0  0
   -1.1049    2.6735    0.0000 N   0  0  0  0  0  0  0  0  0
   -0.3904    3.0860    0.0000 C   0  0  0  0  0  0  0  0  0
   -0.3904    3.9110    0.0000 N   0  0  0  0  0  0  0  0  0
   -1.8194    1.4360    0.0000 N   0  0  0  0  0  0  0  0  0
   -1.8194    0.6110    0.0000 C   0  0  0  0  0  0  0  0  0
   -2.5339    0.1985    0.0000 C   0  0  0  0  0  0  0  0  0
   -3.2483    0.6110    0.0000 N   0  0  0  0  0  0  0  0  0
   -3.2483    1.4360    0.0000 C   0  0  0  0  0  0  0  0  0
   -2.5339    1.8485    0.0000 C   0  0  0  0  0  0  0  0  0
   -3.9628    0.1985    0.0000 C   0  0  0  0  0  0  0  0  0
    1.0385    1.4360    0.0000 C   0  0  0  0  0  0  0  0  0
    1.7530    1.8485    0.0000 C   0  0  0  0  0  0  0  0  0
    2.4674    1.4360    0.0000 C   0  0  0  0  0  0  0  0  0
    2.4674    0.6110    0.0000 C   0  0  0  0  0  0  0  0  0
    1.7530    0.1985    0.0000 C   0  0  0  0  0  0  0  0  0
    1.0385    0.6110    0.0000 C   0  0  0  0  0  0  0  0  0
    3.1819    0.1985    0.0000 C   0  0  0  0  0  0  0  0  0
    3.8964   -0.2140    0.0000 N   0  0  0  0  0  0  0  0  0
  1  2  4  0  0  0  0
  1  6  4  0  0  0  0
  2  3  4  0  0  0  0
  2 15  1  0  0  0  0
  3  4  4  0  0  0  0
  4  5  4  0  0  0  0
  4  8  1  0  0  0  0
  5  6  4  0  0  0  0
  6  7  1  0  0  0  0
  8  9  1  0  0  0  0
  8 13  1  0  0  0  0
  9 10  1  0  0  0  0
 10 11  1  0  0  0  0
 11 12  1  0  0  0  0
 11 14  1  0  0  0  0
 12 13  1  0  0  0  0
 15 16  4  0  0  0  0
 15 20  4  0  0  0  0
 16 17  4  0  0  0  0
 17 18  4  0  0  0  0
 18 19  4  0  0  0  0
 18 21  1  0  0  0  0
 19 20  4  0  0  0  0
 21 22  3  0  0  0  0
M  END
>  <Name_Molregno>
469398

>  <HISTAMINE H3>
5.89

>  <HISTAMINE H4>
7.46

$$$$
469480
  Marvin  02231216192D 0   1.00000     0.00000     0

 21 23  0  0  0  0  0  0  0  0999 V2000
    0.0071    2.4811    0.0000 N   0  0  0  0  0  0  0  0  0
    0.0071    1.6561    0.0000 C   0  0  0  0  0  0  0  0  0
   -0.7074    1.2436    0.0000 C   0  0  0  0  0  0  0  0  0
   -1.4219    1.6561    0.0000 C   0  0  0  0  0  0  0  0  0
   -1.4219    2.4811    0.0000 N   0  0  0  0  0  0  0  0  0
   -0.7074    2.8936    0.0000 C   0  0  0  0  0  0  0  0  0
   -0.7074    3.7186    0.0000 N   0  0  0  0  0  0  0  0  0
   -2.1364    1.2436    0.0000 N   0  0  0  0  0  0  0  0  0
   -2.1364    0.4186    0.0000 C   0  0  0  0  0  0  0  0  0
   -2.8508    0.0061    0.0000 C   0  0  0  0  0  0  0  0  0
   -3.5653    0.4186    0.0000 N   0  0  0  0  0  0  0  0  0
   -3.5653    1.2436    0.0000 C   0  0  0  0  0  0  0  0  0
   -2.8508    1.6561    0.0000 C   0  0  0  0  0  0  0  0  0
    0.7215    1.2436    0.0000 C   0  0  0  0  0  0  0  0  0
    1.4360    1.6561    0.0000 C   0  0  0  0  0  0  0  0  0
    2.1505    1.2436    0.0000 C   0  0  0  0  0  0  0  0  0
    2.1505    0.4186    0.0000 C   0  0  0  0  0  0  0  0  0
    1.4360    0.0061    0.0000 C   0  0  0  0  0  0  0  0  0
    0.7215    0.4186    0.0000 C   0  0  0  0  0  0  0  0  0
    2.8649    0.0061    0.0000 C   0  0  0  0  0  0  0  0  0
    3.5794   -0.4064    0.0000 N   0  0  0  0  0  0  0  0  0
  1  2  4  0  0  0  0
  1  6  4  0  0  0  0
  2  3  4  0  0  0  0
  2 14  1  0  0  0  0
  3  4  4  0  0  0  0
  4  5  4  0  0  0  0
  4  8  1  0  0  0  0
  5  6  4  0  0  0  0
  6  7  1  0  0  0  0
  8  9  1  0  0  0  0
  8 13  1  0  0  0  0
  9 10  1  0  0  0  0
 10 11  1  0  0  0  0
 11 12  1  0  0  0  0
 12 13  1  0  0  0  0
 14 15  4  0  0  0  0
 14 19  4  0  0  0  0
 15 16  4  0  0  0  0
 16 17  4  0  0  0  0
 17 18  4  0  0  0  0
 17 20  1  0  0  0  0
 18 19  4  0  0  0  0
 20 21  3  0  0  0  0
M  END
>  <Name_Molregno>
469480

>  <HISTAMINE H3>
6.03

>  <HISTAMINE H4>
7.38

$$$$
469986
  Marvin  02231216192D 0   1.00000     0.00000     0

 25 26  0  0  0  0  0  0  0  0999 V2000
    2.6874   -3.8378    0.0000 Br  0  0  0  0  0  0  0  0  0
    2.6874   -3.0128    0.0000 C   0  0  0  0  0  0  0  0  0
    1.9729   -2.6003    0.0000 C   0  0  0  0  0  0  0  0  0
    1.9729   -1.7753    0.0000 C   0  0  0  0  0  0  0  0  0
    2.6874   -1.3628    0.0000 C   0  0  0  0  0  0  0  0  0
    3.4019   -1.7753    0.0000 C   0  0  0  0  0  0  0  0  0
    3.4019   -2.6003    0.0000 C   0  0  0  0  0  0  0  0  0
    4.1163   -3.0128    0.0000 O   0  0  0  0  0  0  0  0  0
    4.8308   -2.6003    0.0000 C   0  0  0  0  0  0  0  0  0
    5.5453   -3.0128    0.0000 C   0  0  0  0  0  0  0  0  0
    6.2598   -2.6003    0.0000 C   0  0  0  0  0  0  0  0  0
    6.9742   -3.0128    0.0000 N   0  0  0  0  0  0  0  0  0
    7.6887   -2.6003    0.0000 C   0  0  0  0  0  0  0  0  0
    6.9742   -3.8378    0.0000 C   0  0  0  0  0  0  0  0  0
    1.2585   -1.3628    0.0000 C   0  0  0  0  0  0  0  0  0
    1.2585   -0.5378    0.0000 C   0  0  0  0  0  0  0  0  0
    0.5440   -0.1253    0.0000 N   0  0  0  0  0  0  0  0  0
    0.5440    0.6997    0.0000 C   0  0  0  0  0  0  0  0  0
    1.2585    1.1122    0.0000 O   0  0  0  0  0  0  0  0  0
   -0.1705    1.1122    0.0000 C   0  0  0  0  0  0  0  0  0
   -0.9242    0.7766    0.0000 N   0  0  0  0  0  0  0  0  0
   -1.4762    1.3897    0.0000 C   0  0  0  0  0  0  0  0  0
   -1.0637    2.1042    0.0000 C   0  0  0  0  0  0  0  0  0
   -1.3992    2.8578    0.0000 Br  0  0  0  0  0  0  0  0  0
   -0.2567    1.9326    0.0000 C   0  0  0  0  0  0  0  0  0
  1  2  1  0  0  0  0
  2  3  4  0  0  0  0
  2  7  4  0  0  0  0
  3  4  4  0  0  0  0
  4  5  4  0  0  0  0
  4 15  1  0  0  0  0
  5  6  4  0  0  0  0
  6  7  4  0  0  0  0
  7  8  1  0  0  0  0
  8  9  1  0  0  0  0
  9 10  1  0  0  0  0
 10 11  1  0  0  0  0
 11 12  1  0  0  0  0
 12 13  1  0  0  0  0
 12 14  1  0  0  0  0
 15 16  1  0  0  0  0
 16 17  1  0  0  0  0
 17 18  1  0  0  0  0
 18 19  2  0  0  0  0
 18 20  1  0  0  0  0
 20 21  4  0  0  0  0
 20 25  4  0  0  0  0
 21 22  4  0  0  0  0
 22 23  4  0  0  0  0
 23 24  1  0  0  0  0
 23 25  4  0  0  0  0
M  STY  1   1 DAT
M  SAL   1  1  21
M  SDT   1 MRV_IMPLICIT_H                                        
M  SDD   1     0.0000    0.0000    DR    ALL  0       0  
M  SED   1 IMPL_H1
M  END
>  <Name_Molregno>
469986

>  <Alpha-2A>
7.16

>  <HISTAMINE H3>
5.98

$$$$
470836
  Marvin  02231216192D 0   1.00000     0.00000     0

 33 36  0  0  0  0  0  0  0  0999 V2000
    0.2813   -0.6889    0.0000 Cl  0  0  0  0  0  0  0  0  0
    1.0290   -1.0375    0.0000 C   0  0  0  0  0  0  0  0  0
    1.7048   -0.5643    0.0000 C   0  0  0  0  0  0  0  0  0
    2.4525   -0.9130    0.0000 C   0  0  0  0  0  0  0  0  0
    2.5244   -1.7348    0.0000 C   0  0  0  0  0  0  0  0  0
    1.8486   -2.2080    0.0000 C   0  0  0  0  0  0  0  0  0
    1.1009   -1.8594    0.0000 C   0  0  0  0  0  0  0  0  0
    3.2721   -2.0835    0.0000 C   0  0  0  0  0  0  0  0  0
    2.7989   -2.7593    0.0000 O   0  0  0  0  0  0  0  0  0
    3.4856   -1.2866    0.0000 C   0  0  0  0  0  0  0  0  0
    4.2825   -1.0731    0.0000 C   0  0  0  0  0  0  0  0  0
    4.8659   -1.6564    0.0000 N   0  0  0  0  0  0  0  0  0
    4.6523   -2.4533    0.0000 C   0  0  0  0  0  0  0  0  0
    3.8555   -2.6669    0.0000 C   0  0  0  0  0  0  0  0  0
    5.6628   -1.4429    0.0000 C   0  0  0  0  0  0  0  0  0
    5.8763   -0.6460    0.0000 C   0  0  0  0  0  0  0  0  0
    6.6732   -0.4325    0.0000 C   0  0  0  0  0  0  0  0  0
    6.8867   -1.2294    0.0000 C   0  0  0  0  0  0  0  0  0
    6.3033   -1.8128    0.0000 O   0  0  0  0  0  0  0  0  0
    7.6836   -1.4429    0.0000 N   0  0  0  0  0  0  0  0  0
    7.8971   -2.2398    0.0000 C   0  0  0  0  0  0  0  0  0
    7.4701   -0.2190    0.0000 C   0  0  0  0  0  0  0  0  0
    7.6836    0.5779    0.0000 C   0  0  0  0  0  0  0  0  0
    8.4805    0.7914    0.0000 C   0  0  0  0  0  0  0  0  0
    9.0638    0.2081    0.0000 C   0  0  0  0  0  0  0  0  0
    8.8503   -0.5888    0.0000 C   0  0  0  0  0  0  0  0  0
    8.0534   -0.8023    0.0000 C   0  0  0  0  0  0  0  0  0
    6.4596    0.3644    0.0000 C   0  0  0  0  0  0  0  0  0
    5.6628    0.5779    0.0000 C   0  0  0  0  0  0  0  0  0
    5.4492    1.3748    0.0000 C   0  0  0  0  0  0  0  0  0
    6.0326    1.9582    0.0000 C   0  0  0  0  0  0  0  0  0
    6.8295    1.7446    0.0000 C   0  0  0  0  0  0  0  0  0
    7.0430    0.9477    0.0000 C   0  0  0  0  0  0  0  0  0
  1  2  1  0  0  0  0
  2  3  4  0  0  0  0
  2  7  4  0  0  0  0
  3  4  4  0  0  0  0
  4  5  4  0  0  0  0
  5  6  4  0  0  0  0
  5  8  1  0  0  0  0
  6  7  4  0  0  0  0
  8  9  1  0  0  0  0
  8 10  1  0  0  0  0
  8 14  1  0  0  0  0
 10 11  1  0  0  0  0
 11 12  1  0  0  0  0
 12 13  1  0  0  0  0
 12 15  1  0  0  0  0
 13 14  1  0  0  0  0
 15 16  1  0  0  0  0
 16 17  1  0  0  0  0
 17 18  1  0  0  0  0
 17 22  1  0  0  0  0
 17 28  1  0  0  0  0
 18 19  2  0  0  0  0
 18 20  1  0  0  0  0
 20 21  1  0  0  0  0
 22 23  4  0  0  0  0
 22 27  4  0  0  0  0
 23 24  4  0  0  0  0
 24 25  4  0  0  0  0
 25 26  4  0  0  0  0
 26 27  4  0  0  0  0
 28 29  4  0  0  0  0
 28 33  4  0  0  0  0
 29 30  4  0  0  0  0
 30 31  4  0  0  0  0
 31 32  4  0  0  0  0
 32 33  4  0  0  0  0
M  END
>  <Name_Molregno>
470836

>  <HISTAMINE H1>
8.38

>  <HISTAMINE H2>
8.77

>  <HISTAMINE H3>
8.03

>  <Serotonin transporter>
8.21

$$$$
470977
  Marvin  02231216192D 0   1.00000     0.00000     0

 32 35  0  0  1  0  0  0  0  0999 V2000
    3.7862    5.6117    0.0000 Cl  0  0  0  0  0  0  0  0  0
    3.7862    4.7867    0.0000 C   0  0  0  0  0  0  0  0  0
    4.5007    4.3742    0.0000 C   0  0  0  0  0  0  0  0  0
    4.5007    3.5492    0.0000 C   0  0  0  0  0  0  0  0  0
    3.7862    3.1367    0.0000 C   0  0  0  0  0  0  0  0  0
    3.0717    3.5492    0.0000 C   0  0  0  0  0  0  0  0  0
    3.0717    4.3742    0.0000 C   0  0  0  0  0  0  0  0  0
    3.7862    2.3117    0.0000 C   0  0  0  0  0  0  0  0  0
    4.4536    1.8268    0.0000 N   0  0  0  0  0  0  0  0  0
    4.1987    1.0422    0.0000 N   0  0  0  0  0  0  0  0  0
    3.3737    1.0422    0.0000 C   0  0  0  0  0  0  0  0  0
    3.1188    1.8268    0.0000 C   0  0  0  0  0  0  0  0  0
    2.3341    2.0817    0.0000 C   0  0  0  0  0  0  0  0  0
    1.7211    1.5297    0.0000 C   0  0  0  0  0  0  0  0  0
    0.9364    1.7846    0.0000 C   0  0  0  0  0  0  0  0  0
    0.7649    2.5916    0.0000 C   0  0  0  0  0  0  0  0  0
    1.3780    3.1436    0.0000 C   0  0  0  0  0  0  0  0  0
    2.1626    2.8887    0.0000 C   0  0  0  0  0  0  0  0  0
    4.6836    0.3747    0.0000 C   0  0  0  0  0  0  0  0  0
    5.5041    0.4610    0.0000 N   0  0  0  0  0  0  0  0  0
    5.9890   -0.2065    0.0000 S   0  0  0  0  0  0  0  0  0
    5.3216   -0.6914    0.0000 O   0  0  0  0  0  0  0  0  0
    6.6565    0.2785    0.0000 O   0  0  0  0  0  0  0  0  0
    6.4740   -0.8739    0.0000 C   0  0  0  0  0  0  0  0  0
    7.2944   -0.7877    0.0000 C   0  0  0  0  0  0  0  0  0
    7.7794   -1.4551    0.0000 C   0  0  0  0  0  0  0  0  0
    7.4438   -2.2088    0.0000 C   0  0  0  0  0  0  0  0  0
    6.6233   -2.2950    0.0000 C   0  0  0  0  0  0  0  0  0
    6.1384   -1.6276    0.0000 C   0  0  0  0  0  0  0  0  0
    7.9287   -2.8762    0.0000 C   0  0  0  0  0  0  0  0  0
    8.4136   -3.5437    0.0000 N   0  0  0  0  0  0  0  0  0
    4.3481   -0.3789    0.0000 N   0  0  0  0  0  0  0  0  0
  1  2  1  0  0  0  0
  2  3  4  0  0  0  0
  2  7  4  0  0  0  0
  3  4  4  0  0  0  0
  4  5  4  0  0  0  0
  5  6  4  0  0  0  0
  5  8  1  0  0  0  0
  6  7  4  0  0  0  0
  8  9  2  0  0  0  0
  8 12  1  0  0  0  0
  9 10  1  0  0  0  0
 10 11  1  0  0  0  0
 10 19  1  0  0  0  0
 11 12  1  0  0  0  0
 12 13  1  0  0  0  0
 13 14  4  0  0  0  0
 13 18  4  0  0  0  0
 14 15  4  0  0  0  0
 15 16  4  0  0  0  0
 16 17  4  0  0  0  0
 17 18  4  0  0  0  0
 19 20  2  0  0  0  0
 19 32  1  0  0  0  0
 20 21  1  0  0  0  0
 21 22  2  0  0  0  0
 21 23  2  0  0  0  0
 21 24  1  0  0  0  0
 24 25  4  0  0  0  0
 24 29  4  0  0  0  0
 25 26  4  0  0  0  0
 26 27  4  0  0  0  0
 27 28  4  0  0  0  0
 27 30  1  0  0  0  0
 28 29  4  0  0  0  0
 30 31  3  0  0  0  0
M  END
>  <Name_Molregno>
470977

>  <5-HT2A>
5.11

>  <HISTAMINE H2>
5

>  <HISTAMINE H3>
5

$$$$
473699
  Marvin  02231216192D 0   1.00000     0.00000     0

 22 23  0  0  1  0  0  0  0  0999 V2000
   -0.0612    0.7238    0.0000 Cl  0  0  0  0  0  0  0  0  0
    0.7593    0.6376    0.0000 C   0  0  0  0  0  0  0  0  0
    1.2442    1.3050    0.0000 C   0  0  0  0  0  0  0  0  0
    2.0647    1.2188    0.0000 C   0  0  0  0  0  0  0  0  0
    2.4003    0.4651    0.0000 C   0  0  0  0  0  0  0  0  0
    1.9154   -0.2023    0.0000 C   0  0  0  0  0  0  0  0  0
    1.0949   -0.1161    0.0000 C   0  0  0  0  0  0  0  0  0
    3.2208    0.3789    0.0000 C   0  0  0  0  0  0  0  0  0
    3.7057    1.0463    0.0000 O   0  0  0  0  0  0  0  0  0
    3.5563   -0.3748    0.0000 C   0  0  0  0  0  0  0  0  0
    4.3633   -0.5463    0.0000 N   0  0  0  0  0  0  0  0  0
    4.9764    0.0057    0.0000 C   0  0  0  0  0  0  0  0  0
    4.4495   -1.3668    0.0000 C   0  0  0  0  0  0  0  0  0
    5.1640   -1.7793    0.0000 S   0  0  0  0  0  0  0  0  0
    5.8785   -1.3668    0.0000 C   0  0  0  0  0  0  0  0  0
    6.5929   -1.7793    0.0000 C   0  0  0  0  0  0  0  0  0
    7.3074   -1.3668    0.0000 C   0  0  0  0  0  0  0  0  0
    8.0219   -1.7793    0.0000 N   0  0  0  0  0  0  0  0  0
    8.7364   -1.3668    0.0000 C   0  0  0  0  0  0  0  0  0
    8.0219   -2.6043    0.0000 C   0  0  0  0  0  0  0  0  0
    3.6959   -1.7024    0.0000 N   0  0  0  0  0  0  0  0  0
    3.1438   -1.0893    0.0000 C   0  0  0  0  0  0  0  0  0
  1  2  1  0  0  0  0
  2  3  4  0  0  0  0
  2  7  4  0  0  0  0
  3  4  4  0  0  0  0
  4  5  4  0  0  0  0
  5  6  4  0  0  0  0
  5  8  1  0  0  0  0
  6  7  4  0  0  0  0
  8  9  1  0  0  0  0
  8 10  1  0  0  0  0
 10 11  4  0  0  0  0
 10 22  4  0  0  0  0
 11 12  1  0  0  0  0
 11 13  4  0  0  0  0
 13 14  1  0  0  0  0
 13 21  4  0  0  0  0
 14 15  1  0  0  0  0
 15 16  1  0  0  0  0
 16 17  1  0  0  0  0
 17 18  1  0  0  0  0
 18 19  1  0  0  0  0
 18 20  1  0  0  0  0
 21 22  4  0  0  0  0
M  END
>  <Name_Molregno>
473699

>  <HISTAMINE H3>
7.74

$$$$
473700
  Marvin  02231216192D 0   1.00000     0.00000     0

 22 25  0  0  1  0  0  0  0  0999 V2000
    1.4009   -1.9892    0.0000 S   0  0  0  0  0  0  0  0  0
    1.6558   -1.2046    0.0000 C   0  0  0  0  0  0  0  0  0
    1.1038   -0.5915    0.0000 C   0  0  0  0  0  0  0  0  0
    1.3587    0.1931    0.0000 C   0  0  0  0  0  0  0  0  0
    2.1657    0.3646    0.0000 C   0  0  0  0  0  0  0  0  0
    2.7177   -0.2485    0.0000 C   0  0  0  0  0  0  0  0  0
    2.4628   -1.0331    0.0000 C   0  0  0  0  0  0  0  0  0
    2.4206    1.1492    0.0000 C   0  0  0  0  0  0  0  0  0
    3.2053    1.4042    0.0000 N   0  0  0  0  0  0  0  0  0
    3.2053    2.2292    0.0000 C   0  0  0  0  0  0  0  0  0
    2.4206    2.4841    0.0000 C   0  0  0  0  0  0  0  0  0
    1.9357    1.8167    0.0000 C   0  0  0  0  0  0  0  0  0
    3.9197    2.6417    0.0000 C   0  0  0  0  0  0  0  0  0
    4.6342    2.2292    0.0000 C   0  0  0  0  0  0  0  0  0
    4.6342    1.4042    0.0000 C   0  0  0  0  0  0  0  0  0
    3.9197    0.9917    0.0000 C   0  0  0  0  0  0  0  0  0
    0.5939   -2.1608    0.0000 C   0  0  0  0  0  0  0  0  0
    0.3390   -2.9454    0.0000 C   0  0  0  0  0  0  0  0  0
   -0.4680   -3.1169    0.0000 C   0  0  0  0  0  0  0  0  0
   -1.0200   -2.5038    0.0000 N   0  0  0  0  0  0  0  0  0
   -0.7651   -1.7192    0.0000 C   0  0  0  0  0  0  0  0  0
    0.0419   -1.5477    0.0000 C   0  0  0  0  0  0  0  0  0
  1  2  1  0  0  0  0
  1 17  1  0  0  0  0
  2  3  4  0  0  0  0
  2  7  4  0  0  0  0
  3  4  4  0  0  0  0
  4  5  4  0  0  0  0
  5  6  4  0  0  0  0
  5  8  1  0  0  0  0
  6  7  4  0  0  0  0
  8  9  1  0  0  0  0
  8 12  1  0  0  0  0
  9 10  1  0  0  0  0
  9 16  1  0  0  0  0
 10 11  1  0  0  0  0
 10 13  1  0  0  0  0
 11 12  1  0  0  0  0
 13 14  1  0  0  0  0
 14 15  1  0  0  0  0
 15 16  1  0  0  0  0
 17 18  4  0  0  0  0
 17 22  4  0  0  0  0
 18 19  4  0  0  0  0
 19 20  4  0  0  0  0
 20 21  4  0  0  0  0
 21 22  4  0  0  0  0
M  END
>  <Name_Molregno>
473700

>  <HISTAMINE H3>
7.92

$$$$
474537
  Marvin  02231216192D 0   1.00000     0.00000     0

 28 30  0  0  0  0  0  0  0  0999 V2000
    1.0304    1.0717    0.0000 O   0  0  0  0  0  0  0  0  0
    1.7449    1.4842    0.0000 C   0  0  0  0  0  0  0  0  0
    1.7449    2.3092    0.0000 C   0  0  0  0  0  0  0  0  0
    1.0304    2.7217    0.0000 C   0  0  0  0  0  0  0  0  0
    1.0304    3.5467    0.0000 C   0  0  0  0  0  0  0  0  0
    1.7449    3.9592    0.0000 N   0  0  0  0  0  0  0  0  0
    2.4594    3.5467    0.0000 C   0  0  0  0  0  0  0  0  0
    2.4594    2.7217    0.0000 C   0  0  0  0  0  0  0  0  0
    1.7449    4.7842    0.0000 C   0  0  0  0  0  0  0  0  0
    2.4594    5.1967    0.0000 C   0  0  0  0  0  0  0  0  0
    1.0304    5.1967    0.0000 C   0  0  0  0  0  0  0  0  0
    1.0304    0.2467    0.0000 C   0  0  0  0  0  0  0  0  0
    1.6978   -0.2382    0.0000 N   0  0  0  0  0  0  0  0  0
    1.4429   -1.0228    0.0000 C   0  0  0  0  0  0  0  0  0
    0.6179   -1.0228    0.0000 C   0  0  0  0  0  0  0  0  0
    0.3630   -0.2382    0.0000 N   0  0  0  0  0  0  0  0  0
   -0.4217    0.0167    0.0000 C   0  0  0  0  0  0  0  0  0
    0.1330   -1.6903    0.0000 C   0  0  0  0  0  0  0  0  0
   -0.6875   -1.6040    0.0000 O   0  0  0  0  0  0  0  0  0
    0.4685   -2.4440    0.0000 C   0  0  0  0  0  0  0  0  0
    1.2890   -2.5302    0.0000 C   0  0  0  0  0  0  0  0  0
    1.6246   -3.2839    0.0000 C   0  0  0  0  0  0  0  0  0
    1.1397   -3.9513    0.0000 C   0  0  0  0  0  0  0  0  0
    0.3192   -3.8651    0.0000 C   0  0  0  0  0  0  0  0  0
   -0.0164   -3.1114    0.0000 C   0  0  0  0  0  0  0  0  0
    1.4752   -4.7050    0.0000 C   0  0  0  0  0  0  0  0  0
    2.2957   -4.7912    0.0000 C   0  0  0  0  0  0  0  0  0
    0.9903   -5.3724    0.0000 C   0  0  0  0  0  0  0  0  0
  1  2  1  0  0  0  0
  1 12  1  0  0  0  0
  2  3  1  0  0  0  0
  3  4  1  0  0  0  0
  3  8  1  0  0  0  0
  4  5  1  0  0  0  0
  5  6  1  0  0  0  0
  6  7  1  0  0  0  0
  6  9  1  0  0  0  0
  7  8  1  0  0  0  0
  9 10  1  0  0  0  0
  9 11  1  0  0  0  0
 12 13  4  0  0  0  0
 12 16  4  0  0  0  0
 13 14  4  0  0  0  0
 14 15  4  0  0  0  0
 15 16  4  0  0  0  0
 15 18  1  0  0  0  0
 16 17  1  0  0  0  0
 18 19  2  0  0  0  0
 18 20  1  0  0  0  0
 20 21  4  0  0  0  0
 20 25  4  0  0  0  0
 21 22  4  0  0  0  0
 22 23  4  0  0  0  0
 23 24  4  0  0  0  0
 23 26  1  0  0  0  0
 24 25  4  0  0  0  0
 26 27  1  0  0  0  0
 26 28  1  0  0  0  0
M  END
>  <Name_Molregno>
474537

>  <HISTAMINE H3>
8.05

$$$$
474538
  Marvin  02231216192D 0   1.00000     0.00000     0

 29 31  0  0  0  0  0  0  0  0999 V2000
    1.0827    4.1532    0.0000 F   0  0  0  0  0  0  0  0  0
    1.7972    3.7407    0.0000 C   0  0  0  0  0  0  0  0  0
    1.3847    3.0263    0.0000 F   0  0  0  0  0  0  0  0  0
    2.2097    4.4552    0.0000 F   0  0  0  0  0  0  0  0  0
    2.5116    3.3282    0.0000 C   0  0  0  0  0  0  0  0  0
    3.2261    3.7407    0.0000 C   0  0  0  0  0  0  0  0  0
    3.9406    3.3282    0.0000 C   0  0  0  0  0  0  0  0  0
    3.9406    2.5032    0.0000 C   0  0  0  0  0  0  0  0  0
    3.2261    2.0907    0.0000 C   0  0  0  0  0  0  0  0  0
    2.5116    2.5032    0.0000 C   0  0  0  0  0  0  0  0  0
    4.6550    2.0907    0.0000 C   0  0  0  0  0  0  0  0  0
    5.3695    2.5032    0.0000 O   0  0  0  0  0  0  0  0  0
    4.6550    1.2657    0.0000 C   0  0  0  0  0  0  0  0  0
    5.3225    0.7808    0.0000 N   0  0  0  0  0  0  0  0  0
    6.1071    1.0358    0.0000 C   0  0  0  0  0  0  0  0  0
    5.0675   -0.0038    0.0000 C   0  0  0  0  0  0  0  0  0
    5.5525   -0.6712    0.0000 O   0  0  0  0  0  0  0  0  0
    6.3729   -0.5850    0.0000 C   0  0  0  0  0  0  0  0  0
    6.8579   -1.2525    0.0000 C   0  0  0  0  0  0  0  0  0
    7.6784   -1.1662    0.0000 C   0  0  0  0  0  0  0  0  0
    8.1633   -1.8337    0.0000 C   0  0  0  0  0  0  0  0  0
    7.8277   -2.5873    0.0000 N   0  0  0  0  0  0  0  0  0
    7.0072   -2.6736    0.0000 C   0  0  0  0  0  0  0  0  0
    6.5223   -2.0061    0.0000 C   0  0  0  0  0  0  0  0  0
    8.3126   -3.2548    0.0000 C   0  0  0  0  0  0  0  0  0
    9.1331   -3.1685    0.0000 C   0  0  0  0  0  0  0  0  0
    7.9771   -4.0084    0.0000 C   0  0  0  0  0  0  0  0  0
    4.2425   -0.0038    0.0000 N   0  0  0  0  0  0  0  0  0
    3.9876    0.7808    0.0000 C   0  0  0  0  0  0  0  0  0
  1  2  1  0  0  0  0
  2  3  1  0  0  0  0
  2  4  1  0  0  0  0
  2  5  1  0  0  0  0
  5  6  4  0  0  0  0
  5 10  4  0  0  0  0
  6  7  4  0  0  0  0
  7  8  4  0  0  0  0
  8  9  4  0  0  0  0
  8 11  1  0  0  0  0
  9 10  4  0  0  0  0
 11 12  2  0  0  0  0
 11 13  1  0  0  0  0
 13 14  4  0  0  0  0
 13 29  4  0  0  0  0
 14 15  1  0  0  0  0
 14 16  4  0  0  0  0
 16 17  1  0  0  0  0
 16 28  4  0  0  0  0
 17 18  1  0  0  0  0
 18 19  1  0  0  0  0
 19 20  1  0  0  0  0
 19 24  1  0  0  0  0
 20 21  1  0  0  0  0
 21 22  1  0  0  0  0
 22 23  1  0  0  0  0
 22 25  1  0  0  0  0
 23 24  1  0  0  0  0
 25 26  1  0  0  0  0
 25 27  1  0  0  0  0
 28 29  4  0  0  0  0
M  END
>  <Name_Molregno>
474538

>  <HISTAMINE H3>
8.4

$$$$
474609
  Marvin  02231216192D 0   1.00000     0.00000     0

 28 30  0  0  0  0  0  0  0  0999 V2000
    1.0304    1.0717    0.0000 O   0  0  0  0  0  0  0  0  0
    1.7449    1.4842    0.0000 C   0  0  0  0  0  0  0  0  0
    1.7449    2.3092    0.0000 C   0  0  0  0  0  0  0  0  0
    1.0304    2.7217    0.0000 C   0  0  0  0  0  0  0  0  0
    1.0304    3.5467    0.0000 C   0  0  0  0  0  0  0  0  0
    1.7449    3.9592    0.0000 N   0  0  0  0  0  0  0  0  0
    2.4594    3.5467    0.0000 C   0  0  0  0  0  0  0  0  0
    2.4594    2.7217    0.0000 C   0  0  0  0  0  0  0  0  0
    1.7449    4.7842    0.0000 C   0  0  0  0  0  0  0  0  0
    2.4594    5.1967    0.0000 C   0  0  0  0  0  0  0  0  0
    1.0304    5.1967    0.0000 C   0  0  0  0  0  0  0  0  0
    1.0304    0.2467    0.0000 C   0  0  0  0  0  0  0  0  0
    1.6978   -0.2382    0.0000 N   0  0  0  0  0  0  0  0  0
    1.4429   -1.0228    0.0000 C   0  0  0  0  0  0  0  0  0
    0.6179   -1.0228    0.0000 C   0  0  0  0  0  0  0  0  0
    0.3630   -0.2382    0.0000 N   0  0  0  0  0  0  0  0  0
   -0.4217    0.0167    0.0000 C   0  0  0  0  0  0  0  0  0
    0.1330   -1.6903    0.0000 C   0  0  0  0  0  0  0  0  0
   -0.6875   -1.6040    0.0000 O   0  0  0  0  0  0  0  0  0
    0.4685   -2.4440    0.0000 C   0  0  0  0  0  0  0  0  0
    1.2890   -2.5302    0.0000 C   0  0  0  0  0  0  0  0  0
    1.6246   -3.2839    0.0000 C   0  0  0  0  0  0  0  0  0
    1.1397   -3.9513    0.0000 C   0  0  0  0  0  0  0  0  0
    1.4752   -4.7050    0.0000 N   0  3  0  0  0  0  0  0  0
    2.2957   -4.7912    0.0000 O   0  5  0  0  0  0  0  0  0
    0.9903   -5.3724    0.0000 O   0  5  0  0  0  0  0  0  0
    0.3192   -3.8651    0.0000 C   0  0  0  0  0  0  0  0  0
   -0.0164   -3.1114    0.0000 C   0  0  0  0  0  0  0  0  0
  1  2  1  0  0  0  0
  1 12  1  0  0  0  0
  2  3  1  0  0  0  0
  3  4  1  0  0  0  0
  3  8  1  0  0  0  0
  4  5  1  0  0  0  0
  5  6  1  0  0  0  0
  6  7  1  0  0  0  0
  6  9  1  0  0  0  0
  7  8  1  0  0  0  0
  9 10  1  0  0  0  0
  9 11  1  0  0  0  0
 12 13  4  0  0  0  0
 12 16  4  0  0  0  0
 13 14  4  0  0  0  0
 14 15  4  0  0  0  0
 15 16  4  0  0  0  0
 15 18  1  0  0  0  0
 16 17  1  0  0  0  0
 18 19  2  0  0  0  0
 18 20  1  0  0  0  0
 20 21  4  0  0  0  0
 20 28  4  0  0  0  0
 21 22  4  0  0  0  0
 22 23  4  0  0  0  0
 23 24  1  0  0  0  0
 23 27  4  0  0  0  0
 24 25  1  0  0  0  0
 24 26  1  0  0  0  0
 27 28  4  0  0  0  0
M  CHG  3  24   1  25  -1  26  -1
M  END
>  <Name_Molregno>
474609

>  <HISTAMINE H3>
8.4

$$$$
474610
  Marvin  02231216192D 0   1.00000     0.00000     0

 26 28  0  0  0  0  0  0  0  0999 V2000
    1.1693    4.0219    0.0000 F   0  0  0  0  0  0  0  0  0
    1.8837    3.6094    0.0000 C   0  0  0  0  0  0  0  0  0
    2.5982    4.0219    0.0000 C   0  0  0  0  0  0  0  0  0
    3.3127    3.6094    0.0000 C   0  0  0  0  0  0  0  0  0
    3.3127    2.7844    0.0000 C   0  0  0  0  0  0  0  0  0
    2.5982    2.3719    0.0000 C   0  0  0  0  0  0  0  0  0
    1.8837    2.7844    0.0000 C   0  0  0  0  0  0  0  0  0
    4.0272    2.3719    0.0000 C   0  0  0  0  0  0  0  0  0
    4.7416    2.7844    0.0000 O   0  0  0  0  0  0  0  0  0
    4.0272    1.5469    0.0000 C   0  0  0  0  0  0  0  0  0
    4.6946    1.0619    0.0000 N   0  0  0  0  0  0  0  0  0
    5.4792    1.3169    0.0000 C   0  0  0  0  0  0  0  0  0
    4.4397    0.2773    0.0000 C   0  0  0  0  0  0  0  0  0
    4.9246   -0.3901    0.0000 O   0  0  0  0  0  0  0  0  0
    5.7451   -0.3039    0.0000 C   0  0  0  0  0  0  0  0  0
    6.2300   -0.9713    0.0000 C   0  0  0  0  0  0  0  0  0
    7.0505   -0.8851    0.0000 C   0  0  0  0  0  0  0  0  0
    7.5354   -1.5525    0.0000 C   0  0  0  0  0  0  0  0  0
    7.1998   -2.3062    0.0000 N   0  0  0  0  0  0  0  0  0
    6.3793   -2.3924    0.0000 C   0  0  0  0  0  0  0  0  0
    5.8944   -1.7250    0.0000 C   0  0  0  0  0  0  0  0  0
    7.6847   -2.9736    0.0000 C   0  0  0  0  0  0  0  0  0
    8.5052   -2.8874    0.0000 C   0  0  0  0  0  0  0  0  0
    7.3492   -3.7273    0.0000 C   0  0  0  0  0  0  0  0  0
    3.6147    0.2773    0.0000 N   0  0  0  0  0  0  0  0  0
    3.3597    1.0619    0.0000 C   0  0  0  0  0  0  0  0  0
  1  2  1  0  0  0  0
  2  3  4  0  0  0  0
  2  7  4  0  0  0  0
  3  4  4  0  0  0  0
  4  5  4  0  0  0  0
  5  6  4  0  0  0  0
  5  8  1  0  0  0  0
  6  7  4  0  0  0  0
  8  9  2  0  0  0  0
  8 10  1  0  0  0  0
 10 11  4  0  0  0  0
 10 26  4  0  0  0  0
 11 12  1  0  0  0  0
 11 13  4  0  0  0  0
 13 14  1  0  0  0  0
 13 25  4  0  0  0  0
 14 15  1  0  0  0  0
 15 16  1  0  0  0  0
 16 17  1  0  0  0  0
 16 21  1  0  0  0  0
 17 18  1  0  0  0  0
 18 19  1  0  0  0  0
 19 20  1  0  0  0  0
 19 22  1  0  0  0  0
 20 21  1  0  0  0  0
 22 23  1  0  0  0  0
 22 24  1  0  0  0  0
 25 26  4  0  0  0  0
M  END
>  <Name_Molregno>
474610

>  <HISTAMINE H3>
8.52

$$$$
474611
  Marvin  02231216192D 0   1.00000     0.00000     0

 26 28  0  0  0  0  0  0  0  0999 V2000
    2.4980    4.9600    0.0000 Cl  0  0  0  0  0  0  0  0  0
    2.4980    4.1350    0.0000 C   0  0  0  0  0  0  0  0  0
    3.2124    3.7225    0.0000 C   0  0  0  0  0  0  0  0  0
    3.2124    2.8975    0.0000 C   0  0  0  0  0  0  0  0  0
    2.4980    2.4850    0.0000 C   0  0  0  0  0  0  0  0  0
    1.7835    2.8975    0.0000 C   0  0  0  0  0  0  0  0  0
    1.7835    3.7225    0.0000 C   0  0  0  0  0  0  0  0  0
    3.9269    2.4850    0.0000 C   0  0  0  0  0  0  0  0  0
    4.6414    2.8975    0.0000 O   0  0  0  0  0  0  0  0  0
    3.9269    1.6600    0.0000 C   0  0  0  0  0  0  0  0  0
    4.5943    1.1751    0.0000 N   0  0  0  0  0  0  0  0  0
    5.3790    1.4300    0.0000 C   0  0  0  0  0  0  0  0  0
    4.3394    0.3904    0.0000 C   0  0  0  0  0  0  0  0  0
    4.8243   -0.2770    0.0000 O   0  0  0  0  0  0  0  0  0
    5.6448   -0.1908    0.0000 C   0  0  0  0  0  0  0  0  0
    6.1297   -0.8582    0.0000 C   0  0  0  0  0  0  0  0  0
    6.9502   -0.7720    0.0000 C   0  0  0  0  0  0  0  0  0
    7.4351   -1.4394    0.0000 C   0  0  0  0  0  0  0  0  0
    7.0996   -2.1931    0.0000 N   0  0  0  0  0  0  0  0  0
    6.2791   -2.2793    0.0000 C   0  0  0  0  0  0  0  0  0
    5.7942   -1.6119    0.0000 C   0  0  0  0  0  0  0  0  0
    7.5845   -2.8605    0.0000 C   0  0  0  0  0  0  0  0  0
    8.4050   -2.7743    0.0000 C   0  0  0  0  0  0  0  0  0
    7.2489   -3.6142    0.0000 C   0  0  0  0  0  0  0  0  0
    3.5144    0.3904    0.0000 N   0  0  0  0  0  0  0  0  0
    3.2595    1.1751    0.0000 C   0  0  0  0  0  0  0  0  0
  1  2  1  0  0  0  0
  2  3  4  0  0  0  0
  2  7  4  0  0  0  0
  3  4  4  0  0  0  0
  4  5  4  0  0  0  0
  4  8  1  0  0  0  0
  5  6  4  0  0  0  0
  6  7  4  0  0  0  0
  8  9  2  0  0  0  0
  8 10  1  0  0  0  0
 10 11  4  0  0  0  0
 10 26  4  0  0  0  0
 11 12  1  0  0  0  0
 11 13  4  0  0  0  0
 13 14  1  0  0  0  0
 13 25  4  0  0  0  0
 14 15  1  0  0  0  0
 15 16  1  0  0  0  0
 16 17  1  0  0  0  0
 16 21  1  0  0  0  0
 17 18  1  0  0  0  0
 18 19  1  0  0  0  0
 19 20  1  0  0  0  0
 19 22  1  0  0  0  0
 20 21  1  0  0  0  0
 22 23  1  0  0  0  0
 22 24  1  0  0  0  0
 25 26  4  0  0  0  0
M  END
>  <Name_Molregno>
474611

>  <HISTAMINE H3>
8.3

$$$$
474612
  Marvin  02231216192D 0   1.00000     0.00000     0

 27 29  0  0  0  0  0  0  0  0999 V2000
    2.5022    5.0057    0.0000 Cl  0  0  0  0  0  0  0  0  0
    2.5022    4.1807    0.0000 C   0  0  0  0  0  0  0  0  0
    3.2167    3.7682    0.0000 C   0  0  0  0  0  0  0  0  0
    3.2167    2.9432    0.0000 C   0  0  0  0  0  0  0  0  0
    2.5022    2.5307    0.0000 C   0  0  0  0  0  0  0  0  0
    1.7877    2.9432    0.0000 C   0  0  0  0  0  0  0  0  0
    1.0733    2.5307    0.0000 Cl  0  0  0  0  0  0  0  0  0
    1.7877    3.7682    0.0000 C   0  0  0  0  0  0  0  0  0
    3.9312    2.5307    0.0000 C   0  0  0  0  0  0  0  0  0
    4.6456    2.9432    0.0000 O   0  0  0  0  0  0  0  0  0
    3.9312    1.7057    0.0000 C   0  0  0  0  0  0  0  0  0
    4.5986    1.2208    0.0000 N   0  0  0  0  0  0  0  0  0
    5.3832    1.4757    0.0000 C   0  0  0  0  0  0  0  0  0
    4.3437    0.4362    0.0000 C   0  0  0  0  0  0  0  0  0
    4.8286   -0.2313    0.0000 O   0  0  0  0  0  0  0  0  0
    5.6491   -0.1450    0.0000 C   0  0  0  0  0  0  0  0  0
    6.1340   -0.8125    0.0000 C   0  0  0  0  0  0  0  0  0
    6.9545   -0.7262    0.0000 C   0  0  0  0  0  0  0  0  0
    7.4394   -1.3937    0.0000 C   0  0  0  0  0  0  0  0  0
    7.1038   -2.1473    0.0000 N   0  0  0  0  0  0  0  0  0
    6.2834   -2.2336    0.0000 C   0  0  0  0  0  0  0  0  0
    5.7984   -1.5661    0.0000 C   0  0  0  0  0  0  0  0  0
    7.5888   -2.8148    0.0000 C   0  0  0  0  0  0  0  0  0
    8.4092   -2.7285    0.0000 C   0  0  0  0  0  0  0  0  0
    7.2532   -3.5685    0.0000 C   0  0  0  0  0  0  0  0  0
    3.5187    0.4362    0.0000 N   0  0  0  0  0  0  0  0  0
    3.2637    1.2208    0.0000 C   0  0  0  0  0  0  0  0  0
  1  2  1  0  0  0  0
  2  3  4  0  0  0  0
  2  8  4  0  0  0  0
  3  4  4  0  0  0  0
  4  5  4  0  0  0  0
  4  9  1  0  0  0  0
  5  6  4  0  0  0  0
  6  7  1  0  0  0  0
  6  8  4  0  0  0  0
  9 10  2  0  0  0  0
  9 11  1  0  0  0  0
 11 12  4  0  0  0  0
 11 27  4  0  0  0  0
 12 13  1  0  0  0  0
 12 14  4  0  0  0  0
 14 15  1  0  0  0  0
 14 26  4  0  0  0  0
 15 16  1  0  0  0  0
 16 17  1  0  0  0  0
 17 18  1  0  0  0  0
 17 22  1  0  0  0  0
 18 19  1  0  0  0  0
 19 20  1  0  0  0  0
 20 21  1  0  0  0  0
 20 23  1  0  0  0  0
 21 22  1  0  0  0  0
 23 24  1  0  0  0  0
 23 25  1  0  0  0  0
 26 27  4  0  0  0  0
M  END
>  <Name_Molregno>
474612

>  <HISTAMINE H3>
8.4

$$$$
474613
  Marvin  02231216192D 0   1.00000     0.00000     0

 26 28  0  0  0  0  0  0  0  0999 V2000
    1.1693    4.0219    0.0000 Br  0  0  0  0  0  0  0  0  0
    1.8837    3.6094    0.0000 C   0  0  0  0  0  0  0  0  0
    2.5982    4.0219    0.0000 C   0  0  0  0  0  0  0  0  0
    3.3127    3.6094    0.0000 C   0  0  0  0  0  0  0  0  0
    3.3127    2.7844    0.0000 C   0  0  0  0  0  0  0  0  0
    2.5982    2.3719    0.0000 C   0  0  0  0  0  0  0  0  0
    1.8837    2.7844    0.0000 C   0  0  0  0  0  0  0  0  0
    4.0272    2.3719    0.0000 C   0  0  0  0  0  0  0  0  0
    4.7416    2.7844    0.0000 O   0  0  0  0  0  0  0  0  0
    4.0272    1.5469    0.0000 C   0  0  0  0  0  0  0  0  0
    4.6946    1.0619    0.0000 N   0  0  0  0  0  0  0  0  0
    5.4792    1.3169    0.0000 C   0  0  0  0  0  0  0  0  0
    4.4397    0.2773    0.0000 C   0  0  0  0  0  0  0  0  0
    4.9246   -0.3901    0.0000 O   0  0  0  0  0  0  0  0  0
    5.7451   -0.3039    0.0000 C   0  0  0  0  0  0  0  0  0
    6.2300   -0.9713    0.0000 C   0  0  0  0  0  0  0  0  0
    7.0505   -0.8851    0.0000 C   0  0  0  0  0  0  0  0  0
    7.5354   -1.5525    0.0000 C   0  0  0  0  0  0  0  0  0
    7.1998   -2.3062    0.0000 N   0  0  0  0  0  0  0  0  0
    6.3793   -2.3924    0.0000 C   0  0  0  0  0  0  0  0  0
    5.8944   -1.7250    0.0000 C   0  0  0  0  0  0  0  0  0
    7.6847   -2.9736    0.0000 C   0  0  0  0  0  0  0  0  0
    8.5052   -2.8874    0.0000 C   0  0  0  0  0  0  0  0  0
    7.3492   -3.7273    0.0000 C   0  0  0  0  0  0  0  0  0
    3.6147    0.2773    0.0000 N   0  0  0  0  0  0  0  0  0
    3.3597    1.0619    0.0000 C   0  0  0  0  0  0  0  0  0
  1  2  1  0  0  0  0
  2  3  4  0  0  0  0
  2  7  4  0  0  0  0
  3  4  4  0  0  0  0
  4  5  4  0  0  0  0
  5  6  4  0  0  0  0
  5  8  1  0  0  0  0
  6  7  4  0  0  0  0
  8  9  2  0  0  0  0
  8 10  1  0  0  0  0
 10 11  4  0  0  0  0
 10 26  4  0  0  0  0
 11 12  1  0  0  0  0
 11 13  4  0  0  0  0
 13 14  1  0  0  0  0
 13 25  4  0  0  0  0
 14 15  1  0  0  0  0
 15 16  1  0  0  0  0
 16 17  1  0  0  0  0
 16 21  1  0  0  0  0
 17 18  1  0  0  0  0
 18 19  1  0  0  0  0
 19 20  1  0  0  0  0
 19 22  1  0  0  0  0
 20 21  1  0  0  0  0
 22 23  1  0  0  0  0
 22 24  1  0  0  0  0
 25 26  4  0  0  0  0
M  END
>  <Name_Molregno>
474613

>  <HISTAMINE H3>
8.52

$$$$
474680
  Marvin  02231216192D 0   1.00000     0.00000     0

 27 29  0  0  0  0  0  0  0  0999 V2000
   -6.7378    1.6294    0.0000 Cl  0  0  0  0  0  0  0  0  0
   -6.0234    1.2169    0.0000 C   0  0  0  0  0  0  0  0  0
   -5.3089    1.6294    0.0000 C   0  0  0  0  0  0  0  0  0
   -4.5944    1.2169    0.0000 C   0  0  0  0  0  0  0  0  0
   -4.5944    0.3919    0.0000 C   0  0  0  0  0  0  0  0  0
   -5.3089   -0.0206    0.0000 C   0  0  0  0  0  0  0  0  0
   -6.0234    0.3919    0.0000 C   0  0  0  0  0  0  0  0  0
   -3.8800   -0.0206    0.0000 C   0  0  0  0  0  0  0  0  0
   -3.1655    0.3919    0.0000 O   0  0  0  0  0  0  0  0  0
   -3.8800   -0.8456    0.0000 C   0  0  0  0  0  0  0  0  0
   -3.2125   -1.3306    0.0000 N   0  0  0  0  0  0  0  0  0
   -2.4279   -1.0756    0.0000 C   0  0  0  0  0  0  0  0  0
   -3.4675   -2.1152    0.0000 C   0  0  0  0  0  0  0  0  0
   -2.9825   -2.7826    0.0000 O   0  0  0  0  0  0  0  0  0
   -3.3181   -3.5363    0.0000 C   0  0  0  0  0  0  0  0  0
   -2.8332   -4.2037    0.0000 C   0  0  0  0  0  0  0  0  0
   -3.1687   -4.9574    0.0000 C   0  0  0  0  0  0  0  0  0
   -2.6838   -5.6249    0.0000 C   0  0  0  0  0  0  0  0  0
   -3.0194   -6.3785    0.0000 C   0  0  0  0  0  0  0  0  0
   -3.8398   -6.4648    0.0000 N   0  0  0  0  0  0  0  0  0
   -4.3248   -5.7973    0.0000 C   0  0  0  0  0  0  0  0  0
   -3.9892   -5.0437    0.0000 C   0  0  0  0  0  0  0  0  0
   -4.1754   -7.2184    0.0000 C   0  0  0  0  0  0  0  0  0
   -3.6905   -7.8859    0.0000 C   0  0  0  0  0  0  0  0  0
   -4.9959   -7.3047    0.0000 C   0  0  0  0  0  0  0  0  0
   -4.2925   -2.1152    0.0000 N   0  0  0  0  0  0  0  0  0
   -4.5474   -1.3306    0.0000 C   0  0  0  0  0  0  0  0  0
  1  2  1  0  0  0  0
  2  3  4  0  0  0  0
  2  7  4  0  0  0  0
  3  4  4  0  0  0  0
  4  5  4  0  0  0  0
  5  6  4  0  0  0  0
  5  8  1  0  0  0  0
  6  7  4  0  0  0  0
  8  9  2  0  0  0  0
  8 10  1  0  0  0  0
 10 11  4  0  0  0  0
 10 27  4  0  0  0  0
 11 12  1  0  0  0  0
 11 13  4  0  0  0  0
 13 14  1  0  0  0  0
 13 26  4  0  0  0  0
 14 15  1  0  0  0  0
 15 16  1  0  0  0  0
 16 17  1  0  0  0  0
 17 18  1  0  0  0  0
 17 22  1  0  0  0  0
 18 19  1  0  0  0  0
 19 20  1  0  0  0  0
 20 21  1  0  0  0  0
 20 23  1  0  0  0  0
 21 22  1  0  0  0  0
 23 24  1  0  0  0  0
 23 25  1  0  0  0  0
 26 27  4  0  0  0  0
M  END
>  <Name_Molregno>
474680

>  <HISTAMINE H3>
7.15

$$$$
474681
  Marvin  02231216192D 0   1.00000     0.00000     0

 25 27  0  0  0  0  0  0  0  0999 V2000
    1.0244    0.1667    0.0000 O   0  0  0  0  0  0  0  0  0
    1.7389    0.5792    0.0000 C   0  0  0  0  0  0  0  0  0
    1.7389    1.4042    0.0000 C   0  0  0  0  0  0  0  0  0
    1.0244    1.8167    0.0000 C   0  0  0  0  0  0  0  0  0
    1.0244    2.6417    0.0000 C   0  0  0  0  0  0  0  0  0
    1.7389    3.0542    0.0000 N   0  0  0  0  0  0  0  0  0
    2.4534    2.6417    0.0000 C   0  0  0  0  0  0  0  0  0
    2.4534    1.8167    0.0000 C   0  0  0  0  0  0  0  0  0
    1.7389    3.8792    0.0000 C   0  0  0  0  0  0  0  0  0
    2.4534    4.2917    0.0000 C   0  0  0  0  0  0  0  0  0
    1.0244    4.2917    0.0000 C   0  0  0  0  0  0  0  0  0
    1.0244   -0.6583    0.0000 C   0  0  0  0  0  0  0  0  0
    1.6919   -1.1432    0.0000 N   0  0  0  0  0  0  0  0  0
    1.4369   -1.9278    0.0000 C   0  0  0  0  0  0  0  0  0
    0.6119   -1.9278    0.0000 C   0  0  0  0  0  0  0  0  0
    0.3570   -1.1432    0.0000 N   0  0  0  0  0  0  0  0  0
   -0.4276   -0.8883    0.0000 C   0  0  0  0  0  0  0  0  0
    0.1270   -2.5953    0.0000 C   0  0  0  0  0  0  0  0  0
    0.4626   -3.3489    0.0000 O   0  0  0  0  0  0  0  0  0
   -0.6935   -2.5090    0.0000 C   0  0  0  0  0  0  0  0  0
   -1.1784   -3.1765    0.0000 C   0  0  0  0  0  0  0  0  0
   -1.9989   -3.0902    0.0000 C   0  0  0  0  0  0  0  0  0
   -2.3344   -2.3366    0.0000 C   0  0  0  0  0  0  0  0  0
   -1.8495   -1.6691    0.0000 C   0  0  0  0  0  0  0  0  0
   -1.0290   -1.7554    0.0000 C   0  0  0  0  0  0  0  0  0
  1  2  1  0  0  0  0
  1 12  1  0  0  0  0
  2  3  1  0  0  0  0
  3  4  1  0  0  0  0
  3  8  1  0  0  0  0
  4  5  1  0  0  0  0
  5  6  1  0  0  0  0
  6  7  1  0  0  0  0
  6  9  1  0  0  0  0
  7  8  1  0  0  0  0
  9 10  1  0  0  0  0
  9 11  1  0  0  0  0
 12 13  4  0  0  0  0
 12 16  4  0  0  0  0
 13 14  4  0  0  0  0
 14 15  4  0  0  0  0
 15 16  4  0  0  0  0
 15 18  1  0  0  0  0
 16 17  1  0  0  0  0
 18 19  2  0  0  0  0
 18 20  1  0  0  0  0
 20 21  4  0  0  0  0
 20 25  4  0  0  0  0
 21 22  4  0  0  0  0
 22 23  4  0  0  0  0
 23 24  4  0  0  0  0
 24 25  4  0  0  0  0
M  END
>  <Name_Molregno>
474681

>  <HISTAMINE H3>
9

$$$$
474682
  Marvin  02231216192D 0   1.00000     0.00000     0

 26 28  0  0  0  0  0  0  0  0999 V2000
   -6.0052    1.5660    0.0000 Cl  0  0  0  0  0  0  0  0  0
   -6.0052    2.3910    0.0000 C   0  0  0  0  0  0  0  0  0
   -6.7196    2.8035    0.0000 C   0  0  0  0  0  0  0  0  0
   -6.7196    3.6285    0.0000 C   0  0  0  0  0  0  0  0  0
   -6.0052    4.0410    0.0000 C   0  0  0  0  0  0  0  0  0
   -5.2907    3.6285    0.0000 C   0  0  0  0  0  0  0  0  0
   -5.2907    2.8035    0.0000 C   0  0  0  0  0  0  0  0  0
   -4.5762    2.3910    0.0000 C   0  0  0  0  0  0  0  0  0
   -3.8617    2.8035    0.0000 O   0  0  0  0  0  0  0  0  0
   -4.5762    1.5660    0.0000 C   0  0  0  0  0  0  0  0  0
   -3.9088    1.0811    0.0000 N   0  0  0  0  0  0  0  0  0
   -3.1242    1.3361    0.0000 C   0  0  0  0  0  0  0  0  0
   -4.1637    0.2965    0.0000 C   0  0  0  0  0  0  0  0  0
   -3.6788   -0.3709    0.0000 O   0  0  0  0  0  0  0  0  0
   -2.8583   -0.2847    0.0000 C   0  0  0  0  0  0  0  0  0
   -2.3734   -0.9521    0.0000 C   0  0  0  0  0  0  0  0  0
   -1.5529   -0.8659    0.0000 C   0  0  0  0  0  0  0  0  0
   -1.0680   -1.5333    0.0000 C   0  0  0  0  0  0  0  0  0
   -1.4035   -2.2870    0.0000 N   0  0  0  0  0  0  0  0  0
   -2.2240   -2.3733    0.0000 C   0  0  0  0  0  0  0  0  0
   -2.7089   -1.7058    0.0000 C   0  0  0  0  0  0  0  0  0
   -0.9186   -2.9545    0.0000 C   0  0  0  0  0  0  0  0  0
   -0.0981   -2.8682    0.0000 C   0  0  0  0  0  0  0  0  0
   -1.2542   -3.7081    0.0000 C   0  0  0  0  0  0  0  0  0
   -4.9887    0.2965    0.0000 N   0  0  0  0  0  0  0  0  0
   -5.2437    1.0811    0.0000 C   0  0  0  0  0  0  0  0  0
  1  2  1  0  0  0  0
  2  3  4  0  0  0  0
  2  7  4  0  0  0  0
  3  4  4  0  0  0  0
  4  5  4  0  0  0  0
  5  6  4  0  0  0  0
  6  7  4  0  0  0  0
  7  8  1  0  0  0  0
  8  9  2  0  0  0  0
  8 10  1  0  0  0  0
 10 11  4  0  0  0  0
 10 26  4  0  0  0  0
 11 12  1  0  0  0  0
 11 13  4  0  0  0  0
 13 14  1  0  0  0  0
 13 25  4  0  0  0  0
 14 15  1  0  0  0  0
 15 16  1  0  0  0  0
 16 17  1  0  0  0  0
 16 21  1  0  0  0  0
 17 18  1  0  0  0  0
 18 19  1  0  0  0  0
 19 20  1  0  0  0  0
 19 22  1  0  0  0  0
 20 21  1  0  0  0  0
 22 23  1  0  0  0  0
 22 24  1  0  0  0  0
 25 26  4  0  0  0  0
M  END
>  <Name_Molregno>
474682

>  <HISTAMINE H3>
9

$$$$
474683
  Marvin  02231216192D 0   1.00000     0.00000     0

 25 27  0  0  0  0  0  0  0  0999 V2000
   -0.0705    2.1772    0.0000 Cl  0  0  0  0  0  0  0  0  0
    0.7499    2.0909    0.0000 C   0  0  0  0  0  0  0  0  0
    1.2349    2.7584    0.0000 C   0  0  0  0  0  0  0  0  0
    2.0553    2.6721    0.0000 C   0  0  0  0  0  0  0  0  0
    2.3909    1.9184    0.0000 C   0  0  0  0  0  0  0  0  0
    1.9060    1.2510    0.0000 C   0  0  0  0  0  0  0  0  0
    1.0855    1.3372    0.0000 C   0  0  0  0  0  0  0  0  0
    3.2114    1.8322    0.0000 C   0  0  0  0  0  0  0  0  0
    3.6963    2.4997    0.0000 O   0  0  0  0  0  0  0  0  0
    3.5469    1.0785    0.0000 C   0  0  0  0  0  0  0  0  0
    4.3539    0.9070    0.0000 N   0  0  0  0  0  0  0  0  0
    4.9670    1.4590    0.0000 C   0  0  0  0  0  0  0  0  0
    4.4401    0.0865    0.0000 C   0  0  0  0  0  0  0  0  0
    3.6865   -0.2490    0.0000 N   0  0  0  0  0  0  0  0  0
    3.1344    0.3641    0.0000 C   0  0  0  0  0  0  0  0  0
    5.1546   -0.3260    0.0000 C   0  0  0  0  0  0  0  0  0
    5.8691    0.0865    0.0000 C   0  0  0  0  0  0  0  0  0
    6.5836   -0.3260    0.0000 C   0  0  0  0  0  0  0  0  0
    7.2980    0.0865    0.0000 C   0  0  0  0  0  0  0  0  0
    8.0125   -0.3260    0.0000 N   0  0  0  0  0  0  0  0  0
    8.7270    0.0865    0.0000 C   0  0  0  0  0  0  0  0  0
    9.4414   -0.3260    0.0000 C   0  0  0  0  0  0  0  0  0
    9.4414   -1.1510    0.0000 C   0  0  0  0  0  0  0  0  0
    8.7270   -1.5635    0.0000 C   0  0  0  0  0  0  0  0  0
    8.0125   -1.1510    0.0000 C   0  0  0  0  0  0  0  0  0
  1  2  1  0  0  0  0
  2  3  4  0  0  0  0
  2  7  4  0  0  0  0
  3  4  4  0  0  0  0
  4  5  4  0  0  0  0
  5  6  4  0  0  0  0
  5  8  1  0  0  0  0
  6  7  4  0  0  0  0
  8  9  2  0  0  0  0
  8 10  1  0  0  0  0
 10 11  4  0  0  0  0
 10 15  4  0  0  0  0
 11 12  1  0  0  0  0
 11 13  4  0  0  0  0
 13 14  4  0  0  0  0
 13 16  1  0  0  0  0
 14 15  4  0  0  0  0
 16 17  1  0  0  0  0
 17 18  1  0  0  0  0
 18 19  1  0  0  0  0
 19 20  1  0  0  0  0
 20 21  1  0  0  0  0
 20 25  1  0  0  0  0
 21 22  1  0  0  0  0
 22 23  1  0  0  0  0
 23 24  1  0  0  0  0
 24 25  1  0  0  0  0
M  END
>  <Name_Molregno>
474683

>  <HISTAMINE H3>
7.62

$$$$
474684
  Marvin  02231216192D 0   1.00000     0.00000     0

 25 27  0  0  0  0  0  0  0  0999 V2000
    0.9603    1.1136    0.0000 Cl  0  0  0  0  0  0  0  0  0
    1.6748    0.7011    0.0000 C   0  0  0  0  0  0  0  0  0
    2.3892    1.1136    0.0000 C   0  0  0  0  0  0  0  0  0
    3.1037    0.7011    0.0000 C   0  0  0  0  0  0  0  0  0
    3.1037   -0.1239    0.0000 C   0  0  0  0  0  0  0  0  0
    2.3892   -0.5364    0.0000 C   0  0  0  0  0  0  0  0  0
    1.6748   -0.1239    0.0000 C   0  0  0  0  0  0  0  0  0
    3.8182   -0.5364    0.0000 C   0  0  0  0  0  0  0  0  0
    4.5326   -0.1239    0.0000 O   0  0  0  0  0  0  0  0  0
    3.8182   -1.3614    0.0000 C   0  0  0  0  0  0  0  0  0
    4.4856   -1.8464    0.0000 N   0  0  0  0  0  0  0  0  0
    5.2702   -1.5914    0.0000 C   0  0  0  0  0  0  0  0  0
    4.2307   -2.6310    0.0000 C   0  0  0  0  0  0  0  0  0
    4.7156   -3.2984    0.0000 O   0  0  0  0  0  0  0  0  0
    4.3800   -4.0521    0.0000 C   0  0  0  0  0  0  0  0  0
    4.8650   -4.7195    0.0000 C   0  0  0  0  0  0  0  0  0
    4.5294   -5.4732    0.0000 C   0  0  0  0  0  0  0  0  0
    3.7089   -5.5595    0.0000 N   0  0  0  0  0  0  0  0  0
    3.2240   -4.8920    0.0000 C   0  0  0  0  0  0  0  0  0
    3.5596   -4.1383    0.0000 C   0  0  0  0  0  0  0  0  0
    3.3734   -6.3131    0.0000 C   0  0  0  0  0  0  0  0  0
    3.8583   -6.9806    0.0000 C   0  0  0  0  0  0  0  0  0
    2.5529   -6.3994    0.0000 C   0  0  0  0  0  0  0  0  0
    3.4057   -2.6310    0.0000 N   0  0  0  0  0  0  0  0  0
    3.1507   -1.8464    0.0000 C   0  0  0  0  0  0  0  0  0
  1  2  1  0  0  0  0
  2  3  4  0  0  0  0
  2  7  4  0  0  0  0
  3  4  4  0  0  0  0
  4  5  4  0  0  0  0
  5  6  4  0  0  0  0
  5  8  1  0  0  0  0
  6  7  4  0  0  0  0
  8  9  2  0  0  0  0
  8 10  1  0  0  0  0
 10 11  4  0  0  0  0
 10 25  4  0  0  0  0
 11 12  1  0  0  0  0
 11 13  4  0  0  0  0
 13 14  1  0  0  0  0
 13 24  4  0  0  0  0
 14 15  1  0  0  0  0
 15 16  1  0  0  0  0
 15 20  1  0  0  0  0
 16 17  1  0  0  0  0
 17 18  1  0  0  0  0
 18 19  1  0  0  0  0
 18 21  1  0  0  0  0
 19 20  1  0  0  0  0
 21 22  1  0  0  0  0
 21 23  1  0  0  0  0
 24 25  4  0  0  0  0
M  END
>  <Name_Molregno>
474684

>  <HISTAMINE H3>
8

$$$$
474746
  Marvin  02231216192D 0   1.00000     0.00000     0

 26 28  0  0  0  0  0  0  0  0999 V2000
    1.1693    4.0219    0.0000 Cl  0  0  0  0  0  0  0  0  0
    1.8837    3.6094    0.0000 C   0  0  0  0  0  0  0  0  0
    2.5982    4.0219    0.0000 C   0  0  0  0  0  0  0  0  0
    3.3127    3.6094    0.0000 C   0  0  0  0  0  0  0  0  0
    3.3127    2.7844    0.0000 C   0  0  0  0  0  0  0  0  0
    2.5982    2.3719    0.0000 C   0  0  0  0  0  0  0  0  0
    1.8837    2.7844    0.0000 C   0  0  0  0  0  0  0  0  0
    4.0272    2.3719    0.0000 C   0  0  0  0  0  0  0  0  0
    4.7416    2.7844    0.0000 O   0  0  0  0  0  0  0  0  0
    4.0272    1.5469    0.0000 C   0  0  0  0  0  0  0  0  0
    4.6946    1.0619    0.0000 N   0  0  0  0  0  0  0  0  0
    5.4792    1.3169    0.0000 C   0  0  0  0  0  0  0  0  0
    4.4397    0.2773    0.0000 C   0  0  0  0  0  0  0  0  0
    4.9246   -0.3901    0.0000 O   0  0  0  0  0  0  0  0  0
    5.7451   -0.3039    0.0000 C   0  0  0  0  0  0  0  0  0
    6.2300   -0.9713    0.0000 C   0  0  0  0  0  0  0  0  0
    7.0505   -0.8851    0.0000 C   0  0  0  0  0  0  0  0  0
    7.5354   -1.5525    0.0000 C   0  0  0  0  0  0  0  0  0
    7.1998   -2.3062    0.0000 N   0  0  0  0  0  0  0  0  0
    6.3793   -2.3924    0.0000 C   0  0  0  0  0  0  0  0  0
    5.8944   -1.7250    0.0000 C   0  0  0  0  0  0  0  0  0
    7.6847   -2.9736    0.0000 C   0  0  0  0  0  0  0  0  0
    8.5052   -2.8874    0.0000 C   0  0  0  0  0  0  0  0  0
    7.3492   -3.7273    0.0000 C   0  0  0  0  0  0  0  0  0
    3.6147    0.2773    0.0000 N   0  0  0  0  0  0  0  0  0
    3.3597    1.0619    0.0000 C   0  0  0  0  0  0  0  0  0
  1  2  1  0  0  0  0
  2  3  4  0  0  0  0
  2  7  4  0  0  0  0
  3  4  4  0  0  0  0
  4  5  4  0  0  0  0
  5  6  4  0  0  0  0
  5  8  1  0  0  0  0
  6  7  4  0  0  0  0
  8  9  2  0  0  0  0
  8 10  1  0  0  0  0
 10 11  4  0  0  0  0
 10 26  4  0  0  0  0
 11 12  1  0  0  0  0
 11 13  4  0  0  0  0
 13 14  1  0  0  0  0
 13 25  4  0  0  0  0
 14 15  1  0  0  0  0
 15 16  1  0  0  0  0
 16 17  1  0  0  0  0
 16 21  1  0  0  0  0
 17 18  1  0  0  0  0
 18 19  1  0  0  0  0
 19 20  1  0  0  0  0
 19 22  1  0  0  0  0
 20 21  1  0  0  0  0
 22 23  1  0  0  0  0
 22 24  1  0  0  0  0
 25 26  4  0  0  0  0
M  END
>  <Name_Molregno>
474746

>  <HISTAMINE H3>
8.52

$$$$
474747
  Marvin  02231216192D 0   1.00000     0.00000     0

 26 28  0  0  0  0  0  0  0  0999 V2000
   -8.4814   -5.0712    0.0000 Cl  0  0  0  0  0  0  0  0  0
   -7.9965   -4.4038    0.0000 C   0  0  0  0  0  0  0  0  0
   -8.3320   -3.6501    0.0000 C   0  0  0  0  0  0  0  0  0
   -7.8471   -2.9827    0.0000 C   0  0  0  0  0  0  0  0  0
   -7.0266   -3.0689    0.0000 C   0  0  0  0  0  0  0  0  0
   -6.6911   -3.8226    0.0000 C   0  0  0  0  0  0  0  0  0
   -7.1760   -4.4900    0.0000 C   0  0  0  0  0  0  0  0  0
   -6.5417   -2.4015    0.0000 C   0  0  0  0  0  0  0  0  0
   -6.8772   -1.6478    0.0000 O   0  0  0  0  0  0  0  0  0
   -5.7212   -2.4877    0.0000 C   0  0  0  0  0  0  0  0  0
   -5.1692   -1.8746    0.0000 N   0  0  0  0  0  0  0  0  0
   -5.3407   -1.0676    0.0000 C   0  0  0  0  0  0  0  0  0
   -4.4155   -2.2102    0.0000 C   0  0  0  0  0  0  0  0  0
   -3.7010   -1.7977    0.0000 S   0  0  0  0  0  0  0  0  0
   -2.9866   -2.2102    0.0000 C   0  0  0  0  0  0  0  0  0
   -2.2721   -1.7977    0.0000 C   0  0  0  0  0  0  0  0  0
   -1.5576   -2.2102    0.0000 C   0  0  0  0  0  0  0  0  0
   -0.8431   -1.7977    0.0000 C   0  0  0  0  0  0  0  0  0
   -0.1287   -2.2102    0.0000 N   0  0  0  0  0  0  0  0  0
    0.5858   -1.7977    0.0000 C   0  0  0  0  0  0  0  0  0
    1.3003   -2.2102    0.0000 C   0  0  0  0  0  0  0  0  0
    1.3003   -3.0352    0.0000 C   0  0  0  0  0  0  0  0  0
    0.5858   -3.4477    0.0000 C   0  0  0  0  0  0  0  0  0
   -0.1287   -3.0352    0.0000 C   0  0  0  0  0  0  0  0  0
   -4.5017   -3.0306    0.0000 N   0  0  0  0  0  0  0  0  0
   -5.3087   -3.2022    0.0000 C   0  0  0  0  0  0  0  0  0
  1  2  1  0  0  0  0
  2  3  4  0  0  0  0
  2  7  4  0  0  0  0
  3  4  4  0  0  0  0
  4  5  4  0  0  0  0
  5  6  4  0  0  0  0
  5  8  1  0  0  0  0
  6  7  4  0  0  0  0
  8  9  2  0  0  0  0
  8 10  1  0  0  0  0
 10 11  4  0  0  0  0
 10 26  4  0  0  0  0
 11 12  1  0  0  0  0
 11 13  4  0  0  0  0
 13 14  1  0  0  0  0
 13 25  4  0  0  0  0
 14 15  1  0  0  0  0
 15 16  1  0  0  0  0
 16 17  1  0  0  0  0
 17 18  1  0  0  0  0
 18 19  1  0  0  0  0
 19 20  1  0  0  0  0
 19 24  1  0  0  0  0
 20 21  1  0  0  0  0
 21 22  1  0  0  0  0
 22 23  1  0  0  0  0
 23 24  1  0  0  0  0
 25 26  4  0  0  0  0
M  END
>  <Name_Molregno>
474747

>  <HISTAMINE H3>
7.3

$$$$
474748
  Marvin  02231216192D 0   1.00000     0.00000     0

 25 27  0  0  0  0  0  0  0  0999 V2000
   -0.0705    2.1772    0.0000 Cl  0  0  0  0  0  0  0  0  0
    0.7499    2.0909    0.0000 C   0  0  0  0  0  0  0  0  0
    1.2349    2.7584    0.0000 C   0  0  0  0  0  0  0  0  0
    2.0553    2.6721    0.0000 C   0  0  0  0  0  0  0  0  0
    2.3909    1.9184    0.0000 C   0  0  0  0  0  0  0  0  0
    1.9060    1.2510    0.0000 C   0  0  0  0  0  0  0  0  0
    1.0855    1.3372    0.0000 C   0  0  0  0  0  0  0  0  0
    3.2114    1.8322    0.0000 C   0  0  0  0  0  0  0  0  0
    3.6963    2.4997    0.0000 O   0  0  0  0  0  0  0  0  0
    3.5469    1.0785    0.0000 C   0  0  0  0  0  0  0  0  0
    4.3539    0.9070    0.0000 N   0  0  0  0  0  0  0  0  0
    4.9670    1.4590    0.0000 C   0  0  0  0  0  0  0  0  0
    4.4401    0.0865    0.0000 C   0  0  0  0  0  0  0  0  0
    5.1546   -0.3260    0.0000 O   0  0  0  0  0  0  0  0  0
    5.8691    0.0865    0.0000 C   0  0  0  0  0  0  0  0  0
    6.5836   -0.3260    0.0000 C   0  0  0  0  0  0  0  0  0
    7.2980    0.0865    0.0000 C   0  0  0  0  0  0  0  0  0
    8.0125   -0.3260    0.0000 N   0  0  0  0  0  0  0  0  0
    8.7270    0.0865    0.0000 C   0  0  0  0  0  0  0  0  0
    9.4414   -0.3260    0.0000 C   0  0  0  0  0  0  0  0  0
    9.4414   -1.1510    0.0000 C   0  0  0  0  0  0  0  0  0
    8.7270   -1.5635    0.0000 C   0  0  0  0  0  0  0  0  0
    8.0125   -1.1510    0.0000 C   0  0  0  0  0  0  0  0  0
    3.6865   -0.2490    0.0000 N   0  0  0  0  0  0  0  0  0
    3.1344    0.3641    0.0000 C   0  0  0  0  0  0  0  0  0
  1  2  1  0  0  0  0
  2  3  4  0  0  0  0
  2  7  4  0  0  0  0
  3  4  4  0  0  0  0
  4  5  4  0  0  0  0
  5  6  4  0  0  0  0
  5  8  1  0  0  0  0
  6  7  4  0  0  0  0
  8  9  2  0  0  0  0
  8 10  1  0  0  0  0
 10 11  4  0  0  0  0
 10 25  4  0  0  0  0
 11 12  1  0  0  0  0
 11 13  4  0  0  0  0
 13 14  1  0  0  0  0
 13 24  4  0  0  0  0
 14 15  1  0  0  0  0
 15 16  1  0  0  0  0
 16 17  1  0  0  0  0
 17 18  1  0  0  0  0
 18 19  1  0  0  0  0
 18 23  1  0  0  0  0
 19 20  1  0  0  0  0
 20 21  1  0  0  0  0
 21 22  1  0  0  0  0
 22 23  1  0  0  0  0
 24 25  4  0  0  0  0
M  END
>  <Name_Molregno>
474748

>  <HISTAMINE H3>
7.85

$$$$
474749
  Marvin  02231216192D 0   1.00000     0.00000     0

 25 27  0  0  0  0  0  0  0  0999 V2000
   -0.0705    0.7953    0.0000 Cl  0  0  0  0  0  0  0  0  0
    0.7499    0.7090    0.0000 C   0  0  0  0  0  0  0  0  0
    1.2349    1.3765    0.0000 C   0  0  0  0  0  0  0  0  0
    2.0553    1.2902    0.0000 C   0  0  0  0  0  0  0  0  0
    2.3909    0.5366    0.0000 C   0  0  0  0  0  0  0  0  0
    1.9060   -0.1309    0.0000 C   0  0  0  0  0  0  0  0  0
    1.0855   -0.0446    0.0000 C   0  0  0  0  0  0  0  0  0
    3.2114    0.4503    0.0000 C   0  0  0  0  0  0  0  0  0
    3.6963    1.1178    0.0000 O   0  0  0  0  0  0  0  0  0
    3.5469   -0.3033    0.0000 C   0  0  0  0  0  0  0  0  0
    4.3539   -0.4749    0.0000 N   0  0  0  0  0  0  0  0  0
    4.9670    0.0772    0.0000 C   0  0  0  0  0  0  0  0  0
    4.4401   -1.2954    0.0000 C   0  0  0  0  0  0  0  0  0
    3.6865   -1.6309    0.0000 N   0  0  0  0  0  0  0  0  0
    3.1344   -1.0178    0.0000 C   0  0  0  0  0  0  0  0  0
    5.1546   -1.7079    0.0000 N   0  0  0  0  0  0  0  0  0
    5.8691   -1.2954    0.0000 C   0  0  0  0  0  0  0  0  0
    6.5836   -1.7079    0.0000 C   0  0  0  0  0  0  0  0  0
    7.2980   -1.2954    0.0000 C   0  0  0  0  0  0  0  0  0
    8.0125   -1.7079    0.0000 N   0  0  0  0  0  0  0  0  0
    8.7270   -1.2954    0.0000 C   0  0  0  0  0  0  0  0  0
    9.4414   -1.7079    0.0000 C   0  0  0  0  0  0  0  0  0
    9.4414   -2.5329    0.0000 C   0  0  0  0  0  0  0  0  0
    8.7270   -2.9454    0.0000 C   0  0  0  0  0  0  0  0  0
    8.0125   -2.5329    0.0000 C   0  0  0  0  0  0  0  0  0
  1  2  1  0  0  0  0
  2  3  4  0  0  0  0
  2  7  4  0  0  0  0
  3  4  4  0  0  0  0
  4  5  4  0  0  0  0
  5  6  4  0  0  0  0
  5  8  1  0  0  0  0
  6  7  4  0  0  0  0
  8  9  2  0  0  0  0
  8 10  1  0  0  0  0
 10 11  4  0  0  0  0
 10 15  4  0  0  0  0
 11 12  1  0  0  0  0
 11 13  4  0  0  0  0
 13 14  4  0  0  0  0
 13 16  1  0  0  0  0
 14 15  4  0  0  0  0
 16 17  1  0  0  0  0
 17 18  1  0  0  0  0
 18 19  1  0  0  0  0
 19 20  1  0  0  0  0
 20 21  1  0  0  0  0
 20 25  1  0  0  0  0
 21 22  1  0  0  0  0
 22 23  1  0  0  0  0
 23 24  1  0  0  0  0
 24 25  1  0  0  0  0
M  END
>  <Name_Molregno>
474749

>  <HISTAMINE H3>
7.3

$$$$
474750
  Marvin  02231216192D 0   1.00000     0.00000     0

 25 27  0  0  0  0  0  0  0  0999 V2000
   -0.0705    2.1772    0.0000 Cl  0  0  0  0  0  0  0  0  0
    0.7499    2.0909    0.0000 C   0  0  0  0  0  0  0  0  0
    1.2349    2.7584    0.0000 C   0  0  0  0  0  0  0  0  0
    2.0553    2.6721    0.0000 C   0  0  0  0  0  0  0  0  0
    2.3909    1.9184    0.0000 C   0  0  0  0  0  0  0  0  0
    1.9060    1.2510    0.0000 C   0  0  0  0  0  0  0  0  0
    1.0855    1.3372    0.0000 C   0  0  0  0  0  0  0  0  0
    3.2114    1.8322    0.0000 C   0  0  0  0  0  0  0  0  0
    3.6963    2.4997    0.0000 O   0  0  0  0  0  0  0  0  0
    3.5469    1.0785    0.0000 C   0  0  0  0  0  0  0  0  0
    4.3539    0.9070    0.0000 N   0  0  0  0  0  0  0  0  0
    4.9670    1.4590    0.0000 C   0  0  0  0  0  0  0  0  0
    4.4401    0.0865    0.0000 C   0  0  0  0  0  0  0  0  0
    5.1546   -0.3260    0.0000 S   0  0  0  0  0  0  0  0  0
    5.8691    0.0865    0.0000 C   0  0  0  0  0  0  0  0  0
    6.5836   -0.3260    0.0000 C   0  0  0  0  0  0  0  0  0
    7.2980    0.0865    0.0000 C   0  0  0  0  0  0  0  0  0
    8.0125   -0.3260    0.0000 N   0  0  0  0  0  0  0  0  0
    8.7270    0.0865    0.0000 C   0  0  0  0  0  0  0  0  0
    9.4414   -0.3260    0.0000 C   0  0  0  0  0  0  0  0  0
    9.4414   -1.1510    0.0000 C   0  0  0  0  0  0  0  0  0
    8.7270   -1.5635    0.0000 C   0  0  0  0  0  0  0  0  0
    8.0125   -1.1510    0.0000 C   0  0  0  0  0  0  0  0  0
    3.6865   -0.2490    0.0000 N   0  0  0  0  0  0  0  0  0
    3.1344    0.3641    0.0000 C   0  0  0  0  0  0  0  0  0
  1  2  1  0  0  0  0
  2  3  4  0  0  0  0
  2  7  4  0  0  0  0
  3  4  4  0  0  0  0
  4  5  4  0  0  0  0
  5  6  4  0  0  0  0
  5  8  1  0  0  0  0
  6  7  4  0  0  0  0
  8  9  2  0  0  0  0
  8 10  1  0  0  0  0
 10 11  4  0  0  0  0
 10 25  4  0  0  0  0
 11 12  1  0  0  0  0
 11 13  4  0  0  0  0
 13 14  1  0  0  0  0
 13 24  4  0  0  0  0
 14 15  1  0  0  0  0
 15 16  1  0  0  0  0
 16 17  1  0  0  0  0
 17 18  1  0  0  0  0
 18 19  1  0  0  0  0
 18 23  1  0  0  0  0
 19 20  1  0  0  0  0
 20 21  1  0  0  0  0
 21 22  1  0  0  0  0
 22 23  1  0  0  0  0
 24 25  4  0  0  0  0
M  END
>  <Name_Molregno>
474750

>  <HISTAMINE H3>
8.22

$$$$
474809
  Marvin  02231216192D 0   1.00000     0.00000     0

 25 27  0  0  0  0  0  0  0  0999 V2000
    0.9603    1.1136    0.0000 Cl  0  0  0  0  0  0  0  0  0
    1.6748    0.7011    0.0000 C   0  0  0  0  0  0  0  0  0
    2.3892    1.1136    0.0000 C   0  0  0  0  0  0  0  0  0
    3.1037    0.7011    0.0000 C   0  0  0  0  0  0  0  0  0
    3.1037   -0.1239    0.0000 C   0  0  0  0  0  0  0  0  0
    2.3892   -0.5364    0.0000 C   0  0  0  0  0  0  0  0  0
    1.6748   -0.1239    0.0000 C   0  0  0  0  0  0  0  0  0
    3.8182   -0.5364    0.0000 C   0  0  0  0  0  0  0  0  0
    4.5326   -0.1239    0.0000 O   0  0  0  0  0  0  0  0  0
    3.8182   -1.3614    0.0000 C   0  0  0  0  0  0  0  0  0
    4.4856   -1.8464    0.0000 N   0  0  0  0  0  0  0  0  0
    5.2702   -1.5914    0.0000 C   0  0  0  0  0  0  0  0  0
    4.2307   -2.6310    0.0000 C   0  0  0  0  0  0  0  0  0
    4.7156   -3.2984    0.0000 S   0  0  0  0  0  0  0  0  0
    4.3800   -4.0521    0.0000 C   0  0  0  0  0  0  0  0  0
    4.8650   -4.7195    0.0000 C   0  0  0  0  0  0  0  0  0
    4.5294   -5.4732    0.0000 C   0  0  0  0  0  0  0  0  0
    3.7089   -5.5595    0.0000 N   0  0  0  0  0  0  0  0  0
    3.2240   -4.8920    0.0000 C   0  0  0  0  0  0  0  0  0
    3.5596   -4.1383    0.0000 C   0  0  0  0  0  0  0  0  0
    3.3734   -6.3131    0.0000 C   0  0  0  0  0  0  0  0  0
    3.8583   -6.9806    0.0000 C   0  0  0  0  0  0  0  0  0
    2.5529   -6.3994    0.0000 C   0  0  0  0  0  0  0  0  0
    3.4057   -2.6310    0.0000 N   0  0  0  0  0  0  0  0  0
    3.1507   -1.8464    0.0000 C   0  0  0  0  0  0  0  0  0
  1  2  1  0  0  0  0
  2  3  4  0  0  0  0
  2  7  4  0  0  0  0
  3  4  4  0  0  0  0
  4  5  4  0  0  0  0
  5  6  4  0  0  0  0
  5  8  1  0  0  0  0
  6  7  4  0  0  0  0
  8  9  2  0  0  0  0
  8 10  1  0  0  0  0
 10 11  4  0  0  0  0
 10 25  4  0  0  0  0
 11 12  1  0  0  0  0
 11 13  4  0  0  0  0
 13 14  1  0  0  0  0
 13 24  4  0  0  0  0
 14 15  1  0  0  0  0
 15 16  1  0  0  0  0
 15 20  1  0  0  0  0
 16 17  1  0  0  0  0
 17 18  1  0  0  0  0
 18 19  1  0  0  0  0
 18 21  1  0  0  0  0
 19 20  1  0  0  0  0
 21 22  1  0  0  0  0
 21 23  1  0  0  0  0
 24 25  4  0  0  0  0
M  END
>  <Name_Molregno>
474809

>  <HISTAMINE H3>
8.7

$$$$
474810
  Marvin  02231216192D 0   1.00000     0.00000     0

 20 21  0  0  0  0  0  0  0  0999 V2000
    0.5188   -2.9475    0.0000 Cl  0  0  0  0  0  0  0  0  0
    1.0037   -2.2800    0.0000 C   0  0  0  0  0  0  0  0  0
    0.6682   -1.5263    0.0000 C   0  0  0  0  0  0  0  0  0
    1.1531   -0.8589    0.0000 C   0  0  0  0  0  0  0  0  0
    1.9736   -0.9451    0.0000 C   0  0  0  0  0  0  0  0  0
    2.3091   -1.6988    0.0000 C   0  0  0  0  0  0  0  0  0
    1.8242   -2.3663    0.0000 C   0  0  0  0  0  0  0  0  0
    2.4585   -0.2777    0.0000 C   0  0  0  0  0  0  0  0  0
    3.2790   -0.3639    0.0000 C   0  0  0  0  0  0  0  0  0
    3.8310    0.2492    0.0000 N   0  0  0  0  0  0  0  0  0
    3.6595    1.0561    0.0000 C   0  0  0  0  0  0  0  0  0
    4.5847   -0.0864    0.0000 C   0  0  0  0  0  0  0  0  0
    5.2992    0.3261    0.0000 S   0  0  0  0  0  0  0  0  0
    6.0136   -0.0864    0.0000 C   0  0  0  0  0  0  0  0  0
    6.7281    0.3261    0.0000 C   0  0  0  0  0  0  0  0  0
    7.4426   -0.0864    0.0000 N   0  0  0  0  0  0  0  0  0
    8.1570    0.3261    0.0000 C   0  0  0  0  0  0  0  0  0
    7.4426   -0.9114    0.0000 C   0  0  0  0  0  0  0  0  0
    4.4985   -0.9069    0.0000 N   0  0  0  0  0  0  0  0  0
    3.6915   -1.0784    0.0000 C   0  0  0  0  0  0  0  0  0
  1  2  1  0  0  0  0
  2  3  4  0  0  0  0
  2  7  4  0  0  0  0
  3  4  4  0  0  0  0
  4  5  4  0  0  0  0
  5  6  4  0  0  0  0
  5  8  1  0  0  0  0
  6  7  4  0  0  0  0
  8  9  1  0  0  0  0
  9 10  4  0  0  0  0
  9 20  4  0  0  0  0
 10 11  1  0  0  0  0
 10 12  4  0  0  0  0
 12 13  1  0  0  0  0
 12 19  4  0  0  0  0
 13 14  1  0  0  0  0
 14 15  1  0  0  0  0
 15 16  1  0  0  0  0
 16 17  1  0  0  0  0
 16 18  1  0  0  0  0
 19 20  4  0  0  0  0
M  END
>  <Name_Molregno>
474810

>  <HISTAMINE H3>
7.15

$$$$
474811
  Marvin  02231216192D 0   1.00000     0.00000     0

 21 22  0  0  0  0  0  0  0  0999 V2000
   -0.9404   -1.3141    0.0000 Cl  0  0  0  0  0  0  0  0  0
   -0.1199   -1.4003    0.0000 C   0  0  0  0  0  0  0  0  0
    0.3650   -0.7329    0.0000 C   0  0  0  0  0  0  0  0  0
    1.1855   -0.8191    0.0000 C   0  0  0  0  0  0  0  0  0
    1.5211   -1.5728    0.0000 C   0  0  0  0  0  0  0  0  0
    1.0362   -2.2402    0.0000 C   0  0  0  0  0  0  0  0  0
    0.2157   -2.1540    0.0000 C   0  0  0  0  0  0  0  0  0
    2.3416   -1.6590    0.0000 C   0  0  0  0  0  0  0  0  0
    2.6771   -2.4127    0.0000 C   0  0  0  0  0  0  0  0  0
    3.4841   -2.5842    0.0000 N   0  0  0  0  0  0  0  0  0
    4.0972   -2.0322    0.0000 C   0  0  0  0  0  0  0  0  0
    3.5703   -3.4047    0.0000 C   0  0  0  0  0  0  0  0  0
    4.2848   -3.8172    0.0000 S   0  0  0  0  0  0  0  0  0
    4.9993   -3.4047    0.0000 C   0  0  0  0  0  0  0  0  0
    5.7137   -3.8172    0.0000 C   0  0  0  0  0  0  0  0  0
    6.4282   -3.4047    0.0000 C   0  0  0  0  0  0  0  0  0
    7.1427   -3.8172    0.0000 N   0  0  0  0  0  0  0  0  0
    7.8572   -3.4047    0.0000 C   0  0  0  0  0  0  0  0  0
    7.1427   -4.6422    0.0000 C   0  0  0  0  0  0  0  0  0
    2.8167   -3.7402    0.0000 N   0  0  0  0  0  0  0  0  0
    2.2646   -3.1271    0.0000 C   0  0  0  0  0  0  0  0  0
  1  2  1  0  0  0  0
  2  3  4  0  0  0  0
  2  7  4  0  0  0  0
  3  4  4  0  0  0  0
  4  5  4  0  0  0  0
  5  6  4  0  0  0  0
  5  8  1  0  0  0  0
  6  7  4  0  0  0  0
  8  9  1  0  0  0  0
  9 10  4  0  0  0  0
  9 21  4  0  0  0  0
 10 11  1  0  0  0  0
 10 12  4  0  0  0  0
 12 13  1  0  0  0  0
 12 20  4  0  0  0  0
 13 14  1  0  0  0  0
 14 15  1  0  0  0  0
 15 16  1  0  0  0  0
 16 17  1  0  0  0  0
 17 18  1  0  0  0  0
 17 19  1  0  0  0  0
 20 21  4  0  0  0  0
M  END
>  <Name_Molregno>
474811

>  <HISTAMINE H3>
7.7

$$$$
474812
  Marvin  02231216192D 0   1.00000     0.00000     0

 22 23  0  0  0  0  0  0  0  0999 V2000
   -0.0612    0.7238    0.0000 Cl  0  0  0  0  0  0  0  0  0
    0.7593    0.6376    0.0000 C   0  0  0  0  0  0  0  0  0
    1.2442    1.3050    0.0000 C   0  0  0  0  0  0  0  0  0
    2.0647    1.2188    0.0000 C   0  0  0  0  0  0  0  0  0
    2.4003    0.4651    0.0000 C   0  0  0  0  0  0  0  0  0
    1.9154   -0.2023    0.0000 C   0  0  0  0  0  0  0  0  0
    1.0949   -0.1161    0.0000 C   0  0  0  0  0  0  0  0  0
    3.2208    0.3789    0.0000 C   0  0  0  0  0  0  0  0  0
    3.7057    1.0463    0.0000 O   0  0  0  0  0  0  0  0  0
    3.5563   -0.3748    0.0000 C   0  0  0  0  0  0  0  0  0
    4.3633   -0.5463    0.0000 N   0  0  0  0  0  0  0  0  0
    4.9764    0.0057    0.0000 C   0  0  0  0  0  0  0  0  0
    4.4495   -1.3668    0.0000 C   0  0  0  0  0  0  0  0  0
    5.1640   -1.7793    0.0000 S   0  0  0  0  0  0  0  0  0
    5.8785   -1.3668    0.0000 C   0  0  0  0  0  0  0  0  0
    6.5929   -1.7793    0.0000 C   0  0  0  0  0  0  0  0  0
    7.3074   -1.3668    0.0000 C   0  0  0  0  0  0  0  0  0
    8.0219   -1.7793    0.0000 C   0  0  0  0  0  0  0  0  0
    8.7364   -1.3668    0.0000 C   0  0  0  0  0  0  0  0  0
    8.0219   -2.6043    0.0000 C   0  0  0  0  0  0  0  0  0
    3.6959   -1.7024    0.0000 N   0  0  0  0  0  0  0  0  0
    3.1438   -1.0893    0.0000 C   0  0  0  0  0  0  0  0  0
  1  2  1  0  0  0  0
  2  3  4  0  0  0  0
  2  7  4  0  0  0  0
  3  4  4  0  0  0  0
  4  5  4  0  0  0  0
  5  6  4  0  0  0  0
  5  8  1  0  0  0  0
  6  7  4  0  0  0  0
  8  9  2  0  0  0  0
  8 10  1  0  0  0  0
 10 11  4  0  0  0  0
 10 22  4  0  0  0  0
 11 12  1  0  0  0  0
 11 13  4  0  0  0  0
 13 14  1  0  0  0  0
 13 21  4  0  0  0  0
 14 15  1  0  0  0  0
 15 16  1  0  0  0  0
 16 17  1  0  0  0  0
 17 18  1  0  0  0  0
 18 19  1  0  0  0  0
 18 20  1  0  0  0  0
 21 22  4  0  0  0  0
M  END
>  <Name_Molregno>
474812

>  <HISTAMINE H3>
5.3

$$$$
474813
  Marvin  02231216192D 0   1.00000     0.00000     0

 22 23  0  0  0  0  0  0  0  0999 V2000
   -0.0612    0.7238    0.0000 Cl  0  0  0  0  0  0  0  0  0
    0.7593    0.6376    0.0000 C   0  0  0  0  0  0  0  0  0
    1.2442    1.3050    0.0000 C   0  0  0  0  0  0  0  0  0
    2.0647    1.2188    0.0000 C   0  0  0  0  0  0  0  0  0
    2.4003    0.4651    0.0000 C   0  0  0  0  0  0  0  0  0
    1.9154   -0.2023    0.0000 C   0  0  0  0  0  0  0  0  0
    1.0949   -0.1161    0.0000 C   0  0  0  0  0  0  0  0  0
    3.2208    0.3789    0.0000 C   0  0  0  0  0  0  0  0  0
    3.7057    1.0463    0.0000 O   0  0  0  0  0  0  0  0  0
    3.5563   -0.3748    0.0000 C   0  0  0  0  0  0  0  0  0
    4.3633   -0.5463    0.0000 N   0  0  0  0  0  0  0  0  0
    4.9764    0.0057    0.0000 C   0  0  0  0  0  0  0  0  0
    4.4495   -1.3668    0.0000 C   0  0  0  0  0  0  0  0  0
    5.1640   -1.7793    0.0000 S   0  0  0  0  0  0  0  0  0
    5.8785   -1.3668    0.0000 C   0  0  0  0  0  0  0  0  0
    6.5929   -1.7793    0.0000 C   0  0  0  0  0  0  0  0  0
    7.3074   -1.3668    0.0000 C   0  0  0  0  0  0  0  0  0
    8.0219   -1.7793    0.0000 N   0  0  0  0  0  0  0  0  0
    8.7364   -1.3668    0.0000 C   0  0  0  0  0  0  0  0  0
    8.0219   -2.6043    0.0000 C   0  0  0  0  0  0  0  0  0
    3.6959   -1.7024    0.0000 N   0  0  0  0  0  0  0  0  0
    3.1438   -1.0893    0.0000 C   0  0  0  0  0  0  0  0  0
  1  2  1  0  0  0  0
  2  3  4  0  0  0  0
  2  7  4  0  0  0  0
  3  4  4  0  0  0  0
  4  5  4  0  0  0  0
  5  6  4  0  0  0  0
  5  8  1  0  0  0  0
  6  7  4  0  0  0  0
  8  9  2  0  0  0  0
  8 10  1  0  0  0  0
 10 11  4  0  0  0  0
 10 22  4  0  0  0  0
 11 12  1  0  0  0  0
 11 13  4  0  0  0  0
 13 14  1  0  0  0  0
 13 21  4  0  0  0  0
 14 15  1  0  0  0  0
 15 16  1  0  0  0  0
 16 17  1  0  0  0  0
 17 18  1  0  0  0  0
 18 19  1  0  0  0  0
 18 20  1  0  0  0  0
 21 22  4  0  0  0  0
M  END
>  <Name_Molregno>
474813

>  <HISTAMINE H3>
8.3

$$$$
474814
  Marvin  02231216192D 0   1.00000     0.00000     0

 23 24  0  0  0  0  0  0  0  0999 V2000
   -0.1479    0.3089    0.0000 Cl  0  0  0  0  0  0  0  0  0
    0.6726    0.2227    0.0000 C   0  0  0  0  0  0  0  0  0
    1.1575    0.8901    0.0000 C   0  0  0  0  0  0  0  0  0
    1.9780    0.8039    0.0000 C   0  0  0  0  0  0  0  0  0
    2.3135    0.0502    0.0000 C   0  0  0  0  0  0  0  0  0
    1.8286   -0.6172    0.0000 C   0  0  0  0  0  0  0  0  0
    1.0081   -0.5310    0.0000 C   0  0  0  0  0  0  0  0  0
    3.1340   -0.0360    0.0000 C   0  0  0  0  0  0  0  0  0
    3.6189    0.6314    0.0000 N   0  0  0  0  0  0  0  0  0
    4.4394    0.5452    0.0000 O   0  0  0  0  0  0  0  0  0
    3.4696   -0.7897    0.0000 C   0  0  0  0  0  0  0  0  0
    4.2765   -0.9612    0.0000 N   0  0  0  0  0  0  0  0  0
    4.8896   -0.4092    0.0000 C   0  0  0  0  0  0  0  0  0
    4.3628   -1.7817    0.0000 C   0  0  0  0  0  0  0  0  0
    5.0772   -2.1942    0.0000 S   0  0  0  0  0  0  0  0  0
    5.7917   -1.7817    0.0000 C   0  0  0  0  0  0  0  0  0
    6.5062   -2.1942    0.0000 C   0  0  0  0  0  0  0  0  0
    7.2207   -1.7817    0.0000 C   0  0  0  0  0  0  0  0  0
    7.9351   -2.1942    0.0000 N   0  0  0  0  0  0  0  0  0
    8.6496   -1.7817    0.0000 C   0  0  0  0  0  0  0  0  0
    7.9351   -3.0192    0.0000 C   0  0  0  0  0  0  0  0  0
    3.6091   -2.1173    0.0000 N   0  0  0  0  0  0  0  0  0
    3.0571   -1.5042    0.0000 C   0  0  0  0  0  0  0  0  0
  1  2  1  0  0  0  0
  2  3  4  0  0  0  0
  2  7  4  0  0  0  0
  3  4  4  0  0  0  0
  4  5  4  0  0  0  0
  5  6  4  0  0  0  0
  5  8  1  0  0  0  0
  6  7  4  0  0  0  0
  8  9  2  0  0  0  0
  8 11  1  0  0  0  0
  9 10  1  0  0  0  0
 11 12  4  0  0  0  0
 11 23  4  0  0  0  0
 12 13  1  0  0  0  0
 12 14  4  0  0  0  0
 14 15  1  0  0  0  0
 14 22  4  0  0  0  0
 15 16  1  0  0  0  0
 16 17  1  0  0  0  0
 17 18  1  0  0  0  0
 18 19  1  0  0  0  0
 19 20  1  0  0  0  0
 19 21  1  0  0  0  0
 22 23  4  0  0  0  0
M  END
>  <Name_Molregno>
474814

>  <HISTAMINE H3>
8.7

$$$$
486105
  Marvin  02231216192D 0   1.00000     0.00000     0

 14 15  0  0  0  0  0  0  0  0999 V2000
    1.2916   -2.7218    0.0000 N   0  0  0  0  0  0  0  0  0
    1.0367   -1.9372    0.0000 C   0  0  0  0  0  0  0  0  0
    1.7041   -1.4522    0.0000 C   0  0  0  0  0  0  0  0  0
    2.3716   -1.9372    0.0000 N   0  0  0  0  0  0  0  0  0
    2.1166   -2.7218    0.0000 C   0  0  0  0  0  0  0  0  0
    1.7041   -0.6272    0.0000 C   0  0  0  0  0  0  0  0  0
    2.4186   -0.2147    0.0000 C   0  0  0  0  0  0  0  0  0
    2.4186    0.6103    0.0000 C   0  0  0  0  0  0  0  0  0
    3.1331    1.0228    0.0000 C   0  0  0  0  0  0  0  0  0
    3.8475    0.6103    0.0000 C   0  0  0  0  0  0  0  0  0
    3.8475   -0.2147    0.0000 C   0  0  0  0  0  0  0  0  0
    3.1331   -0.6272    0.0000 C   0  0  0  0  0  0  0  0  0
    3.1331    1.8478    0.0000 C   0  0  0  0  0  0  0  0  0
    3.1331    2.6728    0.0000 N   0  0  0  0  0  0  0  0  0
  1  2  4  0  0  0  0
  1  5  4  0  0  0  0
  2  3  4  0  0  0  0
  3  4  4  0  0  0  0
  3  6  1  0  0  0  0
  4  5  4  0  0  0  0
  6  7  1  0  0  0  0
  7  8  4  0  0  0  0
  7 12  4  0  0  0  0
  8  9  4  0  0  0  0
  9 10  4  0  0  0  0
  9 13  1  0  0  0  0
 10 11  4  0  0  0  0
 11 12  4  0  0  0  0
 13 14  3  0  0  0  0
M  STY  1   1 DAT
M  SAL   1  1   1
M  SDT   1 MRV_IMPLICIT_H                                        
M  SDD   1     0.0000    0.0000    DR    ALL  0       0  
M  SED   1 IMPL_H1
M  END
>  <Name_Molregno>
486105

>  <HISTAMINE H3>
6.81

$$$$
486106
  Marvin  02231216192D 0   1.00000     0.00000     0

 12 13  0  0  0  0  0  0  0  0999 V2000
   -2.8320   -1.1639    0.0000 N   0  0  0  0  0  0  0  0  0
   -3.0870   -0.3793    0.0000 C   0  0  0  0  0  0  0  0  0
   -2.4195    0.1057    0.0000 C   0  0  0  0  0  0  0  0  0
   -1.7521   -0.3793    0.0000 N   0  0  0  0  0  0  0  0  0
   -2.0070   -1.1639    0.0000 C   0  0  0  0  0  0  0  0  0
   -2.4195    0.9307    0.0000 C   0  0  0  0  0  0  0  0  0
   -1.7050    1.3432    0.0000 C   0  0  0  0  0  0  0  0  0
   -1.7050    2.1682    0.0000 C   0  0  0  0  0  0  0  0  0
   -0.9906    2.5807    0.0000 C   0  0  0  0  0  0  0  0  0
   -0.2761    2.1682    0.0000 C   0  0  0  0  0  0  0  0  0
   -0.2761    1.3432    0.0000 C   0  0  0  0  0  0  0  0  0
   -0.9906    0.9307    0.0000 C   0  0  0  0  0  0  0  0  0
  1  2  4  0  0  0  0
  1  5  4  0  0  0  0
  2  3  4  0  0  0  0
  3  4  4  0  0  0  0
  3  6  1  0  0  0  0
  4  5  4  0  0  0  0
  6  7  1  0  0  0  0
  7  8  4  0  0  0  0
  7 12  4  0  0  0  0
  8  9  4  0  0  0  0
  9 10  4  0  0  0  0
 10 11  4  0  0  0  0
 11 12  4  0  0  0  0
M  STY  1   1 DAT
M  SAL   1  1   1
M  SDT   1 MRV_IMPLICIT_H                                        
M  SDD   1     0.0000    0.0000    DR    ALL  0       0  
M  SED   1 IMPL_H1
M  END
>  <Name_Molregno>
486106

>  <HISTAMINE H3>
6.79

$$$$
486107
  Marvin  02231216192D 0   1.00000     0.00000     0

  9  9  0  0  0  0  0  0  0  0999 V2000
    1.6242   -1.7485    0.0000 N   0  0  0  0  0  0  0  0  0
    1.3693   -0.9639    0.0000 C   0  0  0  0  0  0  0  0  0
    2.0367   -0.4789    0.0000 C   0  0  0  0  0  0  0  0  0
    2.7041   -0.9639    0.0000 N   0  0  0  0  0  0  0  0  0
    2.4492   -1.7485    0.0000 C   0  0  0  0  0  0  0  0  0
    2.0367    0.3461    0.0000 C   0  0  0  0  0  0  0  0  0
    1.3222    0.7586    0.0000 C   0  0  0  0  0  0  0  0  0
    1.3222    1.5836    0.0000 C   0  0  0  0  0  0  0  0  0
    0.6078    1.9961    0.0000 C   0  0  0  0  0  0  0  0  0
  1  2  4  0  0  0  0
  1  5  4  0  0  0  0
  2  3  4  0  0  0  0
  3  4  4  0  0  0  0
  3  6  1  0  0  0  0
  4  5  4  0  0  0  0
  6  7  1  0  0  0  0
  7  8  1  0  0  0  0
  8  9  1  0  0  0  0
M  STY  1   1 DAT
M  SAL   1  1   1
M  SDT   1 MRV_IMPLICIT_H                                        
M  SDD   1     0.0000    0.0000    DR    ALL  0       0  
M  SED   1 IMPL_H1
M  END
>  <Name_Molregno>
486107

>  <HISTAMINE H3>
7.6

$$$$
486162
  Marvin  02231216192D 0   1.00000     0.00000     0

 19 21  0  0  0  0  0  0  0  0999 V2000
   -0.4647   -0.0901    0.0000 O   0  0  0  0  0  0  0  0  0
   -0.7196    0.6946    0.0000 C   0  0  0  0  0  0  0  0  0
   -0.0522    1.1795    0.0000 C   0  0  0  0  0  0  0  0  0
    0.6152    0.6946    0.0000 N   0  0  0  0  0  0  0  0  0
    0.3603   -0.0901    0.0000 C   0  0  0  0  0  0  0  0  0
    0.8452   -0.7575    0.0000 C   0  0  0  0  0  0  0  0  0
    1.6657   -0.6713    0.0000 C   0  0  0  0  0  0  0  0  0
    2.1506   -1.3387    0.0000 C   0  0  0  0  0  0  0  0  0
    1.8151   -2.0924    0.0000 C   0  0  0  0  0  0  0  0  0
    0.9946   -2.1786    0.0000 C   0  0  0  0  0  0  0  0  0
    0.5097   -1.5112    0.0000 C   0  0  0  0  0  0  0  0  0
    2.9711   -1.2525    0.0000 C   0  0  0  0  0  0  0  0  0
    3.4560   -1.9199    0.0000 C   0  0  0  0  0  0  0  0  0
    4.2810   -1.9199    0.0000 N   0  0  0  0  0  0  0  0  0
    4.5360   -2.7045    0.0000 C   0  0  0  0  0  0  0  0  0
    3.8685   -3.1894    0.0000 N   0  0  0  0  0  0  0  0  0
    3.2011   -2.7045    0.0000 C   0  0  0  0  0  0  0  0  0
   -0.4572    1.8982    0.0000 C   0  0  0  0  0  0  0  0  0
    0.3528    1.8982    0.0000 C   0  0  0  0  0  0  0  0  0
  1  2  1  0  0  0  0
  1  5  1  0  0  0  0
  2  3  1  0  0  0  0
  3  4  1  0  0  0  0
  3 18  1  0  0  0  0
  3 19  1  0  0  0  0
  4  5  2  0  0  0  0
  5  6  1  0  0  0  0
  6  7  4  0  0  0  0
  6 11  4  0  0  0  0
  7  8  4  0  0  0  0
  8  9  4  0  0  0  0
  8 12  1  0  0  0  0
  9 10  4  0  0  0  0
 10 11  4  0  0  0  0
 12 13  1  0  0  0  0
 13 14  4  0  0  0  0
 13 17  4  0  0  0  0
 14 15  4  0  0  0  0
 15 16  4  0  0  0  0
 16 17  4  0  0  0  0
M  STY  1   1 DAT
M  SAL   1  1  16
M  SDT   1 MRV_IMPLICIT_H                                        
M  SDD   1     0.0000    0.0000    DR    ALL  0       0  
M  SED   1 IMPL_H1
M  END
>  <Name_Molregno>
486162

>  <HISTAMINE H3>
8.4

$$$$
486163
  Marvin  02231216192D 0   1.00000     0.00000     0

 18 20  0  0  0  0  0  0  0  0999 V2000
    1.8602   -3.4514    0.0000 N   0  0  0  0  0  0  0  0  0
    1.6053   -2.6667    0.0000 C   0  0  0  0  0  0  0  0  0
    2.2727   -2.1818    0.0000 C   0  0  0  0  0  0  0  0  0
    2.9401   -2.6667    0.0000 N   0  0  0  0  0  0  0  0  0
    2.6852   -3.4514    0.0000 C   0  0  0  0  0  0  0  0  0
    2.2727   -1.3568    0.0000 C   0  0  0  0  0  0  0  0  0
    2.9872   -0.9443    0.0000 C   0  0  0  0  0  0  0  0  0
    2.9872   -0.1193    0.0000 C   0  0  0  0  0  0  0  0  0
    3.7016    0.2932    0.0000 C   0  0  0  0  0  0  0  0  0
    4.4161   -0.1193    0.0000 C   0  0  0  0  0  0  0  0  0
    4.4161   -0.9443    0.0000 C   0  0  0  0  0  0  0  0  0
    3.7016   -1.3568    0.0000 C   0  0  0  0  0  0  0  0  0
    3.7016    1.1182    0.0000 C   0  0  0  0  0  0  0  0  0
    2.9872    1.5307    0.0000 C   0  0  0  0  0  0  0  0  0
    2.9872    2.3557    0.0000 C   0  0  0  0  0  0  0  0  0
    3.7016    2.7682    0.0000 C   0  0  0  0  0  0  0  0  0
    4.4161    2.3557    0.0000 C   0  0  0  0  0  0  0  0  0
    4.4161    1.5307    0.0000 C   0  0  0  0  0  0  0  0  0
  1  2  4  0  0  0  0
  1  5  4  0  0  0  0
  2  3  4  0  0  0  0
  3  4  4  0  0  0  0
  3  6  1  0  0  0  0
  4  5  4  0  0  0  0
  6  7  1  0  0  0  0
  7  8  4  0  0  0  0
  7 12  4  0  0  0  0
  8  9  4  0  0  0  0
  9 10  4  0  0  0  0
  9 13  1  0  0  0  0
 10 11  4  0  0  0  0
 11 12  4  0  0  0  0
 13 14  4  0  0  0  0
 13 18  4  0  0  0  0
 14 15  4  0  0  0  0
 15 16  4  0  0  0  0
 16 17  4  0  0  0  0
 17 18  4  0  0  0  0
M  STY  1   1 DAT
M  SAL   1  1   1
M  SDT   1 MRV_IMPLICIT_H                                        
M  SDD   1     0.0000    0.0000    DR    ALL  0       0  
M  SED   1 IMPL_H1
M  END
>  <Name_Molregno>
486163

>  <HISTAMINE H3>
7.48

$$$$
486164
  Marvin  02231216192D 0   1.00000     0.00000     0

 18 20  0  0  0  0  0  0  0  0999 V2000
    1.8602   -3.4514    0.0000 N   0  0  0  0  0  0  0  0  0
    1.6053   -2.6667    0.0000 C   0  0  0  0  0  0  0  0  0
    2.2727   -2.1818    0.0000 C   0  0  0  0  0  0  0  0  0
    2.9401   -2.6667    0.0000 N   0  0  0  0  0  0  0  0  0
    2.6852   -3.4514    0.0000 C   0  0  0  0  0  0  0  0  0
    2.2727   -1.3568    0.0000 C   0  0  0  0  0  0  0  0  0
    2.9872   -0.9443    0.0000 C   0  0  0  0  0  0  0  0  0
    2.9872   -0.1193    0.0000 C   0  0  0  0  0  0  0  0  0
    3.7016    0.2932    0.0000 C   0  0  0  0  0  0  0  0  0
    4.4161   -0.1193    0.0000 C   0  0  0  0  0  0  0  0  0
    4.4161   -0.9443    0.0000 C   0  0  0  0  0  0  0  0  0
    3.7016   -1.3568    0.0000 C   0  0  0  0  0  0  0  0  0
    3.7016    1.1182    0.0000 C   0  0  0  0  0  0  0  0  0
    2.9872    1.5307    0.0000 N   0  0  0  0  0  0  0  0  0
    2.9872    2.3557    0.0000 C   0  0  0  0  0  0  0  0  0
    3.7016    2.7682    0.0000 C   0  0  0  0  0  0  0  0  0
    4.4161    2.3557    0.0000 C   0  0  0  0  0  0  0  0  0
    4.4161    1.5307    0.0000 C   0  0  0  0  0  0  0  0  0
  1  2  4  0  0  0  0
  1  5  4  0  0  0  0
  2  3  4  0  0  0  0
  3  4  4  0  0  0  0
  3  6  1  0  0  0  0
  4  5  4  0  0  0  0
  6  7  1  0  0  0  0
  7  8  4  0  0  0  0
  7 12  4  0  0  0  0
  8  9  4  0  0  0  0
  9 10  4  0  0  0  0
  9 13  1  0  0  0  0
 10 11  4  0  0  0  0
 11 12  4  0  0  0  0
 13 14  4  0  0  0  0
 13 18  4  0  0  0  0
 14 15  4  0  0  0  0
 15 16  4  0  0  0  0
 16 17  4  0  0  0  0
 17 18  4  0  0  0  0
M  STY  1   1 DAT
M  SAL   1  1   1
M  SDT   1 MRV_IMPLICIT_H                                        
M  SDD   1     0.0000    0.0000    DR    ALL  0       0  
M  SED   1 IMPL_H1
M  END
>  <Name_Molregno>
486164

>  <HISTAMINE H3>
7.39

$$$$
486165
  Marvin  02231216192D 0   1.00000     0.00000     0

 18 20  0  0  0  0  0  0  0  0999 V2000
    1.8602   -3.4514    0.0000 N   0  0  0  0  0  0  0  0  0
    1.6053   -2.6667    0.0000 C   0  0  0  0  0  0  0  0  0
    2.2727   -2.1818    0.0000 C   0  0  0  0  0  0  0  0  0
    2.9401   -2.6667    0.0000 N   0  0  0  0  0  0  0  0  0
    2.6852   -3.4514    0.0000 C   0  0  0  0  0  0  0  0  0
    2.2727   -1.3568    0.0000 C   0  0  0  0  0  0  0  0  0
    2.9872   -0.9443    0.0000 C   0  0  0  0  0  0  0  0  0
    2.9872   -0.1193    0.0000 C   0  0  0  0  0  0  0  0  0
    3.7016    0.2932    0.0000 C   0  0  0  0  0  0  0  0  0
    4.4161   -0.1193    0.0000 C   0  0  0  0  0  0  0  0  0
    4.4161   -0.9443    0.0000 C   0  0  0  0  0  0  0  0  0
    3.7016   -1.3568    0.0000 C   0  0  0  0  0  0  0  0  0
    3.7016    1.1182    0.0000 C   0  0  0  0  0  0  0  0  0
    2.9872    1.5307    0.0000 C   0  0  0  0  0  0  0  0  0
    2.9872    2.3557    0.0000 C   0  0  0  0  0  0  0  0  0
    3.7016    2.7682    0.0000 N   0  0  0  0  0  0  0  0  0
    4.4161    2.3557    0.0000 C   0  0  0  0  0  0  0  0  0
    4.4161    1.5307    0.0000 C   0  0  0  0  0  0  0  0  0
  1  2  4  0  0  0  0
  1  5  4  0  0  0  0
  2  3  4  0  0  0  0
  3  4  4  0  0  0  0
  3  6  1  0  0  0  0
  4  5  4  0  0  0  0
  6  7  1  0  0  0  0
  7  8  4  0  0  0  0
  7 12  4  0  0  0  0
  8  9  4  0  0  0  0
  9 10  4  0  0  0  0
  9 13  1  0  0  0  0
 10 11  4  0  0  0  0
 11 12  4  0  0  0  0
 13 14  4  0  0  0  0
 13 18  4  0  0  0  0
 14 15  4  0  0  0  0
 15 16  4  0  0  0  0
 16 17  4  0  0  0  0
 17 18  4  0  0  0  0
M  STY  1   1 DAT
M  SAL   1  1   1
M  SDT   1 MRV_IMPLICIT_H                                        
M  SDD   1     0.0000    0.0000    DR    ALL  0       0  
M  SED   1 IMPL_H1
M  END
>  <Name_Molregno>
486165

>  <HISTAMINE H3>
6.37

$$$$
486166
  Marvin  02231216192D 0   1.00000     0.00000     0

 19 20  0  0  0  0  0  0  0  0999 V2000
   -1.2699    1.3764    0.0000 O   0  0  0  0  0  0  0  0  0
   -1.9844    0.9639    0.0000 C   0  0  0  0  0  0  0  0  0
   -2.6989    1.3764    0.0000 C   0  0  0  0  0  0  0  0  0
   -2.6989    2.2014    0.0000 C   0  0  0  0  0  0  0  0  0
   -2.6989    3.0264    0.0000 C   0  0  0  0  0  0  0  0  0
   -3.5239    2.2014    0.0000 C   0  0  0  0  0  0  0  0  0
   -1.8739    2.2014    0.0000 C   0  0  0  0  0  0  0  0  0
   -1.9844    0.1389    0.0000 C   0  0  0  0  0  0  0  0  0
   -1.2699   -0.2736    0.0000 C   0  0  0  0  0  0  0  0  0
   -1.2699   -1.0986    0.0000 C   0  0  0  0  0  0  0  0  0
   -1.9844   -1.5111    0.0000 C   0  0  0  0  0  0  0  0  0
   -2.6989   -1.0986    0.0000 C   0  0  0  0  0  0  0  0  0
   -2.6989   -0.2736    0.0000 C   0  0  0  0  0  0  0  0  0
   -0.5555   -1.5111    0.0000 C   0  0  0  0  0  0  0  0  0
   -0.5555   -2.3361    0.0000 C   0  0  0  0  0  0  0  0  0
    0.1120   -2.8210    0.0000 N   0  0  0  0  0  0  0  0  0
   -0.1430   -3.6057    0.0000 C   0  0  0  0  0  0  0  0  0
   -0.9680   -3.6057    0.0000 N   0  0  0  0  0  0  0  0  0
   -1.2229   -2.8210    0.0000 C   0  0  0  0  0  0  0  0  0
  1  2  2  0  0  0  0
  2  3  1  0  0  0  0
  2  8  1  0  0  0  0
  3  4  1  0  0  0  0
  4  5  1  0  0  0  0
  4  6  1  0  0  0  0
  4  7  1  0  0  0  0
  8  9  4  0  0  0  0
  8 13  4  0  0  0  0
  9 10  4  0  0  0  0
 10 11  4  0  0  0  0
 10 14  1  0  0  0  0
 11 12  4  0  0  0  0
 12 13  4  0  0  0  0
 14 15  1  0  0  0  0
 15 16  4  0  0  0  0
 15 19  4  0  0  0  0
 16 17  4  0  0  0  0
 17 18  4  0  0  0  0
 18 19  4  0  0  0  0
M  STY  1   1 DAT
M  SAL   1  1  18
M  SDT   1 MRV_IMPLICIT_H                                        
M  SDD   1     0.0000    0.0000    DR    ALL  0       0  
M  SED   1 IMPL_H1
M  END
>  <Name_Molregno>
486166

>  <HISTAMINE H3>
7.49

>  <HISTAMINE H4>
8.25

$$$$
486167
  Marvin  02231216192D 0   1.00000     0.00000     0

 18 19  0  0  0  0  0  0  0  0999 V2000
    2.0109   -3.7398    0.0000 N   0  0  0  0  0  0  0  0  0
    1.7559   -2.9552    0.0000 C   0  0  0  0  0  0  0  0  0
    2.4234   -2.4702    0.0000 C   0  0  0  0  0  0  0  0  0
    3.0908   -2.9552    0.0000 N   0  0  0  0  0  0  0  0  0
    2.8359   -3.7398    0.0000 C   0  0  0  0  0  0  0  0  0
    2.4234   -1.6452    0.0000 C   0  0  0  0  0  0  0  0  0
    3.1378   -1.2327    0.0000 C   0  0  0  0  0  0  0  0  0
    3.1378   -0.4077    0.0000 C   0  0  0  0  0  0  0  0  0
    3.8523    0.0048    0.0000 C   0  0  0  0  0  0  0  0  0
    4.5668   -0.4077    0.0000 C   0  0  0  0  0  0  0  0  0
    4.5668   -1.2327    0.0000 C   0  0  0  0  0  0  0  0  0
    3.8523   -1.6452    0.0000 C   0  0  0  0  0  0  0  0  0
    3.8523    0.8298    0.0000 C   0  0  0  0  0  0  0  0  0
    3.8523    1.6548    0.0000 C   0  0  0  0  0  0  0  0  0
    3.8523    2.4798    0.0000 C   0  0  0  0  0  0  0  0  0
    3.8523    3.3048    0.0000 C   0  0  0  0  0  0  0  0  0
    4.6773    2.4798    0.0000 C   0  0  0  0  0  0  0  0  0
    3.0273    2.4798    0.0000 C   0  0  0  0  0  0  0  0  0
  1  2  4  0  0  0  0
  1  5  4  0  0  0  0
  2  3  4  0  0  0  0
  3  4  4  0  0  0  0
  3  6  1  0  0  0  0
  4  5  4  0  0  0  0
  6  7  1  0  0  0  0
  7  8  4  0  0  0  0
  7 12  4  0  0  0  0
  8  9  4  0  0  0  0
  9 10  4  0  0  0  0
  9 13  1  0  0  0  0
 10 11  4  0  0  0  0
 11 12  4  0  0  0  0
 13 14  3  0  0  0  0
 14 15  1  0  0  0  0
 15 16  1  0  0  0  0
 15 17  1  0  0  0  0
 15 18  1  0  0  0  0
M  STY  1   1 DAT
M  SAL   1  1   1
M  SDT   1 MRV_IMPLICIT_H                                        
M  SDD   1     0.0000    0.0000    DR    ALL  0       0  
M  SED   1 IMPL_H1
M  END
>  <Name_Molregno>
486167

>  <HISTAMINE H3>
8.35

>  <HISTAMINE H4>
8.25

$$$$
486168
  Marvin  02231216192D 0   1.00000     0.00000     0

 20 22  0  0  0  0  0  0  0  0999 V2000
    2.4730   -3.8838    0.0000 N   0  0  0  0  0  0  0  0  0
    2.2181   -3.0992    0.0000 C   0  0  0  0  0  0  0  0  0
    2.8855   -2.6142    0.0000 C   0  0  0  0  0  0  0  0  0
    3.5530   -3.0992    0.0000 N   0  0  0  0  0  0  0  0  0
    3.2980   -3.8838    0.0000 C   0  0  0  0  0  0  0  0  0
    2.8855   -1.7892    0.0000 C   0  0  0  0  0  0  0  0  0
    3.6000   -1.3767    0.0000 C   0  0  0  0  0  0  0  0  0
    3.6000   -0.5517    0.0000 C   0  0  0  0  0  0  0  0  0
    4.3145   -0.1392    0.0000 C   0  0  0  0  0  0  0  0  0
    5.0289   -0.5517    0.0000 C   0  0  0  0  0  0  0  0  0
    5.0289   -1.3767    0.0000 C   0  0  0  0  0  0  0  0  0
    4.3145   -1.7892    0.0000 C   0  0  0  0  0  0  0  0  0
    4.3145    0.6858    0.0000 C   0  0  0  0  0  0  0  0  0
    4.3145    1.5108    0.0000 C   0  0  0  0  0  0  0  0  0
    4.3145    2.3358    0.0000 C   0  0  0  0  0  0  0  0  0
    3.6000    2.7483    0.0000 C   0  0  0  0  0  0  0  0  0
    3.6000    3.5733    0.0000 C   0  0  0  0  0  0  0  0  0
    4.3145    3.9858    0.0000 C   0  0  0  0  0  0  0  0  0
    5.0289    3.5733    0.0000 C   0  0  0  0  0  0  0  0  0
    5.0289    2.7483    0.0000 C   0  0  0  0  0  0  0  0  0
  1  2  4  0  0  0  0
  1  5  4  0  0  0  0
  2  3  4  0  0  0  0
  3  4  4  0  0  0  0
  3  6  1  0  0  0  0
  4  5  4  0  0  0  0
  6  7  1  0  0  0  0
  7  8  4  0  0  0  0
  7 12  4  0  0  0  0
  8  9  4  0  0  0  0
  9 10  4  0  0  0  0
  9 13  1  0  0  0  0
 10 11  4  0  0  0  0
 11 12  4  0  0  0  0
 13 14  3  0  0  0  0
 14 15  1  0  0  0  0
 15 16  4  0  0  0  0
 15 20  4  0  0  0  0
 16 17  4  0  0  0  0
 17 18  4  0  0  0  0
 18 19  4  0  0  0  0
 19 20  4  0  0  0  0
M  STY  1   1 DAT
M  SAL   1  1   1
M  SDT   1 MRV_IMPLICIT_H                                        
M  SDD   1     0.0000    0.0000    DR    ALL  0       0  
M  SED   1 IMPL_H1
M  END
>  <Name_Molregno>
486168

>  <HISTAMINE H3>
8.74

$$$$
486228
  Marvin  02231216192D 0   1.00000     0.00000     0

 24 27  0  0  0  0  0  0  0  0999 V2000
   -6.0420   -4.6689    0.0000 N   0  0  0  0  0  0  0  0  0
   -6.2970   -3.8843    0.0000 C   0  0  0  0  0  0  0  0  0
   -5.6295   -3.3993    0.0000 C   0  0  0  0  0  0  0  0  0
   -4.9621   -3.8843    0.0000 N   0  0  0  0  0  0  0  0  0
   -5.2170   -4.6689    0.0000 C   0  0  0  0  0  0  0  0  0
   -5.6295   -2.5743    0.0000 C   0  0  0  0  0  0  0  0  0
   -4.9151   -2.1618    0.0000 C   0  0  0  0  0  0  0  0  0
   -4.9151   -1.3368    0.0000 C   0  0  0  0  0  0  0  0  0
   -4.2006   -0.9243    0.0000 C   0  0  0  0  0  0  0  0  0
   -3.4861   -1.3368    0.0000 C   0  0  0  0  0  0  0  0  0
   -3.4861   -2.1618    0.0000 C   0  0  0  0  0  0  0  0  0
   -4.2006   -2.5743    0.0000 C   0  0  0  0  0  0  0  0  0
   -4.2006   -0.0993    0.0000 C   0  0  0  0  0  0  0  0  0
   -4.2006    0.7257    0.0000 C   0  0  0  0  0  0  0  0  0
   -4.2006    1.5507    0.0000 C   0  0  0  0  0  0  0  0  0
   -3.4861    1.9632    0.0000 C   0  0  0  0  0  0  0  0  0
   -3.4861    2.7882    0.0000 C   0  0  0  0  0  0  0  0  0
   -4.2006    3.2007    0.0000 C   0  0  0  0  0  0  0  0  0
   -4.9151    2.7882    0.0000 C   0  0  0  0  0  0  0  0  0
   -4.9151    1.9632    0.0000 C   0  0  0  0  0  0  0  0  0
   -2.7717    3.2007    0.0000 C   0  0  0  0  0  0  0  0  0
   -2.0572    2.7882    0.0000 C   0  0  0  0  0  0  0  0  0
   -2.0572    1.9632    0.0000 C   0  0  0  0  0  0  0  0  0
   -2.7717    1.5507    0.0000 C   0  0  0  0  0  0  0  0  0
  1  2  4  0  0  0  0
  1  5  4  0  0  0  0
  2  3  4  0  0  0  0
  3  4  4  0  0  0  0
  3  6  1  0  0  0  0
  4  5  4  0  0  0  0
  6  7  1  0  0  0  0
  7  8  4  0  0  0  0
  7 12  4  0  0  0  0
  8  9  4  0  0  0  0
  9 10  4  0  0  0  0
  9 13  1  0  0  0  0
 10 11  4  0  0  0  0
 11 12  4  0  0  0  0
 13 14  3  0  0  0  0
 14 15  1  0  0  0  0
 15 16  4  0  0  0  0
 15 20  4  0  0  0  0
 16 17  4  0  0  0  0
 16 24  4  0  0  0  0
 17 18  4  0  0  0  0
 17 21  4  0  0  0  0
 18 19  4  0  0  0  0
 19 20  4  0  0  0  0
 21 22  4  0  0  0  0
 22 23  4  0  0  0  0
 23 24  4  0  0  0  0
M  STY  1   1 DAT
M  SAL   1  1   1
M  SDT   1 MRV_IMPLICIT_H                                        
M  SDD   1     0.0000    0.0000    DR    ALL  0       0  
M  SED   1 IMPL_H1
M  END
>  <Name_Molregno>
486228

>  <HISTAMINE H3>
5.76

$$$$
486229
  Marvin  02231216192D 0   1.00000     0.00000     0

 17 18  0  0  0  0  0  0  0  0999 V2000
   -4.4765   -3.4589    0.0000 N   0  0  0  0  0  0  0  0  0
   -4.7314   -2.6743    0.0000 C   0  0  0  0  0  0  0  0  0
   -4.0640   -2.1893    0.0000 C   0  0  0  0  0  0  0  0  0
   -3.3966   -2.6743    0.0000 N   0  0  0  0  0  0  0  0  0
   -3.6515   -3.4589    0.0000 C   0  0  0  0  0  0  0  0  0
   -4.0640   -1.3643    0.0000 C   0  0  0  0  0  0  0  0  0
   -3.3495   -0.9518    0.0000 C   0  0  0  0  0  0  0  0  0
   -3.3495   -0.1268    0.0000 C   0  0  0  0  0  0  0  0  0
   -2.6351    0.2857    0.0000 C   0  0  0  0  0  0  0  0  0
   -1.9206   -0.1268    0.0000 C   0  0  0  0  0  0  0  0  0
   -1.9206   -0.9518    0.0000 C   0  0  0  0  0  0  0  0  0
   -2.6351   -1.3643    0.0000 C   0  0  0  0  0  0  0  0  0
   -2.6351    1.1107    0.0000 C   0  0  0  0  0  0  0  0  0
   -2.6351    1.9357    0.0000 C   0  0  0  0  0  0  0  0  0
   -2.6351    2.7607    0.0000 C   0  0  0  0  0  0  0  0  0
   -1.9206    3.1732    0.0000 C   0  0  0  0  0  0  0  0  0
   -1.9206    3.9982    0.0000 C   0  0  0  0  0  0  0  0  0
  1  2  4  0  0  0  0
  1  5  4  0  0  0  0
  2  3  4  0  0  0  0
  3  4  4  0  0  0  0
  3  6  1  0  0  0  0
  4  5  4  0  0  0  0
  6  7  1  0  0  0  0
  7  8  4  0  0  0  0
  7 12  4  0  0  0  0
  8  9  4  0  0  0  0
  9 10  4  0  0  0  0
  9 13  1  0  0  0  0
 10 11  4  0  0  0  0
 11 12  4  0  0  0  0
 13 14  3  0  0  0  0
 14 15  1  0  0  0  0
 15 16  1  0  0  0  0
 16 17  1  0  0  0  0
M  STY  1   1 DAT
M  SAL   1  1   1
M  SDT   1 MRV_IMPLICIT_H                                        
M  SDD   1     0.0000    0.0000    DR    ALL  0       0  
M  SED   1 IMPL_H1
M  END
>  <Name_Molregno>
486229

>  <HISTAMINE H3>
8.5

$$$$
486230
  Marvin  02231216192D 0   1.00000     0.00000     0

 19 21  0  0  0  0  0  0  0  0999 V2000
    0.3790    0.8185    0.0000 O   0  0  0  0  0  0  0  0  0
    0.1240    1.6031    0.0000 C   0  0  0  0  0  0  0  0  0
    0.7915    2.0881    0.0000 C   0  0  0  0  0  0  0  0  0
    1.4589    1.6031    0.0000 N   0  0  0  0  0  0  0  0  0
    1.2040    0.8185    0.0000 C   0  0  0  0  0  0  0  0  0
    1.6889    0.1511    0.0000 C   0  0  0  0  0  0  0  0  0
    2.5094    0.2373    0.0000 C   0  0  0  0  0  0  0  0  0
    2.9943   -0.4301    0.0000 C   0  0  0  0  0  0  0  0  0
    2.6587   -1.1838    0.0000 C   0  0  0  0  0  0  0  0  0
    1.8383   -1.2700    0.0000 C   0  0  0  0  0  0  0  0  0
    1.3533   -0.6026    0.0000 C   0  0  0  0  0  0  0  0  0
    3.1437   -1.8512    0.0000 C   0  0  0  0  0  0  0  0  0
    2.8081   -2.6049    0.0000 C   0  0  0  0  0  0  0  0  0
    3.2206   -3.3194    0.0000 N   0  0  0  0  0  0  0  0  0
    2.6686   -3.9325    0.0000 C   0  0  0  0  0  0  0  0  0
    1.9149   -3.5969    0.0000 N   0  0  0  0  0  0  0  0  0
    2.0011   -2.7764    0.0000 C   0  0  0  0  0  0  0  0  0
    0.3865    2.8068    0.0000 C   0  0  0  0  0  0  0  0  0
    1.1965    2.8068    0.0000 C   0  0  0  0  0  0  0  0  0
  1  2  1  0  0  0  0
  1  5  1  0  0  0  0
  2  3  1  0  0  0  0
  3  4  1  0  0  0  0
  3 18  1  0  0  0  0
  3 19  1  0  0  0  0
  4  5  2  0  0  0  0
  5  6  1  0  0  0  0
  6  7  4  0  0  0  0
  6 11  4  0  0  0  0
  7  8  4  0  0  0  0
  8  9  4  0  0  0  0
  9 10  4  0  0  0  0
  9 12  1  0  0  0  0
 10 11  4  0  0  0  0
 12 13  1  0  0  0  0
 13 14  4  0  0  0  0
 13 17  4  0  0  0  0
 14 15  4  0  0  0  0
 15 16  4  0  0  0  0
 16 17  4  0  0  0  0
M  STY  1   1 DAT
M  SAL   1  1  16
M  SDT   1 MRV_IMPLICIT_H                                        
M  SDD   1     0.0000    0.0000    DR    ALL  0       0  
M  SED   1 IMPL_H1
M  END
>  <Name_Molregno>
486230

>  <HISTAMINE H3>
5.6

$$$$
486231
  Marvin  02231216192D 0   1.00000     0.00000     0

 14 15  0  0  0  0  0  0  0  0999 V2000
   -2.9402   -0.5092    0.0000 N   0  0  0  0  0  0  0  0  0
   -3.1951    0.2754    0.0000 C   0  0  0  0  0  0  0  0  0
   -2.5277    0.7604    0.0000 C   0  0  0  0  0  0  0  0  0
   -1.8603    0.2754    0.0000 N   0  0  0  0  0  0  0  0  0
   -2.1152   -0.5092    0.0000 C   0  0  0  0  0  0  0  0  0
   -2.5277    1.5854    0.0000 C   0  0  0  0  0  0  0  0  0
   -1.8132    1.9979    0.0000 C   0  0  0  0  0  0  0  0  0
   -1.8132    2.8229    0.0000 C   0  0  0  0  0  0  0  0  0
   -1.0988    3.2354    0.0000 C   0  0  0  0  0  0  0  0  0
   -0.3843    2.8229    0.0000 C   0  0  0  0  0  0  0  0  0
   -0.3843    1.9979    0.0000 C   0  0  0  0  0  0  0  0  0
   -1.0988    1.5854    0.0000 C   0  0  0  0  0  0  0  0  0
    0.3302    3.2354    0.0000 C   0  0  0  0  0  0  0  0  0
    1.0447    3.6479    0.0000 N   0  0  0  0  0  0  0  0  0
  1  2  4  0  0  0  0
  1  5  4  0  0  0  0
  2  3  4  0  0  0  0
  3  4  4  0  0  0  0
  3  6  1  0  0  0  0
  4  5  4  0  0  0  0
  6  7  1  0  0  0  0
  7  8  4  0  0  0  0
  7 12  4  0  0  0  0
  8  9  4  0  0  0  0
  9 10  4  0  0  0  0
 10 11  4  0  0  0  0
 10 13  1  0  0  0  0
 11 12  4  0  0  0  0
 13 14  3  0  0  0  0
M  STY  1   1 DAT
M  SAL   1  1   1
M  SDT   1 MRV_IMPLICIT_H                                        
M  SDD   1     0.0000    0.0000    DR    ALL  0       0  
M  SED   1 IMPL_H1
M  END
>  <Name_Molregno>
486231

>  <HISTAMINE H3>
6.09

$$$$
486232
  Marvin  02231216192D 0   1.00000     0.00000     0

 13 14  0  0  0  0  0  0  0  0999 V2000
    0.5306    1.2235    0.0000 Br  0  0  0  0  0  0  0  0  0
    1.2451    0.8110    0.0000 C   0  0  0  0  0  0  0  0  0
    1.9595    1.2235    0.0000 C   0  0  0  0  0  0  0  0  0
    2.6740    0.8110    0.0000 C   0  0  0  0  0  0  0  0  0
    2.6740   -0.0140    0.0000 C   0  0  0  0  0  0  0  0  0
    1.9595   -0.4265    0.0000 C   0  0  0  0  0  0  0  0  0
    1.2451   -0.0140    0.0000 C   0  0  0  0  0  0  0  0  0
    3.3885   -0.4265    0.0000 C   0  0  0  0  0  0  0  0  0
    3.3885   -1.2515    0.0000 C   0  0  0  0  0  0  0  0  0
    4.0559   -1.7364    0.0000 N   0  0  0  0  0  0  0  0  0
    3.8010   -2.5211    0.0000 C   0  0  0  0  0  0  0  0  0
    2.9760   -2.5211    0.0000 N   0  0  0  0  0  0  0  0  0
    2.7210   -1.7364    0.0000 C   0  0  0  0  0  0  0  0  0
  1  2  1  0  0  0  0
  2  3  4  0  0  0  0
  2  7  4  0  0  0  0
  3  4  4  0  0  0  0
  4  5  4  0  0  0  0
  5  6  4  0  0  0  0
  5  8  1  0  0  0  0
  6  7  4  0  0  0  0
  8  9  1  0  0  0  0
  9 10  4  0  0  0  0
  9 13  4  0  0  0  0
 10 11  4  0  0  0  0
 11 12  4  0  0  0  0
 12 13  4  0  0  0  0
M  STY  1   1 DAT
M  SAL   1  1  12
M  SDT   1 MRV_IMPLICIT_H                                        
M  SDD   1     0.0000    0.0000    DR    ALL  0       0  
M  SED   1 IMPL_H1
M  END
>  <Name_Molregno>
486232

>  <HISTAMINE H3>
6.38

$$$$
486233
  Marvin  02231216192D 0   1.00000     0.00000     0

 18 19  0  0  0  0  0  0  0  0999 V2000
   -5.0308   -3.7925    0.0000 N   0  0  0  0  0  0  0  0  0
   -5.2857   -3.0079    0.0000 C   0  0  0  0  0  0  0  0  0
   -4.6183   -2.5229    0.0000 C   0  0  0  0  0  0  0  0  0
   -3.9509   -3.0079    0.0000 N   0  0  0  0  0  0  0  0  0
   -4.2058   -3.7925    0.0000 C   0  0  0  0  0  0  0  0  0
   -4.6183   -1.6979    0.0000 C   0  0  0  0  0  0  0  0  0
   -3.9038   -1.2854    0.0000 C   0  0  0  0  0  0  0  0  0
   -3.9038   -0.4604    0.0000 C   0  0  0  0  0  0  0  0  0
   -3.1894   -0.0479    0.0000 C   0  0  0  0  0  0  0  0  0
   -2.4749   -0.4604    0.0000 C   0  0  0  0  0  0  0  0  0
   -2.4749   -1.2854    0.0000 C   0  0  0  0  0  0  0  0  0
   -3.1894   -1.6979    0.0000 C   0  0  0  0  0  0  0  0  0
   -1.7604   -0.0479    0.0000 C   0  0  0  0  0  0  0  0  0
   -1.0460    0.3646    0.0000 C   0  0  0  0  0  0  0  0  0
   -0.3315    0.7771    0.0000 C   0  0  0  0  0  0  0  0  0
    0.3830    1.1896    0.0000 C   0  0  0  0  0  0  0  0  0
    0.0810    0.0626    0.0000 C   0  0  0  0  0  0  0  0  0
   -0.7440    1.4915    0.0000 C   0  0  0  0  0  0  0  0  0
  1  2  4  0  0  0  0
  1  5  4  0  0  0  0
  2  3  4  0  0  0  0
  3  4  4  0  0  0  0
  3  6  1  0  0  0  0
  4  5  4  0  0  0  0
  6  7  1  0  0  0  0
  7  8  4  0  0  0  0
  7 12  4  0  0  0  0
  8  9  4  0  0  0  0
  9 10  4  0  0  0  0
 10 11  4  0  0  0  0
 10 13  1  0  0  0  0
 11 12  4  0  0  0  0
 13 14  3  0  0  0  0
 14 15  1  0  0  0  0
 15 16  1  0  0  0  0
 15 17  1  0  0  0  0
 15 18  1  0  0  0  0
M  STY  1   1 DAT
M  SAL   1  1   1
M  SDT   1 MRV_IMPLICIT_H                                        
M  SDD   1     0.0000    0.0000    DR    ALL  0       0  
M  SED   1 IMPL_H1
M  END
>  <Name_Molregno>
486233

>  <HISTAMINE H3>
6.27

$$$$
486293
  Marvin  02231216192D 0   1.00000     0.00000     0

 13 14  0  0  0  0  0  0  0  0999 V2000
   -3.1437   -1.2213    0.0000 N   0  0  0  0  0  0  0  0  0
   -3.3986   -0.4367    0.0000 C   0  0  0  0  0  0  0  0  0
   -2.7312    0.0482    0.0000 C   0  0  0  0  0  0  0  0  0
   -2.0638   -0.4367    0.0000 N   0  0  0  0  0  0  0  0  0
   -2.3187   -1.2213    0.0000 C   0  0  0  0  0  0  0  0  0
   -2.7312    0.8732    0.0000 C   0  0  0  0  0  0  0  0  0
   -2.0167    1.2857    0.0000 C   0  0  0  0  0  0  0  0  0
   -2.0167    2.1107    0.0000 C   0  0  0  0  0  0  0  0  0
   -1.3022    2.5232    0.0000 C   0  0  0  0  0  0  0  0  0
   -0.5878    2.1107    0.0000 C   0  0  0  0  0  0  0  0  0
    0.1267    2.5232    0.0000 N   0  0  0  0  0  0  0  0  0
   -0.5878    1.2857    0.0000 C   0  0  0  0  0  0  0  0  0
   -1.3022    0.8732    0.0000 C   0  0  0  0  0  0  0  0  0
  1  2  4  0  0  0  0
  1  5  4  0  0  0  0
  2  3  4  0  0  0  0
  3  4  4  0  0  0  0
  3  6  1  0  0  0  0
  4  5  4  0  0  0  0
  6  7  1  0  0  0  0
  7  8  4  0  0  0  0
  7 13  4  0  0  0  0
  8  9  4  0  0  0  0
  9 10  4  0  0  0  0
 10 11  1  0  0  0  0
 10 12  4  0  0  0  0
 12 13  4  0  0  0  0
M  STY  1   1 DAT
M  SAL   1  1   1
M  SDT   1 MRV_IMPLICIT_H                                        
M  SDD   1     0.0000    0.0000    DR    ALL  0       0  
M  SED   1 IMPL_H1
M  END
>  <Name_Molregno>
486293

>  <HISTAMINE H3>
6.59

$$$$
486294
  Marvin  02231216192D 0   1.00000     0.00000     0

 21 23  0  0  1  0  0  0  0  0999 V2000
    1.8138    1.8525    0.0000 O   0  0  0  0  0  0  0  0  0
    1.0994    1.4400    0.0000 C   0  0  0  0  0  0  0  0  0
    0.3849    1.8525    0.0000 N   0  0  0  0  0  0  0  0  0
    0.3849    2.6775    0.0000 C   0  0  0  0  0  0  0  0  0
    1.0994    3.0900    0.0000 C   0  0  0  0  0  0  0  0  0
    1.8138    2.6775    0.0000 C   0  0  0  0  0  0  0  0  0
    2.5283    3.0900    0.0000 C   0  0  0  0  0  0  0  0  0
   -0.4396    2.7063    0.0000 C   0  0  0  0  0  0  0  0  0
   -0.0523    3.3772    0.0000 C   0  0  0  0  0  0  0  0  0
    1.0994    0.6150    0.0000 C   0  0  0  0  0  0  0  0  0
    1.8138    0.2025    0.0000 C   0  0  0  0  0  0  0  0  0
    1.8138   -0.6225    0.0000 C   0  0  0  0  0  0  0  0  0
    1.0994   -1.0350    0.0000 C   0  0  0  0  0  0  0  0  0
    0.3849   -0.6225    0.0000 C   0  0  0  0  0  0  0  0  0
    0.3849    0.2025    0.0000 C   0  0  0  0  0  0  0  0  0
    2.5283   -1.0350    0.0000 C   0  0  0  0  0  0  0  0  0
    2.5283   -1.8600    0.0000 C   0  0  0  0  0  0  0  0  0
    3.1957   -2.3449    0.0000 N   0  0  0  0  0  0  0  0  0
    2.9408   -3.1295    0.0000 C   0  0  0  0  0  0  0  0  0
    2.1158   -3.1295    0.0000 N   0  0  0  0  0  0  0  0  0
    1.8609   -2.3449    0.0000 C   0  0  0  0  0  0  0  0  0
  1  2  1  0  0  0  0
  1  6  1  0  0  0  0
  2  3  2  0  0  0  0
  2 10  1  0  0  0  0
  3  4  1  0  0  0  0
  4  5  1  0  0  0  0
  4  8  1  0  0  0  0
  4  9  1  0  0  0  0
  5  6  1  0  0  0  0
  6  7  1  0  0  0  0
 10 11  4  0  0  0  0
 10 15  4  0  0  0  0
 11 12  4  0  0  0  0
 12 13  4  0  0  0  0
 12 16  1  0  0  0  0
 13 14  4  0  0  0  0
 14 15  4  0  0  0  0
 16 17  1  0  0  0  0
 17 18  4  0  0  0  0
 17 21  4  0  0  0  0
 18 19  4  0  0  0  0
 19 20  4  0  0  0  0
 20 21  4  0  0  0  0
M  STY  1   1 DAT
M  SAL   1  1  20
M  SDT   1 MRV_IMPLICIT_H                                        
M  SDD   1     0.0000    0.0000    DR    ALL  0       0  
M  SED   1 IMPL_H1
M  END
>  <Name_Molregno>
486294

>  <HISTAMINE H3>
8.9

>  <HISTAMINE H4>
8.08

$$$$
486295
  Marvin  02231216192D 0   1.00000     0.00000     0

 21 24  0  0  0  0  0  0  0  0999 V2000
    1.8965    1.4234    0.0000 O   0  0  0  0  0  0  0  0  0
    2.6812    1.6784    0.0000 C   0  0  0  0  0  0  0  0  0
    3.1661    1.0109    0.0000 C   0  0  0  0  0  0  0  0  0
    2.6812    0.3435    0.0000 N   0  0  0  0  0  0  0  0  0
    1.8965    0.5984    0.0000 C   0  0  0  0  0  0  0  0  0
    1.2291    0.1135    0.0000 C   0  0  0  0  0  0  0  0  0
    1.3153   -0.7070    0.0000 C   0  0  0  0  0  0  0  0  0
    0.6479   -1.1919    0.0000 C   0  0  0  0  0  0  0  0  0
   -0.1058   -0.8563    0.0000 C   0  0  0  0  0  0  0  0  0
   -0.1920   -0.0359    0.0000 C   0  0  0  0  0  0  0  0  0
    0.4754    0.4491    0.0000 C   0  0  0  0  0  0  0  0  0
    0.7341   -2.0124    0.0000 C   0  0  0  0  0  0  0  0  0
    0.0667   -2.4973    0.0000 C   0  0  0  0  0  0  0  0  0
    0.0667   -3.3223    0.0000 N   0  0  0  0  0  0  0  0  0
   -0.7179   -3.5772    0.0000 C   0  0  0  0  0  0  0  0  0
   -1.2028   -2.9098    0.0000 N   0  0  0  0  0  0  0  0  0
   -0.7179   -2.2424    0.0000 C   0  0  0  0  0  0  0  0  0
    3.6510    1.6784    0.0000 C   0  0  0  0  0  0  0  0  0
    4.4356    1.4234    0.0000 C   0  0  0  0  0  0  0  0  0
    4.4356    0.5984    0.0000 C   0  0  0  0  0  0  0  0  0
    3.6510    0.3435    0.0000 C   0  0  0  0  0  0  0  0  0
  1  2  1  0  0  0  0
  1  5  1  0  0  0  0
  2  3  1  0  0  0  0
  3  4  1  0  0  0  0
  3 18  1  0  0  0  0
  3 21  1  0  0  0  0
  4  5  2  0  0  0  0
  5  6  1  0  0  0  0
  6  7  4  0  0  0  0
  6 11  4  0  0  0  0
  7  8  4  0  0  0  0
  8  9  4  0  0  0  0
  8 12  1  0  0  0  0
  9 10  4  0  0  0  0
 10 11  4  0  0  0  0
 12 13  1  0  0  0  0
 13 14  4  0  0  0  0
 13 17  4  0  0  0  0
 14 15  4  0  0  0  0
 15 16  4  0  0  0  0
 16 17  4  0  0  0  0
 18 19  1  0  0  0  0
 19 20  1  0  0  0  0
 20 21  1  0  0  0  0
M  STY  1   1 DAT
M  SAL   1  1  16
M  SDT   1 MRV_IMPLICIT_H                                        
M  SDD   1     0.0000    0.0000    DR    ALL  0       0  
M  SED   1 IMPL_H1
M  END
>  <Name_Molregno>
486295

>  <HISTAMINE H3>
7.4

$$$$
486296
  Marvin  02231216192D 0   1.00000     0.00000     0

 22 25  0  0  0  0  0  0  0  0999 V2000
    2.5884    0.3894    0.0000 O   0  0  0  0  0  0  0  0  0
    1.8038    0.6443    0.0000 C   0  0  0  0  0  0  0  0  0
    1.8038    1.4693    0.0000 N   0  0  0  0  0  0  0  0  0
    2.5884    1.7242    0.0000 C   0  0  0  0  0  0  0  0  0
    3.0734    1.0568    0.0000 C   0  0  0  0  0  0  0  0  0
    3.4859    1.7713    0.0000 C   0  0  0  0  0  0  0  0  0
    4.3109    1.7713    0.0000 C   0  0  0  0  0  0  0  0  0
    4.7234    1.0568    0.0000 C   0  0  0  0  0  0  0  0  0
    4.3109    0.3423    0.0000 C   0  0  0  0  0  0  0  0  0
    3.4859    0.3423    0.0000 C   0  0  0  0  0  0  0  0  0
    1.1364    0.1594    0.0000 C   0  0  0  0  0  0  0  0  0
    1.2226   -0.6611    0.0000 C   0  0  0  0  0  0  0  0  0
    0.5552   -1.1460    0.0000 C   0  0  0  0  0  0  0  0  0
   -0.1985   -0.8105    0.0000 C   0  0  0  0  0  0  0  0  0
   -0.2847    0.0100    0.0000 C   0  0  0  0  0  0  0  0  0
    0.3827    0.4949    0.0000 C   0  0  0  0  0  0  0  0  0
    0.6414   -1.9665    0.0000 C   0  0  0  0  0  0  0  0  0
   -0.0260   -2.4514    0.0000 C   0  0  0  0  0  0  0  0  0
   -0.0260   -3.2764    0.0000 N   0  0  0  0  0  0  0  0  0
   -0.8106   -3.5314    0.0000 C   0  0  0  0  0  0  0  0  0
   -1.2956   -2.8639    0.0000 N   0  0  0  0  0  0  0  0  0
   -0.8106   -2.1965    0.0000 C   0  0  0  0  0  0  0  0  0
  1  2  1  0  0  0  0
  1  5  1  0  0  0  0
  2  3  2  0  0  0  0
  2 11  1  0  0  0  0
  3  4  1  0  0  0  0
  4  5  1  0  0  0  0
  5  6  1  0  0  0  0
  5 10  1  0  0  0  0
  6  7  1  0  0  0  0
  7  8  1  0  0  0  0
  8  9  1  0  0  0  0
  9 10  1  0  0  0  0
 11 12  4  0  0  0  0
 11 16  4  0  0  0  0
 12 13  4  0  0  0  0
 13 14  4  0  0  0  0
 13 17  1  0  0  0  0
 14 15  4  0  0  0  0
 15 16  4  0  0  0  0
 17 18  1  0  0  0  0
 18 19  4  0  0  0  0
 18 22  4  0  0  0  0
 19 20  4  0  0  0  0
 20 21  4  0  0  0  0
 21 22  4  0  0  0  0
M  STY  1   1 DAT
M  SAL   1  1  21
M  SDT   1 MRV_IMPLICIT_H                                        
M  SDD   1     0.0000    0.0000    DR    ALL  0       0  
M  SED   1 IMPL_H1
M  END
>  <Name_Molregno>
486296

>  <HISTAMINE H3>
7.25

$$$$
486297
  Marvin  02231216192D 0   1.00000     0.00000     0

 24 27  0  0  1  0  0  0  0  0999 V2000
    2.4169   -1.5718    0.0000 O   0  0  0  0  0  0  0  0  0
    2.1620   -2.3565    0.0000 C   0  0  0  0  0  0  0  0  0
    1.3370   -2.3565    0.0000 C   0  0  0  0  0  0  0  0  0
    1.0821   -1.5718    0.0000 N   0  0  0  0  0  0  0  0  0
    1.7495   -1.0869    0.0000 C   0  0  0  0  0  0  0  0  0
    1.7495   -0.2619    0.0000 C   0  0  0  0  0  0  0  0  0
    1.0350    0.1506    0.0000 C   0  0  0  0  0  0  0  0  0
    1.0350    0.9756    0.0000 C   0  0  0  0  0  0  0  0  0
    1.7495    1.3881    0.0000 C   0  0  0  0  0  0  0  0  0
    2.4640    0.9756    0.0000 C   0  0  0  0  0  0  0  0  0
    2.4640    0.1506    0.0000 C   0  0  0  0  0  0  0  0  0
    0.3206    1.3881    0.0000 C   0  0  0  0  0  0  0  0  0
    0.3206    2.2131    0.0000 C   0  0  0  0  0  0  0  0  0
   -0.3469    2.6980    0.0000 N   0  0  0  0  0  0  0  0  0
   -0.0919    3.4826    0.0000 C   0  0  0  0  0  0  0  0  0
    0.7331    3.4826    0.0000 N   0  0  0  0  0  0  0  0  0
    0.9880    2.6980    0.0000 C   0  0  0  0  0  0  0  0  0
    0.8521   -3.0239    0.0000 C   0  0  0  0  0  0  0  0  0
    0.0316   -2.9377    0.0000 C   0  0  0  0  0  0  0  0  0
   -0.4533   -3.6051    0.0000 C   0  0  0  0  0  0  0  0  0
   -1.2738   -3.5189    0.0000 C   0  0  0  0  0  0  0  0  0
   -1.6094   -2.7652    0.0000 C   0  0  0  0  0  0  0  0  0
   -1.1244   -2.0978    0.0000 C   0  0  0  0  0  0  0  0  0
   -0.3040   -2.1840    0.0000 C   0  0  0  0  0  0  0  0  0
  1  2  1  0  0  0  0
  1  5  1  0  0  0  0
  2  3  1  0  0  0  0
  3  4  1  0  0  0  0
  3 18  1  0  0  0  0
  4  5  2  0  0  0  0
  5  6  1  0  0  0  0
  6  7  4  0  0  0  0
  6 11  4  0  0  0  0
  7  8  4  0  0  0  0
  8  9  4  0  0  0  0
  8 12  1  0  0  0  0
  9 10  4  0  0  0  0
 10 11  4  0  0  0  0
 12 13  1  0  0  0  0
 13 14  4  0  0  0  0
 13 17  4  0  0  0  0
 14 15  4  0  0  0  0
 15 16  4  0  0  0  0
 16 17  4  0  0  0  0
 18 19  1  0  0  0  0
 19 20  4  0  0  0  0
 19 24  4  0  0  0  0
 20 21  4  0  0  0  0
 21 22  4  0  0  0  0
 22 23  4  0  0  0  0
 23 24  4  0  0  0  0
M  STY  1   1 DAT
M  SAL   1  1  16
M  SDT   1 MRV_IMPLICIT_H                                        
M  SDD   1     0.0000    0.0000    DR    ALL  0       0  
M  SED   1 IMPL_H1
M  END
>  <Name_Molregno>
486297

>  <HISTAMINE H3>
6.6

$$$$
486361
  Marvin  02231216192D 0   1.00000     0.00000     0

 20 22  0  0  0  0  0  0  0  0999 V2000
    0.3636    1.8290    0.0000 O   0  0  0  0  0  0  0  0  0
    0.3636    2.6540    0.0000 C   0  0  0  0  0  0  0  0  0
    1.0781    3.0665    0.0000 C   0  0  0  0  0  0  0  0  0
    1.7926    2.6540    0.0000 C   0  0  0  0  0  0  0  0  0
    1.7926    1.8290    0.0000 N   0  0  0  0  0  0  0  0  0
    1.0781    1.4165    0.0000 C   0  0  0  0  0  0  0  0  0
    1.0781    0.5915    0.0000 C   0  0  0  0  0  0  0  0  0
    1.7926    0.1790    0.0000 C   0  0  0  0  0  0  0  0  0
    1.7926   -0.6460    0.0000 C   0  0  0  0  0  0  0  0  0
    1.0781   -1.0585    0.0000 C   0  0  0  0  0  0  0  0  0
    0.3636   -0.6460    0.0000 C   0  0  0  0  0  0  0  0  0
    0.3636    0.1790    0.0000 C   0  0  0  0  0  0  0  0  0
    2.5070   -1.0585    0.0000 C   0  0  0  0  0  0  0  0  0
    2.5070   -1.8835    0.0000 C   0  0  0  0  0  0  0  0  0
    3.1745   -2.3685    0.0000 N   0  0  0  0  0  0  0  0  0
    2.9195   -3.1531    0.0000 C   0  0  0  0  0  0  0  0  0
    2.0945   -3.1531    0.0000 N   0  0  0  0  0  0  0  0  0
    1.8396   -2.3685    0.0000 C   0  0  0  0  0  0  0  0  0
    0.6908    3.7949    0.0000 C   0  0  0  0  0  0  0  0  0
    1.4654    3.7949    0.0000 C   0  0  0  0  0  0  0  0  0
  1  2  1  0  0  0  0
  1  6  1  0  0  0  0
  2  3  1  0  0  0  0
  3  4  1  0  0  0  0
  3 19  1  0  0  0  0
  3 20  1  0  0  0  0
  4  5  1  0  0  0  0
  5  6  2  0  0  0  0
  6  7  1  0  0  0  0
  7  8  4  0  0  0  0
  7 12  4  0  0  0  0
  8  9  4  0  0  0  0
  9 10  4  0  0  0  0
  9 13  1  0  0  0  0
 10 11  4  0  0  0  0
 11 12  4  0  0  0  0
 13 14  1  0  0  0  0
 14 15  4  0  0  0  0
 14 18  4  0  0  0  0
 15 16  4  0  0  0  0
 16 17  4  0  0  0  0
 17 18  4  0  0  0  0
M  STY  1   1 DAT
M  SAL   1  1  17
M  SDT   1 MRV_IMPLICIT_H                                        
M  SDD   1     0.0000    0.0000    DR    ALL  0       0  
M  SED   1 IMPL_H1
M  END
>  <Name_Molregno>
486361

>  <HISTAMINE H3>
5.6

$$$$
486862
  Marvin  02231216192D 0   1.00000     0.00000     0

 21 22  0  0  0  0  0  0  0  0999 V2000
    0.0055    0.7460    0.0000 I   0  0  0  0  0  0  0  0  0
    0.7200    0.3335    0.0000 C   0  0  0  0  0  0  0  0  0
    1.4345    0.7460    0.0000 C   0  0  0  0  0  0  0  0  0
    2.1489    0.3335    0.0000 C   0  0  0  0  0  0  0  0  0
    2.1489   -0.4915    0.0000 C   0  0  0  0  0  0  0  0  0
    1.4345   -0.9040    0.0000 C   0  0  0  0  0  0  0  0  0
    0.7200   -0.4915    0.0000 C   0  0  0  0  0  0  0  0  0
    2.8634   -0.9040    0.0000 C   0  0  0  0  0  0  0  0  0
    3.5779   -0.4915    0.0000 C   0  0  0  0  0  0  0  0  0
    4.2923   -0.9040    0.0000 N   0  0  0  0  0  0  0  0  0
    5.0068   -0.4915    0.0000 C   0  0  0  0  0  0  0  0  0
    5.7213   -0.9040    0.0000 S   0  0  0  0  0  0  0  0  0
    6.4358   -0.4915    0.0000 C   0  0  0  0  0  0  0  0  0
    7.1502   -0.9040    0.0000 C   0  0  0  0  0  0  0  0  0
    7.8647   -0.4915    0.0000 C   0  0  0  0  0  0  0  0  0
    8.5792   -0.9040    0.0000 C   0  0  0  0  0  0  0  0  0
    9.3328   -0.5684    0.0000 N   0  0  0  0  0  0  0  0  0
    9.8849   -1.1815    0.0000 C   0  0  0  0  0  0  0  0  0
    9.4724   -1.8960    0.0000 N   0  0  0  0  0  0  0  0  0
    8.6654   -1.7245    0.0000 C   0  0  0  0  0  0  0  0  0
    5.0068    0.3335    0.0000 N   0  0  0  0  0  0  0  0  0
  1  2  1  0  0  0  0
  2  3  4  0  0  0  0
  2  7  4  0  0  0  0
  3  4  4  0  0  0  0
  4  5  4  0  0  0  0
  5  6  4  0  0  0  0
  5  8  1  0  0  0  0
  6  7  4  0  0  0  0
  8  9  1  0  0  0  0
  9 10  1  0  0  0  0
 10 11  1  0  0  0  0
 11 12  1  0  0  0  0
 11 21  2  0  0  0  0
 12 13  1  0  0  0  0
 13 14  1  0  0  0  0
 14 15  1  0  0  0  0
 15 16  1  0  0  0  0
 16 17  4  0  0  0  0
 16 20  4  0  0  0  0
 17 18  4  0  0  0  0
 18 19  4  0  0  0  0
 19 20  4  0  0  0  0
M  STY  1   1 DAT
M  SAL   1  1  19
M  SDT   1 MRV_IMPLICIT_H                                        
M  SDD   1     0.0000    0.0000    DR    ALL  0       0  
M  SED   1 IMPL_H1
M  END
>  <Name_Molregno>
486862

>  <HISTAMINE H3>
8.1

>  <HISTAMINE H4>
7.95

$$$$
490011
  Marvin  02231216192D 0   1.00000     0.00000     0

 31 34  0  0  0  0  0  0  0  0999 V2000
   -5.5358   -1.8245    0.0000 F   0  0  0  0  0  0  0  0  0
   -5.5358   -0.9995    0.0000 C   0  0  0  0  0  0  0  0  0
   -4.7108   -0.9995    0.0000 F   0  0  0  0  0  0  0  0  0
   -6.3608   -0.9995    0.0000 F   0  0  0  0  0  0  0  0  0
   -5.5358   -0.1745    0.0000 C   0  0  0  0  0  0  0  0  0
   -4.8213    0.2380    0.0000 C   0  0  0  0  0  0  0  0  0
   -4.8213    1.0630    0.0000 C   0  0  0  0  0  0  0  0  0
   -4.1069    1.4755    0.0000 N   0  0  0  0  0  0  0  0  0
   -3.3924    1.0630    0.0000 C   0  0  0  0  0  0  0  0  0
   -3.3924    0.2380    0.0000 N   0  0  0  0  0  0  0  0  0
   -4.1069   -0.1745    0.0000 C   0  0  0  0  0  0  0  0  0
   -4.1069   -0.9995    0.0000 O   0  0  0  0  0  0  0  0  0
   -2.6779   -0.1745    0.0000 C   0  0  0  0  0  0  0  0  0
   -1.9635    0.2380    0.0000 C   0  0  0  0  0  0  0  0  0
   -1.2490   -0.1745    0.0000 C   0  0  0  0  0  0  0  0  0
   -1.2490   -0.9995    0.0000 C   0  0  0  0  0  0  0  0  0
   -0.5345   -1.4120    0.0000 O   0  0  0  0  0  0  0  0  0
    0.1800   -0.9995    0.0000 C   0  0  0  0  0  0  0  0  0
    0.8944   -1.4120    0.0000 C   0  0  0  0  0  0  0  0  0
    1.6089   -0.9995    0.0000 C   0  0  0  0  0  0  0  0  0
    2.3234   -1.4120    0.0000 N   0  0  0  0  0  0  0  0  0
    3.0770   -1.0765    0.0000 C   0  0  0  0  0  0  0  0  0
    3.6291   -1.6896    0.0000 C   0  0  0  0  0  0  0  0  0
    3.2166   -2.4040    0.0000 C   0  0  0  0  0  0  0  0  0
    2.4096   -2.2325    0.0000 C   0  0  0  0  0  0  0  0  0
   -1.9635   -1.4120    0.0000 C   0  0  0  0  0  0  0  0  0
   -2.6779   -0.9995    0.0000 C   0  0  0  0  0  0  0  0  0
   -2.6779    1.4755    0.0000 C   0  0  0  0  0  0  0  0  0
   -5.5358    1.4755    0.0000 C   0  0  0  0  0  0  0  0  0
   -6.2503    1.0630    0.0000 C   0  0  0  0  0  0  0  0  0
   -6.2503    0.2380    0.0000 C   0  0  0  0  0  0  0  0  0
  1  2  1  0  0  0  0
  2  3  1  0  0  0  0
  2  4  1  0  0  0  0
  2  5  1  0  0  0  0
  5  6  4  0  0  0  0
  5 31  4  0  0  0  0
  6  7  4  0  0  0  0
  6 11  1  0  0  0  0
  7  8  1  0  0  0  0
  7 29  4  0  0  0  0
  8  9  2  0  0  0  0
  9 10  1  0  0  0  0
  9 28  1  0  0  0  0
 10 11  1  0  0  0  0
 10 13  1  0  0  0  0
 11 12  2  0  0  0  0
 13 14  4  0  0  0  0
 13 27  4  0  0  0  0
 14 15  4  0  0  0  0
 15 16  4  0  0  0  0
 16 17  1  0  0  0  0
 16 26  4  0  0  0  0
 17 18  1  0  0  0  0
 18 19  1  0  0  0  0
 19 20  1  0  0  0  0
 20 21  1  0  0  0  0
 21 22  1  0  0  0  0
 21 25  1  0  0  0  0
 22 23  1  0  0  0  0
 23 24  1  0  0  0  0
 24 25  1  0  0  0  0
 26 27  4  0  0  0  0
 29 30  4  0  0  0  0
 30 31  4  0  0  0  0
M  END
>  <Name_Molregno>
490011

>  <HISTAMINE H3>
8.17

$$$$
490171
  Marvin  02231216192D 0   1.00000     0.00000     0

 27 30  0  0  0  0  0  0  0  0999 V2000
   -2.3621   -0.0107    0.0000 O   0  0  0  0  0  0  0  0  0
   -3.0766    0.4018    0.0000 C   0  0  0  0  0  0  0  0  0
   -3.7910   -0.0107    0.0000 C   0  0  0  0  0  0  0  0  0
   -4.5055    0.4018    0.0000 C   0  0  0  0  0  0  0  0  0
   -5.2200   -0.0107    0.0000 N   0  0  0  0  0  0  0  0  0
   -5.2200   -0.8357    0.0000 C   0  0  0  0  0  0  0  0  0
   -5.9344   -1.2482    0.0000 C   0  0  0  0  0  0  0  0  0
   -6.6489   -0.8357    0.0000 C   0  0  0  0  0  0  0  0  0
   -6.6489   -0.0107    0.0000 C   0  0  0  0  0  0  0  0  0
   -5.9344    0.4018    0.0000 C   0  0  0  0  0  0  0  0  0
   -1.6476    0.4018    0.0000 C   0  0  0  0  0  0  0  0  0
   -0.9331   -0.0107    0.0000 C   0  0  0  0  0  0  0  0  0
   -0.2187    0.4018    0.0000 C   0  0  0  0  0  0  0  0  0
   -0.2187    1.2268    0.0000 C   0  0  0  0  0  0  0  0  0
    0.4958    1.6393    0.0000 C   0  0  0  0  0  0  0  0  0
    1.2103    1.2268    0.0000 C   0  0  0  0  0  0  0  0  0
    1.2103    0.4018    0.0000 C   0  0  0  0  0  0  0  0  0
    0.4958   -0.0107    0.0000 C   0  0  0  0  0  0  0  0  0
    1.9247    1.6393    0.0000 C   0  0  0  0  0  0  0  0  0
    1.9247    2.4643    0.0000 O   0  0  0  0  0  0  0  0  0
    2.6392    1.2268    0.0000 N   0  0  0  0  0  0  0  0  0
    3.3929    1.5623    0.0000 C   0  0  0  0  0  0  0  0  0
    3.9449    0.9492    0.0000 C   0  0  0  0  0  0  0  0  0
    3.5324    0.2348    0.0000 C   0  0  0  0  0  0  0  0  0
    2.7254    0.4063    0.0000 C   0  0  0  0  0  0  0  0  0
   -0.9331    1.6393    0.0000 C   0  0  0  0  0  0  0  0  0
   -1.6476    1.2268    0.0000 C   0  0  0  0  0  0  0  0  0
  1  2  1  0  0  0  0
  1 11  1  0  0  0  0
  2  3  1  0  0  0  0
  3  4  1  0  0  0  0
  4  5  1  0  0  0  0
  5  6  1  0  0  0  0
  5 10  1  0  0  0  0
  6  7  1  0  0  0  0
  7  8  1  0  0  0  0
  8  9  1  0  0  0  0
  9 10  1  0  0  0  0
 11 12  4  0  0  0  0
 11 27  4  0  0  0  0
 12 13  4  0  0  0  0
 13 14  4  0  0  0  0
 13 18  4  0  0  0  0
 14 15  4  0  0  0  0
 14 26  4  0  0  0  0
 15 16  4  0  0  0  0
 16 17  4  0  0  0  0
 16 19  1  0  0  0  0
 17 18  4  0  0  0  0
 19 20  2  0  0  0  0
 19 21  1  0  0  0  0
 21 22  1  0  0  0  0
 21 25  1  0  0  0  0
 22 23  1  0  0  0  0
 23 24  1  0  0  0  0
 24 25  1  0  0  0  0
 26 27  4  0  0  0  0
M  END
>  <Name_Molregno>
490171

>  <HISTAMINE H3>
8.4

$$$$
490172
  Marvin  02231216192D 0   1.00000     0.00000     0

 27 30  0  0  0  0  0  0  0  0999 V2000
   -2.2582    0.5663    0.0000 O   0  0  0  0  0  0  0  0  0
   -2.9726    0.9788    0.0000 C   0  0  0  0  0  0  0  0  0
   -3.6871    0.5663    0.0000 C   0  0  0  0  0  0  0  0  0
   -4.4016    0.9788    0.0000 C   0  0  0  0  0  0  0  0  0
   -4.4016    1.8038    0.0000 N   0  0  0  0  0  0  0  0  0
   -3.6871    2.2163    0.0000 C   0  0  0  0  0  0  0  0  0
   -2.9726    1.8038    0.0000 C   0  0  0  0  0  0  0  0  0
   -5.1161    2.2163    0.0000 C   0  0  0  0  0  0  0  0  0
   -5.1161    3.0413    0.0000 C   0  0  0  0  0  0  0  0  0
   -5.8305    1.8038    0.0000 C   0  0  0  0  0  0  0  0  0
   -1.5437    0.9788    0.0000 C   0  0  0  0  0  0  0  0  0
   -0.8292    0.5663    0.0000 C   0  0  0  0  0  0  0  0  0
   -0.1148    0.9788    0.0000 C   0  0  0  0  0  0  0  0  0
   -0.1148    1.8038    0.0000 C   0  0  0  0  0  0  0  0  0
    0.5997    2.2163    0.0000 C   0  0  0  0  0  0  0  0  0
    1.3142    1.8038    0.0000 C   0  0  0  0  0  0  0  0  0
    1.3142    0.9788    0.0000 C   0  0  0  0  0  0  0  0  0
    0.5997    0.5663    0.0000 C   0  0  0  0  0  0  0  0  0
    2.0287    2.2163    0.0000 C   0  0  0  0  0  0  0  0  0
    2.0287    3.0413    0.0000 O   0  0  0  0  0  0  0  0  0
    2.7431    1.8038    0.0000 N   0  0  0  0  0  0  0  0  0
    3.4968    2.1393    0.0000 C   0  0  0  0  0  0  0  0  0
    4.0488    1.5262    0.0000 C   0  0  0  0  0  0  0  0  0
    3.6363    0.8117    0.0000 C   0  0  0  0  0  0  0  0  0
    2.8294    0.9833    0.0000 C   0  0  0  0  0  0  0  0  0
   -0.8292    2.2163    0.0000 C   0  0  0  0  0  0  0  0  0
   -1.5437    1.8038    0.0000 C   0  0  0  0  0  0  0  0  0
  1  2  1  0  0  0  0
  1 11  1  0  0  0  0
  2  3  1  0  0  0  0
  2  7  1  0  0  0  0
  3  4  1  0  0  0  0
  4  5  1  0  0  0  0
  5  6  1  0  0  0  0
  5  8  1  0  0  0  0
  6  7  1  0  0  0  0
  8  9  1  0  0  0  0
  8 10  1  0  0  0  0
 11 12  4  0  0  0  0
 11 27  4  0  0  0  0
 12 13  4  0  0  0  0
 13 14  4  0  0  0  0
 13 18  4  0  0  0  0
 14 15  4  0  0  0  0
 14 26  4  0  0  0  0
 15 16  4  0  0  0  0
 16 17  4  0  0  0  0
 16 19  1  0  0  0  0
 17 18  4  0  0  0  0
 19 20  2  0  0  0  0
 19 21  1  0  0  0  0
 21 22  1  0  0  0  0
 21 25  1  0  0  0  0
 22 23  1  0  0  0  0
 23 24  1  0  0  0  0
 24 25  1  0  0  0  0
 26 27  4  0  0  0  0
M  END
>  <Name_Molregno>
490172

>  <HISTAMINE H3>
7.24

$$$$
490240
  Marvin  02231216192D 0   1.00000     0.00000     0

 29 32  0  0  0  0  0  0  0  0999 V2000
   -4.0035   -1.3713    0.0000 O   0  0  0  0  0  0  0  0  0
   -4.7179   -0.9588    0.0000 C   0  0  0  0  0  0  0  0  0
   -5.4324   -1.3713    0.0000 C   0  0  0  0  0  0  0  0  0
   -6.1469   -0.9588    0.0000 C   0  0  0  0  0  0  0  0  0
   -6.1469   -0.1338    0.0000 N   0  0  0  0  0  0  0  0  0
   -5.4324    0.2787    0.0000 C   0  0  0  0  0  0  0  0  0
   -4.7179   -0.1338    0.0000 C   0  0  0  0  0  0  0  0  0
   -6.8613    0.2787    0.0000 C   0  0  0  0  0  0  0  0  0
   -6.8613    1.1037    0.0000 C   0  0  0  0  0  0  0  0  0
   -7.5758   -0.1338    0.0000 C   0  0  0  0  0  0  0  0  0
   -3.2890   -0.9588    0.0000 C   0  0  0  0  0  0  0  0  0
   -2.5745   -1.3713    0.0000 C   0  0  0  0  0  0  0  0  0
   -1.8601   -0.9588    0.0000 C   0  0  0  0  0  0  0  0  0
   -1.8601   -0.1338    0.0000 C   0  0  0  0  0  0  0  0  0
   -1.1456    0.2787    0.0000 C   0  0  0  0  0  0  0  0  0
   -0.4311   -0.1338    0.0000 C   0  0  0  0  0  0  0  0  0
   -0.4311   -0.9588    0.0000 C   0  0  0  0  0  0  0  0  0
   -1.1456   -1.3713    0.0000 C   0  0  0  0  0  0  0  0  0
    0.2834    0.2787    0.0000 C   0  0  0  0  0  0  0  0  0
    0.9978   -0.1338    0.0000 O   0  0  0  0  0  0  0  0  0
    0.2834    1.1037    0.0000 N   0  0  0  0  0  0  0  0  0
    0.9978    1.5162    0.0000 C   0  0  0  0  0  0  0  0  0
    0.9978    2.3412    0.0000 C   0  0  0  0  0  0  0  0  0
    1.7123    2.7537    0.0000 C   0  0  0  0  0  0  0  0  0
    2.4268    2.3412    0.0000 C   0  0  0  0  0  0  0  0  0
    2.4268    1.5162    0.0000 C   0  0  0  0  0  0  0  0  0
    1.7123    1.1037    0.0000 C   0  0  0  0  0  0  0  0  0
   -2.5745    0.2787    0.0000 C   0  0  0  0  0  0  0  0  0
   -3.2890   -0.1338    0.0000 C   0  0  0  0  0  0  0  0  0
  1  2  1  0  0  0  0
  1 11  1  0  0  0  0
  2  3  1  0  0  0  0
  2  7  1  0  0  0  0
  3  4  1  0  0  0  0
  4  5  1  0  0  0  0
  5  6  1  0  0  0  0
  5  8  1  0  0  0  0
  6  7  1  0  0  0  0
  8  9  1  0  0  0  0
  8 10  1  0  0  0  0
 11 12  4  0  0  0  0
 11 29  4  0  0  0  0
 12 13  4  0  0  0  0
 13 14  4  0  0  0  0
 13 18  4  0  0  0  0
 14 15  4  0  0  0  0
 14 28  4  0  0  0  0
 15 16  4  0  0  0  0
 16 17  4  0  0  0  0
 16 19  1  0  0  0  0
 17 18  4  0  0  0  0
 19 20  2  0  0  0  0
 19 21  1  0  0  0  0
 21 22  1  0  0  0  0
 22 23  1  0  0  0  0
 22 27  1  0  0  0  0
 23 24  1  0  0  0  0
 24 25  1  0  0  0  0
 25 26  1  0  0  0  0
 26 27  1  0  0  0  0
 28 29  4  0  0  0  0
M  END
>  <Name_Molregno>
490240

>  <HISTAMINE H3>
7.06

$$$$
493222
  Marvin  02231216192D 0   1.00000     0.00000     0

 32 36  0  0  0  0  0  0  0  0999 V2000
   -0.0465   -4.9649    0.0000 F   0  0  0  0  0  0  0  0  0
   -0.7610   -4.5524    0.0000 C   0  0  0  0  0  0  0  0  0
   -1.4755   -4.9649    0.0000 C   0  0  0  0  0  0  0  0  0
   -2.1899   -4.5524    0.0000 C   0  0  0  0  0  0  0  0  0
   -2.9746   -4.8074    0.0000 N   0  0  0  0  0  0  0  0  0
   -3.4595   -4.1399    0.0000 C   0  0  0  0  0  0  0  0  0
   -2.9746   -3.4725    0.0000 N   0  0  0  0  0  0  0  0  0
   -2.1899   -3.7274    0.0000 C   0  0  0  0  0  0  0  0  0
   -1.4755   -3.3149    0.0000 C   0  0  0  0  0  0  0  0  0
   -0.7610   -3.7274    0.0000 C   0  0  0  0  0  0  0  0  0
   -3.2295   -2.6879    0.0000 C   0  0  0  0  0  0  0  0  0
   -4.0365   -2.5163    0.0000 C   0  0  0  0  0  0  0  0  0
   -4.2914   -1.7317    0.0000 C   0  0  0  0  0  0  0  0  0
   -3.7394   -1.1186    0.0000 C   0  0  0  0  0  0  0  0  0
   -3.9943   -0.3340    0.0000 O   0  0  0  0  0  0  0  0  0
   -4.8013   -0.1625    0.0000 C   0  0  0  0  0  0  0  0  0
   -5.0562    0.6222    0.0000 C   0  0  0  0  0  0  0  0  0
   -5.8632    0.7937    0.0000 C   0  0  0  0  0  0  0  0  0
   -6.1181    1.5783    0.0000 N   0  0  0  0  0  0  0  0  0
   -6.9251    1.7498    0.0000 C   0  0  0  0  0  0  0  0  0
   -7.1800    2.5345    0.0000 C   0  0  0  0  0  0  0  0  0
   -6.6280    3.1475    0.0000 C   0  0  0  0  0  0  0  0  0
   -5.8210    2.9760    0.0000 C   0  0  0  0  0  0  0  0  0
   -5.5661    2.1914    0.0000 C   0  0  0  0  0  0  0  0  0
   -2.9324   -1.2901    0.0000 C   0  0  0  0  0  0  0  0  0
   -2.6775   -2.0748    0.0000 C   0  0  0  0  0  0  0  0  0
   -4.2845   -4.1399    0.0000 C   0  0  0  0  0  0  0  0  0
   -4.6970   -4.8544    0.0000 N   0  0  0  0  0  0  0  0  0
   -5.5220   -4.8544    0.0000 C   0  0  0  0  0  0  0  0  0
   -5.9345   -4.1399    0.0000 C   0  0  0  0  0  0  0  0  0
   -5.5220   -3.4254    0.0000 C   0  0  0  0  0  0  0  0  0
   -4.6970   -3.4254    0.0000 C   0  0  0  0  0  0  0  0  0
  1  2  1  0  0  0  0
  2  3  4  0  0  0  0
  2 10  4  0  0  0  0
  3  4  4  0  0  0  0
  4  5  4  0  0  0  0
  4  8  4  0  0  0  0
  5  6  4  0  0  0  0
  6  7  4  0  0  0  0
  6 27  1  0  0  0  0
  7  8  4  0  0  0  0
  7 11  1  0  0  0  0
  8  9  4  0  0  0  0
  9 10  4  0  0  0  0
 11 12  4  0  0  0  0
 11 26  4  0  0  0  0
 12 13  4  0  0  0  0
 13 14  4  0  0  0  0
 14 15  1  0  0  0  0
 14 25  4  0  0  0  0
 15 16  1  0  0  0  0
 16 17  1  0  0  0  0
 17 18  1  0  0  0  0
 18 19  1  0  0  0  0
 19 20  1  0  0  0  0
 19 24  1  0  0  0  0
 20 21  1  0  0  0  0
 21 22  1  0  0  0  0
 22 23  1  0  0  0  0
 23 24  1  0  0  0  0
 25 26  4  0  0  0  0
 27 28  4  0  0  0  0
 27 32  4  0  0  0  0
 28 29  4  0  0  0  0
 29 30  4  0  0  0  0
 30 31  4  0  0  0  0
 31 32  4  0  0  0  0
M  END
>  <Name_Molregno>
493222

>  <HISTAMINE H3>
9.46

$$$$
493223
  Marvin  02231216192D 0   1.00000     0.00000     0

 34 38  0  0  1  0  0  0  0  0999 V2000
   -0.2083   -5.2075    0.0000 F   0  0  0  0  0  0  0  0  0
   -0.9228   -4.7950    0.0000 C   0  0  0  0  0  0  0  0  0
   -1.6372   -5.2075    0.0000 C   0  0  0  0  0  0  0  0  0
   -2.3517   -4.7950    0.0000 C   0  0  0  0  0  0  0  0  0
   -3.1363   -5.0499    0.0000 N   0  0  0  0  0  0  0  0  0
   -3.6213   -4.3825    0.0000 C   0  0  0  0  0  0  0  0  0
   -3.1363   -3.7151    0.0000 N   0  0  0  0  0  0  0  0  0
   -2.3517   -3.9700    0.0000 C   0  0  0  0  0  0  0  0  0
   -1.6372   -3.5575    0.0000 C   0  0  0  0  0  0  0  0  0
   -0.9228   -3.9700    0.0000 C   0  0  0  0  0  0  0  0  0
   -3.3913   -2.9304    0.0000 C   0  0  0  0  0  0  0  0  0
   -4.1982   -2.7589    0.0000 C   0  0  0  0  0  0  0  0  0
   -4.4532   -1.9743    0.0000 C   0  0  0  0  0  0  0  0  0
   -3.9011   -1.3612    0.0000 C   0  0  0  0  0  0  0  0  0
   -4.1561   -0.5766    0.0000 O   0  0  0  0  0  0  0  0  0
   -4.9631   -0.4050    0.0000 C   0  0  0  0  0  0  0  0  0
   -5.2180    0.3796    0.0000 C   0  0  0  0  0  0  0  0  0
   -6.0250    0.5511    0.0000 C   0  0  0  0  0  0  0  0  0
   -6.2799    1.3357    0.0000 N   0  0  0  0  0  0  0  0  0
   -7.0869    1.5072    0.0000 C   0  0  0  0  0  0  0  0  0
   -7.3418    2.2919    0.0000 C   0  0  0  0  0  0  0  0  0
   -6.7898    2.9050    0.0000 C   0  0  0  0  0  0  0  0  0
   -5.9828    2.7334    0.0000 C   0  0  0  0  0  0  0  0  0
   -5.7279    1.9488    0.0000 C   0  0  0  0  0  0  0  0  0
   -5.4308    3.3465    0.0000 C   0  0  0  0  0  0  0  0  0
   -8.1488    2.4634    0.0000 C   0  0  0  0  0  0  0  0  0
   -3.0942   -1.5327    0.0000 C   0  0  0  0  0  0  0  0  0
   -2.8392   -2.3173    0.0000 C   0  0  0  0  0  0  0  0  0
   -4.4463   -4.3825    0.0000 C   0  0  0  0  0  0  0  0  0
   -4.8588   -5.0970    0.0000 N   0  0  0  0  0  0  0  0  0
   -5.6838   -5.0970    0.0000 C   0  0  0  0  0  0  0  0  0
   -6.0963   -4.3825    0.0000 C   0  0  0  0  0  0  0  0  0
   -5.6838   -3.6680    0.0000 C   0  0  0  0  0  0  0  0  0
   -4.8588   -3.6680    0.0000 C   0  0  0  0  0  0  0  0  0
  1  2  1  0  0  0  0
  2  3  4  0  0  0  0
  2 10  4  0  0  0  0
  3  4  4  0  0  0  0
  4  5  4  0  0  0  0
  4  8  4  0  0  0  0
  5  6  4  0  0  0  0
  6  7  4  0  0  0  0
  6 29  1  0  0  0  0
  7  8  4  0  0  0  0
  7 11  1  0  0  0  0
  8  9  4  0  0  0  0
  9 10  4  0  0  0  0
 11 12  4  0  0  0  0
 11 28  4  0  0  0  0
 12 13  4  0  0  0  0
 13 14  4  0  0  0  0
 14 15  1  0  0  0  0
 14 27  4  0  0  0  0
 15 16  1  0  0  0  0
 16 17  1  0  0  0  0
 17 18  1  0  0  0  0
 18 19  1  0  0  0  0
 19 20  1  0  0  0  0
 19 24  1  0  0  0  0
 20 21  1  0  0  0  0
 21 22  1  0  0  0  0
 21 26  1  0  0  0  0
 22 23  1  0  0  0  0
 23 24  1  0  0  0  0
 23 25  1  0  0  0  0
 27 28  4  0  0  0  0
 29 30  4  0  0  0  0
 29 34  4  0  0  0  0
 30 31  4  0  0  0  0
 31 32  4  0  0  0  0
 32 33  4  0  0  0  0
 33 34  4  0  0  0  0
M  END
>  <Name_Molregno>
493223

>  <HISTAMINE H3>
7.96

$$$$
493224
  Marvin  02231216192D 0   1.00000     0.00000     0

 32 36  0  0  0  0  0  0  0  0999 V2000
   -0.0465   -4.9649    0.0000 F   0  0  0  0  0  0  0  0  0
   -0.7610   -4.5524    0.0000 C   0  0  0  0  0  0  0  0  0
   -1.4755   -4.9649    0.0000 C   0  0  0  0  0  0  0  0  0
   -2.1899   -4.5524    0.0000 C   0  0  0  0  0  0  0  0  0
   -2.9746   -4.8074    0.0000 N   0  0  0  0  0  0  0  0  0
   -3.4595   -4.1399    0.0000 C   0  0  0  0  0  0  0  0  0
   -2.9746   -3.4725    0.0000 N   0  0  0  0  0  0  0  0  0
   -2.1899   -3.7274    0.0000 C   0  0  0  0  0  0  0  0  0
   -1.4755   -3.3149    0.0000 C   0  0  0  0  0  0  0  0  0
   -0.7610   -3.7274    0.0000 C   0  0  0  0  0  0  0  0  0
   -3.2295   -2.6879    0.0000 C   0  0  0  0  0  0  0  0  0
   -4.0365   -2.5163    0.0000 C   0  0  0  0  0  0  0  0  0
   -4.2914   -1.7317    0.0000 C   0  0  0  0  0  0  0  0  0
   -3.7394   -1.1186    0.0000 C   0  0  0  0  0  0  0  0  0
   -3.9943   -0.3340    0.0000 O   0  0  0  0  0  0  0  0  0
   -4.8013   -0.1625    0.0000 C   0  0  0  0  0  0  0  0  0
   -5.0562    0.6222    0.0000 C   0  0  0  0  0  0  0  0  0
   -5.8632    0.7937    0.0000 C   0  0  0  0  0  0  0  0  0
   -6.1181    1.5783    0.0000 N   0  0  0  0  0  0  0  0  0
   -6.9251    1.7498    0.0000 C   0  0  0  0  0  0  0  0  0
   -7.1800    2.5345    0.0000 C   0  0  0  0  0  0  0  0  0
   -6.6280    3.1475    0.0000 O   0  0  0  0  0  0  0  0  0
   -5.8210    2.9760    0.0000 C   0  0  0  0  0  0  0  0  0
   -5.5661    2.1914    0.0000 C   0  0  0  0  0  0  0  0  0
   -2.9324   -1.2901    0.0000 C   0  0  0  0  0  0  0  0  0
   -2.6775   -2.0748    0.0000 C   0  0  0  0  0  0  0  0  0
   -4.2845   -4.1399    0.0000 C   0  0  0  0  0  0  0  0  0
   -4.6970   -4.8544    0.0000 N   0  0  0  0  0  0  0  0  0
   -5.5220   -4.8544    0.0000 C   0  0  0  0  0  0  0  0  0
   -5.9345   -4.1399    0.0000 C   0  0  0  0  0  0  0  0  0
   -5.5220   -3.4254    0.0000 C   0  0  0  0  0  0  0  0  0
   -4.6970   -3.4254    0.0000 C   0  0  0  0  0  0  0  0  0
  1  2  1  0  0  0  0
  2  3  4  0  0  0  0
  2 10  4  0  0  0  0
  3  4  4  0  0  0  0
  4  5  4  0  0  0  0
  4  8  4  0  0  0  0
  5  6  4  0  0  0  0
  6  7  4  0  0  0  0
  6 27  1  0  0  0  0
  7  8  4  0  0  0  0
  7 11  1  0  0  0  0
  8  9  4  0  0  0  0
  9 10  4  0  0  0  0
 11 12  4  0  0  0  0
 11 26  4  0  0  0  0
 12 13  4  0  0  0  0
 13 14  4  0  0  0  0
 14 15  1  0  0  0  0
 14 25  4  0  0  0  0
 15 16  1  0  0  0  0
 16 17  1  0  0  0  0
 17 18  1  0  0  0  0
 18 19  1  0  0  0  0
 19 20  1  0  0  0  0
 19 24  1  0  0  0  0
 20 21  1  0  0  0  0
 21 22  1  0  0  0  0
 22 23  1  0  0  0  0
 23 24  1  0  0  0  0
 25 26  4  0  0  0  0
 27 28  4  0  0  0  0
 27 32  4  0  0  0  0
 28 29  4  0  0  0  0
 29 30  4  0  0  0  0
 30 31  4  0  0  0  0
 31 32  4  0  0  0  0
M  END
>  <Name_Molregno>
493224

>  <HISTAMINE H3>
8.47

$$$$
493287
  Marvin  02231216192D 0   1.00000     0.00000     0

 39 44  0  0  0  0  0  0  0  0999 V2000
   -0.5268   -5.6476    0.0000 F   0  0  0  0  0  0  0  0  0
   -1.2413   -5.2351    0.0000 C   0  0  0  0  0  0  0  0  0
   -1.9558   -5.6476    0.0000 C   0  0  0  0  0  0  0  0  0
   -2.6702   -5.2351    0.0000 C   0  0  0  0  0  0  0  0  0
   -3.4549   -5.4900    0.0000 N   0  0  0  0  0  0  0  0  0
   -3.9398   -4.8226    0.0000 C   0  0  0  0  0  0  0  0  0
   -3.4549   -4.1551    0.0000 N   0  0  0  0  0  0  0  0  0
   -2.6702   -4.4101    0.0000 C   0  0  0  0  0  0  0  0  0
   -1.9558   -3.9976    0.0000 C   0  0  0  0  0  0  0  0  0
   -1.2413   -4.4101    0.0000 C   0  0  0  0  0  0  0  0  0
   -3.7098   -3.3705    0.0000 C   0  0  0  0  0  0  0  0  0
   -4.5168   -3.1990    0.0000 C   0  0  0  0  0  0  0  0  0
   -4.7717   -2.4144    0.0000 C   0  0  0  0  0  0  0  0  0
   -4.2197   -1.8013    0.0000 C   0  0  0  0  0  0  0  0  0
   -4.4746   -1.0166    0.0000 O   0  0  0  0  0  0  0  0  0
   -5.2816   -0.8451    0.0000 C   0  0  0  0  0  0  0  0  0
   -5.5365   -0.0605    0.0000 C   0  0  0  0  0  0  0  0  0
   -6.3435    0.1110    0.0000 C   0  0  0  0  0  0  0  0  0
   -6.5984    0.8957    0.0000 N   0  0  0  0  0  0  0  0  0
   -7.4054    1.0672    0.0000 C   0  0  0  0  0  0  0  0  0
   -7.6604    1.8518    0.0000 C   0  0  0  0  0  0  0  0  0
   -7.1083    2.4649    0.0000 C   0  0  0  0  0  0  0  0  0
   -6.3013    2.2934    0.0000 C   0  0  0  0  0  0  0  0  0
   -6.0464    1.5088    0.0000 C   0  0  0  0  0  0  0  0  0
   -7.3633    3.2495    0.0000 C   0  0  0  0  0  0  0  0  0
   -8.1702    3.4210    0.0000 C   0  0  0  0  0  0  0  0  0
   -8.7223    2.8080    0.0000 C   0  0  0  0  0  0  0  0  0
   -9.5292    2.9795    0.0000 C   0  0  0  0  0  0  0  0  0
   -9.7842    3.7641    0.0000 C   0  0  0  0  0  0  0  0  0
   -9.2321    4.3772    0.0000 C   0  0  0  0  0  0  0  0  0
   -8.4252    4.2057    0.0000 C   0  0  0  0  0  0  0  0  0
   -3.4127   -1.9728    0.0000 C   0  0  0  0  0  0  0  0  0
   -3.1578   -2.7574    0.0000 C   0  0  0  0  0  0  0  0  0
   -4.7648   -4.8226    0.0000 C   0  0  0  0  0  0  0  0  0
   -5.1773   -5.5370    0.0000 N   0  0  0  0  0  0  0  0  0
   -6.0023   -5.5370    0.0000 C   0  0  0  0  0  0  0  0  0
   -6.4148   -4.8226    0.0000 C   0  0  0  0  0  0  0  0  0
   -6.0023   -4.1081    0.0000 C   0  0  0  0  0  0  0  0  0
   -5.1773   -4.1081    0.0000 C   0  0  0  0  0  0  0  0  0
  1  2  1  0  0  0  0
  2  3  4  0  0  0  0
  2 10  4  0  0  0  0
  3  4  4  0  0  0  0
  4  5  4  0  0  0  0
  4  8  4  0  0  0  0
  5  6  4  0  0  0  0
  6  7  4  0  0  0  0
  6 34  1  0  0  0  0
  7  8  4  0  0  0  0
  7 11  1  0  0  0  0
  8  9  4  0  0  0  0
  9 10  4  0  0  0  0
 11 12  4  0  0  0  0
 11 33  4  0  0  0  0
 12 13  4  0  0  0  0
 13 14  4  0  0  0  0
 14 15  1  0  0  0  0
 14 32  4  0  0  0  0
 15 16  1  0  0  0  0
 16 17  1  0  0  0  0
 17 18  1  0  0  0  0
 18 19  1  0  0  0  0
 19 20  1  0  0  0  0
 19 24  1  0  0  0  0
 20 21  1  0  0  0  0
 21 22  1  0  0  0  0
 22 23  1  0  0  0  0
 22 25  1  0  0  0  0
 23 24  1  0  0  0  0
 25 26  1  0  0  0  0
 26 27  4  0  0  0  0
 26 31  4  0  0  0  0
 27 28  4  0  0  0  0
 28 29  4  0  0  0  0
 29 30  4  0  0  0  0
 30 31  4  0  0  0  0
 32 33  4  0  0  0  0
 34 35  4  0  0  0  0
 34 39  4  0  0  0  0
 35 36  4  0  0  0  0
 36 37  4  0  0  0  0
 37 38  4  0  0  0  0
 38 39  4  0  0  0  0
M  END
>  <Name_Molregno>
493287

>  <HISTAMINE H3>
8.7

$$$$
493288
  Marvin  02231216192D 0   1.00000     0.00000     0

 33 37  0  0  0  0  0  0  0  0999 V2000
   -0.1568   -5.0903    0.0000 F   0  0  0  0  0  0  0  0  0
   -0.8713   -4.6778    0.0000 C   0  0  0  0  0  0  0  0  0
   -1.5858   -5.0903    0.0000 C   0  0  0  0  0  0  0  0  0
   -2.3003   -4.6778    0.0000 C   0  0  0  0  0  0  0  0  0
   -3.0849   -4.9328    0.0000 N   0  0  0  0  0  0  0  0  0
   -3.5698   -4.2653    0.0000 C   0  0  0  0  0  0  0  0  0
   -3.0849   -3.5979    0.0000 N   0  0  0  0  0  0  0  0  0
   -2.3003   -3.8528    0.0000 C   0  0  0  0  0  0  0  0  0
   -1.5858   -3.4403    0.0000 C   0  0  0  0  0  0  0  0  0
   -0.8713   -3.8528    0.0000 C   0  0  0  0  0  0  0  0  0
   -3.3398   -2.8133    0.0000 C   0  0  0  0  0  0  0  0  0
   -4.1468   -2.6418    0.0000 C   0  0  0  0  0  0  0  0  0
   -4.4017   -1.8571    0.0000 C   0  0  0  0  0  0  0  0  0
   -3.8497   -1.2440    0.0000 C   0  0  0  0  0  0  0  0  0
   -4.1046   -0.4594    0.0000 O   0  0  0  0  0  0  0  0  0
   -4.9116   -0.2879    0.0000 C   0  0  0  0  0  0  0  0  0
   -5.1665    0.4967    0.0000 C   0  0  0  0  0  0  0  0  0
   -5.9735    0.6683    0.0000 C   0  0  0  0  0  0  0  0  0
   -6.2285    1.4529    0.0000 N   0  0  0  0  0  0  0  0  0
   -7.0354    1.6244    0.0000 C   0  0  0  0  0  0  0  0  0
   -7.2904    2.4090    0.0000 C   0  0  0  0  0  0  0  0  0
   -6.7383    3.0221    0.0000 N   0  0  0  0  0  0  0  0  0
   -5.9314    2.8506    0.0000 C   0  0  0  0  0  0  0  0  0
   -5.6764    2.0660    0.0000 C   0  0  0  0  0  0  0  0  0
   -6.9933    3.8067    0.0000 C   0  0  0  0  0  0  0  0  0
   -3.0427   -1.4156    0.0000 C   0  0  0  0  0  0  0  0  0
   -2.7878   -2.2002    0.0000 C   0  0  0  0  0  0  0  0  0
   -4.3948   -4.2653    0.0000 C   0  0  0  0  0  0  0  0  0
   -4.8073   -4.9798    0.0000 N   0  0  0  0  0  0  0  0  0
   -5.6323   -4.9798    0.0000 C   0  0  0  0  0  0  0  0  0
   -6.0448   -4.2653    0.0000 C   0  0  0  0  0  0  0  0  0
   -5.6323   -3.5509    0.0000 C   0  0  0  0  0  0  0  0  0
   -4.8073   -3.5509    0.0000 C   0  0  0  0  0  0  0  0  0
  1  2  1  0  0  0  0
  2  3  4  0  0  0  0
  2 10  4  0  0  0  0
  3  4  4  0  0  0  0
  4  5  4  0  0  0  0
  4  8  4  0  0  0  0
  5  6  4  0  0  0  0
  6  7  4  0  0  0  0
  6 28  1  0  0  0  0
  7  8  4  0  0  0  0
  7 11  1  0  0  0  0
  8  9  4  0  0  0  0
  9 10  4  0  0  0  0
 11 12  4  0  0  0  0
 11 27  4  0  0  0  0
 12 13  4  0  0  0  0
 13 14  4  0  0  0  0
 14 15  1  0  0  0  0
 14 26  4  0  0  0  0
 15 16  1  0  0  0  0
 16 17  1  0  0  0  0
 17 18  1  0  0  0  0
 18 19  1  0  0  0  0
 19 20  1  0  0  0  0
 19 24  1  0  0  0  0
 20 21  1  0  0  0  0
 21 22  1  0  0  0  0
 22 23  1  0  0  0  0
 22 25  1  0  0  0  0
 23 24  1  0  0  0  0
 26 27  4  0  0  0  0
 28 29  4  0  0  0  0
 28 33  4  0  0  0  0
 29 30  4  0  0  0  0
 30 31  4  0  0  0  0
 31 32  4  0  0  0  0
 32 33  4  0  0  0  0
M  END
>  <Name_Molregno>
493288

>  <HISTAMINE H3>
7.89

$$$$
493289
  Marvin  02231216192D 0   1.00000     0.00000     0

 31 35  0  0  0  0  0  0  0  0999 V2000
    7.6938   -4.8375    0.0000 F   0  0  0  0  0  0  0  0  0
    6.9793   -4.4250    0.0000 C   0  0  0  0  0  0  0  0  0
    6.2648   -4.8375    0.0000 C   0  0  0  0  0  0  0  0  0
    5.5504   -4.4250    0.0000 C   0  0  0  0  0  0  0  0  0
    4.7657   -4.6799    0.0000 N   0  0  0  0  0  0  0  0  0
    4.2808   -4.0125    0.0000 C   0  0  0  0  0  0  0  0  0
    4.7657   -3.3450    0.0000 N   0  0  0  0  0  0  0  0  0
    5.5504   -3.6000    0.0000 C   0  0  0  0  0  0  0  0  0
    6.2648   -3.1875    0.0000 C   0  0  0  0  0  0  0  0  0
    6.9793   -3.6000    0.0000 C   0  0  0  0  0  0  0  0  0
    4.5108   -2.5604    0.0000 C   0  0  0  0  0  0  0  0  0
    3.7038   -2.3889    0.0000 C   0  0  0  0  0  0  0  0  0
    3.4489   -1.6043    0.0000 C   0  0  0  0  0  0  0  0  0
    4.0009   -0.9912    0.0000 C   0  0  0  0  0  0  0  0  0
    3.7460   -0.2065    0.0000 O   0  0  0  0  0  0  0  0  0
    2.9390   -0.0350    0.0000 C   0  0  0  0  0  0  0  0  0
    2.6841    0.7496    0.0000 C   0  0  0  0  0  0  0  0  0
    1.8771    0.9211    0.0000 C   0  0  0  0  0  0  0  0  0
    1.6222    1.7058    0.0000 N   0  0  0  0  0  0  0  0  0
    0.8375    1.9607    0.0000 C   0  0  0  0  0  0  0  0  0
    0.8375    2.7857    0.0000 C   0  0  0  0  0  0  0  0  0
    1.6222    3.0406    0.0000 C   0  0  0  0  0  0  0  0  0
    2.1071    2.3732    0.0000 C   0  0  0  0  0  0  0  0  0
    4.8079   -1.1627    0.0000 C   0  0  0  0  0  0  0  0  0
    5.0628   -1.9473    0.0000 C   0  0  0  0  0  0  0  0  0
    3.4558   -4.0125    0.0000 C   0  0  0  0  0  0  0  0  0
    3.0433   -4.7269    0.0000 N   0  0  0  0  0  0  0  0  0
    2.2183   -4.7269    0.0000 C   0  0  0  0  0  0  0  0  0
    1.8058   -4.0125    0.0000 C   0  0  0  0  0  0  0  0  0
    2.2183   -3.2980    0.0000 C   0  0  0  0  0  0  0  0  0
    3.0433   -3.2980    0.0000 C   0  0  0  0  0  0  0  0  0
  1  2  1  0  0  0  0
  2  3  4  0  0  0  0
  2 10  4  0  0  0  0
  3  4  4  0  0  0  0
  4  5  4  0  0  0  0
  4  8  4  0  0  0  0
  5  6  4  0  0  0  0
  6  7  4  0  0  0  0
  6 26  1  0  0  0  0
  7  8  4  0  0  0  0
  7 11  1  0  0  0  0
  8  9  4  0  0  0  0
  9 10  4  0  0  0  0
 11 12  4  0  0  0  0
 11 25  4  0  0  0  0
 12 13  4  0  0  0  0
 13 14  4  0  0  0  0
 14 15  1  0  0  0  0
 14 24  4  0  0  0  0
 15 16  1  0  0  0  0
 16 17  1  0  0  0  0
 17 18  1  0  0  0  0
 18 19  1  0  0  0  0
 19 20  1  0  0  0  0
 19 23  1  0  0  0  0
 20 21  1  0  0  0  0
 21 22  1  0  0  0  0
 22 23  1  0  0  0  0
 24 25  4  0  0  0  0
 26 27  4  0  0  0  0
 26 31  4  0  0  0  0
 27 28  4  0  0  0  0
 28 29  4  0  0  0  0
 29 30  4  0  0  0  0
 30 31  4  0  0  0  0
M  END
>  <Name_Molregno>
493289

>  <HISTAMINE H3>
8.92

$$$$
493290
  Marvin  02231216192D 0   1.00000     0.00000     0

 33 37  0  0  1  0  0  0  0  0999 V2000
    8.0946   -4.9911    0.0000 F   0  0  0  0  0  0  0  0  0
    7.3801   -4.5786    0.0000 C   0  0  0  0  0  0  0  0  0
    6.6656   -4.9911    0.0000 C   0  0  0  0  0  0  0  0  0
    5.9512   -4.5786    0.0000 C   0  0  0  0  0  0  0  0  0
    5.1665   -4.8335    0.0000 N   0  0  0  0  0  0  0  0  0
    4.6816   -4.1661    0.0000 C   0  0  0  0  0  0  0  0  0
    5.1665   -3.4986    0.0000 N   0  0  0  0  0  0  0  0  0
    5.9512   -3.7536    0.0000 C   0  0  0  0  0  0  0  0  0
    6.6656   -3.3411    0.0000 C   0  0  0  0  0  0  0  0  0
    7.3801   -3.7536    0.0000 C   0  0  0  0  0  0  0  0  0
    4.9116   -2.7140    0.0000 C   0  0  0  0  0  0  0  0  0
    4.1046   -2.5425    0.0000 C   0  0  0  0  0  0  0  0  0
    3.8497   -1.7579    0.0000 C   0  0  0  0  0  0  0  0  0
    4.4017   -1.1448    0.0000 C   0  0  0  0  0  0  0  0  0
    4.1468   -0.3602    0.0000 O   0  0  0  0  0  0  0  0  0
    3.3398   -0.1886    0.0000 C   0  0  0  0  0  0  0  0  0
    3.0849    0.5960    0.0000 C   0  0  0  0  0  0  0  0  0
    2.2779    0.7675    0.0000 C   0  0  0  0  0  0  0  0  0
    2.0230    1.5521    0.0000 N   0  0  0  0  0  0  0  0  0
    1.2383    1.8071    0.0000 C   0  0  0  0  0  0  0  0  0
    1.2383    2.6321    0.0000 C   0  0  0  0  0  0  0  0  0
    2.0230    2.8870    0.0000 C   0  0  0  0  0  0  0  0  0
    2.5079    2.2196    0.0000 C   0  0  0  0  0  0  0  0  0
    3.3329    2.2196    0.0000 C   0  0  0  0  0  0  0  0  0
    0.5709    1.3222    0.0000 C   0  0  0  0  0  0  0  0  0
    5.2087   -1.3163    0.0000 C   0  0  0  0  0  0  0  0  0
    5.4636   -2.1009    0.0000 C   0  0  0  0  0  0  0  0  0
    3.8566   -4.1661    0.0000 C   0  0  0  0  0  0  0  0  0
    3.4441   -4.8806    0.0000 N   0  0  0  0  0  0  0  0  0
    2.6191   -4.8806    0.0000 C   0  0  0  0  0  0  0  0  0
    2.2066   -4.1661    0.0000 C   0  0  0  0  0  0  0  0  0
    2.6191   -3.4516    0.0000 C   0  0  0  0  0  0  0  0  0
    3.4441   -3.4516    0.0000 C   0  0  0  0  0  0  0  0  0
  1  2  1  0  0  0  0
  2  3  4  0  0  0  0
  2 10  4  0  0  0  0
  3  4  4  0  0  0  0
  4  5  4  0  0  0  0
  4  8  4  0  0  0  0
  5  6  4  0  0  0  0
  6  7  4  0  0  0  0
  6 28  1  0  0  0  0
  7  8  4  0  0  0  0
  7 11  1  0  0  0  0
  8  9  4  0  0  0  0
  9 10  4  0  0  0  0
 11 12  4  0  0  0  0
 11 27  4  0  0  0  0
 12 13  4  0  0  0  0
 13 14  4  0  0  0  0
 14 15  1  0  0  0  0
 14 26  4  0  0  0  0
 15 16  1  0  0  0  0
 16 17  1  0  0  0  0
 17 18  1  0  0  0  0
 18 19  1  0  0  0  0
 19 20  1  0  0  0  0
 19 23  1  0  0  0  0
 20 21  1  0  0  0  0
 20 25  1  0  0  0  0
 21 22  1  0  0  0  0
 22 23  1  0  0  0  0
 23 24  1  0  0  0  0
 26 27  4  0  0  0  0
 28 29  4  0  0  0  0
 28 33  4  0  0  0  0
 29 30  4  0  0  0  0
 30 31  4  0  0  0  0
 31 32  4  0  0  0  0
 32 33  4  0  0  0  0
M  END
>  <Name_Molregno>
493290

>  <HISTAMINE H3>
8.29

$$$$
493351
  Marvin  02231216192D 0   1.00000     0.00000     0

 34 38  0  0  1  0  0  0  0  0999 V2000
    8.5722   -5.1231    0.0000 F   0  0  0  0  0  0  0  0  0
    7.8577   -4.7106    0.0000 C   0  0  0  0  0  0  0  0  0
    7.1433   -5.1231    0.0000 C   0  0  0  0  0  0  0  0  0
    6.4288   -4.7106    0.0000 C   0  0  0  0  0  0  0  0  0
    5.6442   -4.9656    0.0000 N   0  0  0  0  0  0  0  0  0
    5.1592   -4.2981    0.0000 C   0  0  0  0  0  0  0  0  0
    5.6442   -3.6307    0.0000 N   0  0  0  0  0  0  0  0  0
    6.4288   -3.8856    0.0000 C   0  0  0  0  0  0  0  0  0
    7.1433   -3.4731    0.0000 C   0  0  0  0  0  0  0  0  0
    7.8577   -3.8856    0.0000 C   0  0  0  0  0  0  0  0  0
    5.3892   -2.8461    0.0000 C   0  0  0  0  0  0  0  0  0
    4.5823   -2.6745    0.0000 C   0  0  0  0  0  0  0  0  0
    4.3273   -1.8899    0.0000 C   0  0  0  0  0  0  0  0  0
    4.8793   -1.2768    0.0000 C   0  0  0  0  0  0  0  0  0
    4.6244   -0.4922    0.0000 O   0  0  0  0  0  0  0  0  0
    3.8174   -0.3207    0.0000 C   0  0  0  0  0  0  0  0  0
    3.5625    0.4639    0.0000 C   0  0  0  0  0  0  0  0  0
    2.7555    0.6355    0.0000 C   0  0  0  0  0  0  0  0  0
    2.5006    1.4201    0.0000 N   0  0  0  0  0  0  0  0  0
    1.7160    1.6750    0.0000 C   0  0  0  0  0  0  0  0  0
    1.7160    2.5000    0.0000 C   0  0  0  0  0  0  0  0  0
    2.5006    2.7550    0.0000 C   0  0  0  0  0  0  0  0  0
    2.9855    2.0875    0.0000 C   0  0  0  0  0  0  0  0  0
    1.0485    2.9849    0.0000 C   0  0  0  0  0  0  0  0  0
    0.2949    2.6494    0.0000 C   0  0  0  0  0  0  0  0  0
    1.1348    3.8054    0.0000 C   0  0  0  0  0  0  0  0  0
    5.6863   -1.4484    0.0000 C   0  0  0  0  0  0  0  0  0
    5.9413   -2.2330    0.0000 C   0  0  0  0  0  0  0  0  0
    4.3342   -4.2981    0.0000 C   0  0  0  0  0  0  0  0  0
    3.9217   -5.0126    0.0000 N   0  0  0  0  0  0  0  0  0
    3.0967   -5.0126    0.0000 C   0  0  0  0  0  0  0  0  0
    2.6842   -4.2981    0.0000 C   0  0  0  0  0  0  0  0  0
    3.0967   -3.5837    0.0000 C   0  0  0  0  0  0  0  0  0
    3.9217   -3.5837    0.0000 C   0  0  0  0  0  0  0  0  0
  1  2  1  0  0  0  0
  2  3  4  0  0  0  0
  2 10  4  0  0  0  0
  3  4  4  0  0  0  0
  4  5  4  0  0  0  0
  4  8  4  0  0  0  0
  5  6  4  0  0  0  0
  6  7  4  0  0  0  0
  6 29  1  0  0  0  0
  7  8  4  0  0  0  0
  7 11  1  0  0  0  0
  8  9  4  0  0  0  0
  9 10  4  0  0  0  0
 11 12  4  0  0  0  0
 11 28  4  0  0  0  0
 12 13  4  0  0  0  0
 13 14  4  0  0  0  0
 14 15  1  0  0  0  0
 14 27  4  0  0  0  0
 15 16  1  0  0  0  0
 16 17  1  0  0  0  0
 17 18  1  0  0  0  0
 18 19  1  0  0  0  0
 19 20  1  0  0  0  0
 19 23  1  0  0  0  0
 20 21  1  0  0  0  0
 21 22  1  0  0  0  0
 21 24  1  0  0  0  0
 22 23  1  0  0  0  0
 24 25  1  0  0  0  0
 24 26  1  0  0  0  0
 27 28  4  0  0  0  0
 29 30  4  0  0  0  0
 29 34  4  0  0  0  0
 30 31  4  0  0  0  0
 31 32  4  0  0  0  0
 32 33  4  0  0  0  0
 33 34  4  0  0  0  0
M  END
>  <Name_Molregno>
493351

>  <HISTAMINE H3>
8.32

$$$$
493352
  Marvin  02231216192D 0   1.00000     0.00000     0

 31 35  0  0  0  0  0  0  0  0999 V2000
    5.4524   -5.1213    0.0000 S   0  0  0  0  0  0  0  0  0
    4.6678   -4.8664    0.0000 C   0  0  0  0  0  0  0  0  0
    4.6678   -4.0414    0.0000 C   0  0  0  0  0  0  0  0  0
    5.4524   -3.7864    0.0000 N   0  0  0  0  0  0  0  0  0
    5.9373   -4.4539    0.0000 C   0  0  0  0  0  0  0  0  0
    5.7073   -3.0018    0.0000 C   0  0  0  0  0  0  0  0  0
    5.1553   -2.3887    0.0000 C   0  0  0  0  0  0  0  0  0
    5.4102   -1.6041    0.0000 C   0  0  0  0  0  0  0  0  0
    4.8582   -0.9910    0.0000 O   0  0  0  0  0  0  0  0  0
    5.1131   -0.2064    0.0000 C   0  0  0  0  0  0  0  0  0
    4.5611    0.4067    0.0000 C   0  0  0  0  0  0  0  0  0
    4.8160    1.1913    0.0000 C   0  0  0  0  0  0  0  0  0
    5.6230    1.3629    0.0000 C   0  0  0  0  0  0  0  0  0
    5.8780    2.1475    0.0000 N   0  0  0  0  0  0  0  0  0
    6.6626    2.4024    0.0000 C   0  0  0  0  0  0  0  0  0
    6.6626    3.2274    0.0000 C   0  0  0  0  0  0  0  0  0
    5.8780    3.4824    0.0000 N   0  0  0  0  0  0  0  0  0
    5.3930    2.8149    0.0000 C   0  0  0  0  0  0  0  0  0
    4.5680    2.8149    0.0000 C   0  0  0  0  0  0  0  0  0
    4.1555    2.1005    0.0000 N   0  0  0  0  0  0  0  0  0
    3.3305    2.1005    0.0000 C   0  0  0  0  0  0  0  0  0
    2.9180    2.8149    0.0000 C   0  0  0  0  0  0  0  0  0
    3.3305    3.5294    0.0000 C   0  0  0  0  0  0  0  0  0
    4.1555    3.5294    0.0000 C   0  0  0  0  0  0  0  0  0
    7.3770    3.6399    0.0000 C   0  0  0  0  0  0  0  0  0
    8.0915    3.2274    0.0000 C   0  0  0  0  0  0  0  0  0
    8.8060    3.6399    0.0000 F   0  0  0  0  0  0  0  0  0
    8.0915    2.4024    0.0000 C   0  0  0  0  0  0  0  0  0
    7.3770    1.9899    0.0000 C   0  0  0  0  0  0  0  0  0
    6.1750    0.7498    0.0000 C   0  0  0  0  0  0  0  0  0
    5.9201   -0.0348    0.0000 C   0  0  0  0  0  0  0  0  0
  1  2  1  0  0  0  0
  1  5  1  0  0  0  0
  2  3  1  0  0  0  0
  3  4  1  0  0  0  0
  4  5  1  0  0  0  0
  4  6  1  0  0  0  0
  6  7  1  0  0  0  0
  7  8  1  0  0  0  0
  8  9  1  0  0  0  0
  9 10  1  0  0  0  0
 10 11  4  0  0  0  0
 10 31  4  0  0  0  0
 11 12  4  0  0  0  0
 12 13  4  0  0  0  0
 13 14  1  0  0  0  0
 13 30  4  0  0  0  0
 14 15  4  0  0  0  0
 14 18  4  0  0  0  0
 15 16  4  0  0  0  0
 15 29  4  0  0  0  0
 16 17  4  0  0  0  0
 16 25  4  0  0  0  0
 17 18  4  0  0  0  0
 18 19  1  0  0  0  0
 19 20  4  0  0  0  0
 19 24  4  0  0  0  0
 20 21  4  0  0  0  0
 21 22  4  0  0  0  0
 22 23  4  0  0  0  0
 23 24  4  0  0  0  0
 25 26  4  0  0  0  0
 26 27  1  0  0  0  0
 26 28  4  0  0  0  0
 28 29  4  0  0  0  0
 30 31  4  0  0  0  0
M  END
>  <Name_Molregno>
493352

>  <HISTAMINE H3>
7.7

$$$$
493353
  Marvin  02231216192D 0   1.00000     0.00000     0

 33 37  0  0  0  0  0  0  0  0999 V2000
    8.4642   -4.3345    0.0000 F   0  0  0  0  0  0  0  0  0
    7.7497   -3.9220    0.0000 C   0  0  0  0  0  0  0  0  0
    7.0352   -4.3345    0.0000 C   0  0  0  0  0  0  0  0  0
    6.3208   -3.9220    0.0000 C   0  0  0  0  0  0  0  0  0
    5.5361   -4.1769    0.0000 N   0  0  0  0  0  0  0  0  0
    5.0512   -3.5095    0.0000 C   0  0  0  0  0  0  0  0  0
    5.5361   -2.8421    0.0000 N   0  0  0  0  0  0  0  0  0
    6.3208   -3.0970    0.0000 C   0  0  0  0  0  0  0  0  0
    7.0352   -2.6845    0.0000 C   0  0  0  0  0  0  0  0  0
    7.7497   -3.0970    0.0000 C   0  0  0  0  0  0  0  0  0
    5.2812   -2.0574    0.0000 C   0  0  0  0  0  0  0  0  0
    4.4742   -1.8859    0.0000 C   0  0  0  0  0  0  0  0  0
    4.2193   -1.1013    0.0000 C   0  0  0  0  0  0  0  0  0
    4.7713   -0.4882    0.0000 C   0  0  0  0  0  0  0  0  0
    4.5164    0.2964    0.0000 O   0  0  0  0  0  0  0  0  0
    3.7094    0.4680    0.0000 C   0  0  0  0  0  0  0  0  0
    3.4545    1.2526    0.0000 C   0  0  0  0  0  0  0  0  0
    2.6475    1.4241    0.0000 C   0  0  0  0  0  0  0  0  0
    2.3926    2.2087    0.0000 N   0  0  0  0  0  0  0  0  0
    1.5750    2.3195    0.0000 C   0  0  0  0  0  0  0  0  0
    1.1519    3.0277    0.0000 C   0  0  0  0  0  0  0  0  0
    1.4418    3.8001    0.0000 C   0  0  0  0  0  0  0  0  0
    2.2264    4.0550    0.0000 C   0  0  0  0  0  0  0  0  0
    2.9149    3.6005    0.0000 C   0  0  0  0  0  0  0  0  0
    2.9889    2.7788    0.0000 C   0  0  0  0  0  0  0  0  0
    5.5783   -0.6597    0.0000 C   0  0  0  0  0  0  0  0  0
    5.8332   -1.4443    0.0000 C   0  0  0  0  0  0  0  0  0
    4.2262   -3.5095    0.0000 C   0  0  0  0  0  0  0  0  0
    3.8137   -4.2240    0.0000 N   0  0  0  0  0  0  0  0  0
    2.9887   -4.2240    0.0000 C   0  0  0  0  0  0  0  0  0
    2.5762   -3.5095    0.0000 C   0  0  0  0  0  0  0  0  0
    2.9887   -2.7950    0.0000 C   0  0  0  0  0  0  0  0  0
    3.8137   -2.7950    0.0000 C   0  0  0  0  0  0  0  0  0
  1  2  1  0  0  0  0
  2  3  4  0  0  0  0
  2 10  4  0  0  0  0
  3  4  4  0  0  0  0
  4  5  4  0  0  0  0
  4  8  4  0  0  0  0
  5  6  4  0  0  0  0
  6  7  4  0  0  0  0
  6 28  1  0  0  0  0
  7  8  4  0  0  0  0
  7 11  1  0  0  0  0
  8  9  4  0  0  0  0
  9 10  4  0  0  0  0
 11 12  4  0  0  0  0
 11 27  4  0  0  0  0
 12 13  4  0  0  0  0
 13 14  4  0  0  0  0
 14 15  1  0  0  0  0
 14 26  4  0  0  0  0
 15 16  1  0  0  0  0
 16 17  1  0  0  0  0
 17 18  1  0  0  0  0
 18 19  1  0  0  0  0
 19 20  1  0  0  0  0
 19 25  1  0  0  0  0
 20 21  1  0  0  0  0
 21 22  1  0  0  0  0
 22 23  1  0  0  0  0
 23 24  1  0  0  0  0
 24 25  1  0  0  0  0
 26 27  4  0  0  0  0
 28 29  4  0  0  0  0
 28 33  4  0  0  0  0
 29 30  4  0  0  0  0
 30 31  4  0  0  0  0
 31 32  4  0  0  0  0
 32 33  4  0  0  0  0
M  END
>  <Name_Molregno>
493353

>  <HISTAMINE H3>
8.28

$$$$
493354
  Marvin  02231216192D 0   1.00000     0.00000     0

 34 38  0  0  0  0  0  0  0  0999 V2000
    7.6433   -5.4449    0.0000 F   0  0  0  0  0  0  0  0  0
    6.9288   -5.0324    0.0000 C   0  0  0  0  0  0  0  0  0
    6.2143   -5.4449    0.0000 C   0  0  0  0  0  0  0  0  0
    5.4999   -5.0324    0.0000 C   0  0  0  0  0  0  0  0  0
    4.7152   -5.2873    0.0000 N   0  0  0  0  0  0  0  0  0
    4.2303   -4.6199    0.0000 C   0  0  0  0  0  0  0  0  0
    4.7152   -3.9524    0.0000 N   0  0  0  0  0  0  0  0  0
    5.4999   -4.2074    0.0000 C   0  0  0  0  0  0  0  0  0
    6.2143   -3.7949    0.0000 C   0  0  0  0  0  0  0  0  0
    6.9288   -4.2074    0.0000 C   0  0  0  0  0  0  0  0  0
    4.4603   -3.1678    0.0000 C   0  0  0  0  0  0  0  0  0
    3.6533   -2.9963    0.0000 C   0  0  0  0  0  0  0  0  0
    3.3984   -2.2117    0.0000 C   0  0  0  0  0  0  0  0  0
    3.9504   -1.5986    0.0000 C   0  0  0  0  0  0  0  0  0
    3.6955   -0.8139    0.0000 O   0  0  0  0  0  0  0  0  0
    4.2475   -0.2009    0.0000 C   0  0  0  0  0  0  0  0  0
    3.9926    0.5838    0.0000 C   0  0  0  0  0  0  0  0  0
    4.5446    1.1969    0.0000 C   0  0  0  0  0  0  0  0  0
    4.2897    1.9815    0.0000 N   0  0  0  0  0  0  0  0  0
    3.4721    2.0922    0.0000 C   0  0  0  0  0  0  0  0  0
    3.0490    2.8004    0.0000 C   0  0  0  0  0  0  0  0  0
    3.3389    3.5728    0.0000 C   0  0  0  0  0  0  0  0  0
    4.1235    3.8278    0.0000 N   0  0  0  0  0  0  0  0  0
    4.8120    3.3733    0.0000 C   0  0  0  0  0  0  0  0  0
    4.8860    2.5516    0.0000 C   0  0  0  0  0  0  0  0  0
    4.2342    4.6453    0.0000 C   0  0  0  0  0  0  0  0  0
    4.7574   -1.7701    0.0000 C   0  0  0  0  0  0  0  0  0
    5.0123   -2.5547    0.0000 C   0  0  0  0  0  0  0  0  0
    3.4053   -4.6199    0.0000 C   0  0  0  0  0  0  0  0  0
    2.9928   -5.3343    0.0000 N   0  0  0  0  0  0  0  0  0
    2.1678   -5.3343    0.0000 C   0  0  0  0  0  0  0  0  0
    1.7553   -4.6199    0.0000 C   0  0  0  0  0  0  0  0  0
    2.1678   -3.9054    0.0000 C   0  0  0  0  0  0  0  0  0
    2.9928   -3.9054    0.0000 C   0  0  0  0  0  0  0  0  0
  1  2  1  0  0  0  0
  2  3  4  0  0  0  0
  2 10  4  0  0  0  0
  3  4  4  0  0  0  0
  4  5  4  0  0  0  0
  4  8  4  0  0  0  0
  5  6  4  0  0  0  0
  6  7  4  0  0  0  0
  6 29  1  0  0  0  0
  7  8  4  0  0  0  0
  7 11  1  0  0  0  0
  8  9  4  0  0  0  0
  9 10  4  0  0  0  0
 11 12  4  0  0  0  0
 11 28  4  0  0  0  0
 12 13  4  0  0  0  0
 13 14  4  0  0  0  0
 14 15  1  0  0  0  0
 14 27  4  0  0  0  0
 15 16  1  0  0  0  0
 16 17  1  0  0  0  0
 17 18  1  0  0  0  0
 18 19  1  0  0  0  0
 19 20  1  0  0  0  0
 19 25  1  0  0  0  0
 20 21  1  0  0  0  0
 21 22  1  0  0  0  0
 22 23  1  0  0  0  0
 23 24  1  0  0  0  0
 23 26  1  0  0  0  0
 24 25  1  0  0  0  0
 27 28  4  0  0  0  0
 29 30  4  0  0  0  0
 29 34  4  0  0  0  0
 30 31  4  0  0  0  0
 31 32  4  0  0  0  0
 32 33  4  0  0  0  0
 33 34  4  0  0  0  0
M  END
>  <Name_Molregno>
493354

>  <HISTAMINE H3>
8.44

$$$$
493416
  Marvin  02231216192D 0   1.00000     0.00000     0

 36 41  0  0  0  0  0  0  0  0999 V2000
   -0.9543   -1.9510    0.0000 F   0  0  0  0  0  0  0  0  0
   -0.1473   -1.7794    0.0000 C   0  0  0  0  0  0  0  0  0
    0.1076   -0.9948    0.0000 C   0  0  0  0  0  0  0  0  0
    0.9146   -0.8233    0.0000 C   0  0  0  0  0  0  0  0  0
    1.3271   -0.1088    0.0000 N   0  0  0  0  0  0  0  0  0
    2.1341   -0.2804    0.0000 C   0  0  0  0  0  0  0  0  0
    2.2203   -1.1008    0.0000 N   0  0  0  0  0  0  0  0  0
    1.4666   -1.4364    0.0000 C   0  0  0  0  0  0  0  0  0
    1.2117   -2.2210    0.0000 C   0  0  0  0  0  0  0  0  0
    0.4047   -2.3925    0.0000 C   0  0  0  0  0  0  0  0  0
    2.9348   -1.5133    0.0000 C   0  0  0  0  0  0  0  0  0
    3.6493   -1.1008    0.0000 C   0  0  0  0  0  0  0  0  0
    4.3637   -1.5133    0.0000 C   0  0  0  0  0  0  0  0  0
    4.3637   -2.3383    0.0000 C   0  0  0  0  0  0  0  0  0
    5.0782   -2.7508    0.0000 O   0  0  0  0  0  0  0  0  0
    5.7927   -2.3383    0.0000 C   0  0  0  0  0  0  0  0  0
    6.5071   -2.7508    0.0000 C   0  0  0  0  0  0  0  0  0
    7.2216   -2.3383    0.0000 C   0  0  0  0  0  0  0  0  0
    7.9361   -2.7508    0.0000 N   0  0  0  0  0  0  0  0  0
    7.9361   -3.5758    0.0000 C   0  0  0  0  0  0  0  0  0
    8.6506   -3.9883    0.0000 C   0  0  0  0  0  0  0  0  0
    9.3650   -3.5758    0.0000 C   0  0  0  0  0  0  0  0  0
    9.3650   -2.7508    0.0000 C   0  0  0  0  0  0  0  0  0
    8.6506   -2.3383    0.0000 C   0  0  0  0  0  0  0  0  0
   10.0795   -2.3383    0.0000 C   0  0  0  0  0  0  0  0  0
   10.7940   -2.7508    0.0000 C   0  0  0  0  0  0  0  0  0
   10.7940   -3.5758    0.0000 C   0  0  0  0  0  0  0  0  0
   10.0795   -3.9883    0.0000 C   0  0  0  0  0  0  0  0  0
    3.6493   -2.7508    0.0000 C   0  0  0  0  0  0  0  0  0
    2.9348   -2.3383    0.0000 C   0  0  0  0  0  0  0  0  0
    2.7472    0.2717    0.0000 C   0  0  0  0  0  0  0  0  0
    2.5756    1.0787    0.0000 N   0  0  0  0  0  0  0  0  0
    3.1887    1.6307    0.0000 C   0  0  0  0  0  0  0  0  0
    3.9734    1.3757    0.0000 C   0  0  0  0  0  0  0  0  0
    4.1449    0.5688    0.0000 C   0  0  0  0  0  0  0  0  0
    3.5318    0.0167    0.0000 C   0  0  0  0  0  0  0  0  0
  1  2  1  0  0  0  0
  2  3  4  0  0  0  0
  2 10  4  0  0  0  0
  3  4  4  0  0  0  0
  4  5  4  0  0  0  0
  4  8  4  0  0  0  0
  5  6  4  0  0  0  0
  6  7  4  0  0  0  0
  6 31  1  0  0  0  0
  7  8  4  0  0  0  0
  7 11  1  0  0  0  0
  8  9  4  0  0  0  0
  9 10  4  0  0  0  0
 11 12  4  0  0  0  0
 11 30  4  0  0  0  0
 12 13  4  0  0  0  0
 13 14  4  0  0  0  0
 14 15  1  0  0  0  0
 14 29  4  0  0  0  0
 15 16  1  0  0  0  0
 16 17  1  0  0  0  0
 17 18  1  0  0  0  0
 18 19  1  0  0  0  0
 19 20  1  0  0  0  0
 19 24  1  0  0  0  0
 20 21  1  0  0  0  0
 21 22  1  0  0  0  0
 22 23  4  0  0  0  0
 22 28  4  0  0  0  0
 23 24  1  0  0  0  0
 23 25  4  0  0  0  0
 25 26  4  0  0  0  0
 26 27  4  0  0  0  0
 27 28  4  0  0  0  0
 29 30  4  0  0  0  0
 31 32  4  0  0  0  0
 31 36  4  0  0  0  0
 32 33  4  0  0  0  0
 33 34  4  0  0  0  0
 34 35  4  0  0  0  0
 35 36  4  0  0  0  0
M  END
>  <Name_Molregno>
493416

>  <HISTAMINE H3>
6.97

$$$$
493417
  Marvin  02231216192D 0   1.00000     0.00000     0

 39 45  0  0  0  0  0  0  0  0999 V2000
   -8.1277   -6.9143    0.0000 F   0  0  0  0  0  0  0  0  0
   -7.8727   -6.1297    0.0000 C   0  0  0  0  0  0  0  0  0
   -8.4248   -5.5166    0.0000 C   0  0  0  0  0  0  0  0  0
   -8.1698   -4.7320    0.0000 C   0  0  0  0  0  0  0  0  0
   -8.5823   -4.0175    0.0000 N   0  0  0  0  0  0  0  0  0
   -8.0303   -3.4044    0.0000 C   0  0  0  0  0  0  0  0  0
   -7.2766   -3.7399    0.0000 N   0  0  0  0  0  0  0  0  0
   -7.3629   -4.5604    0.0000 C   0  0  0  0  0  0  0  0  0
   -6.8108   -5.1735    0.0000 C   0  0  0  0  0  0  0  0  0
   -7.0658   -5.9581    0.0000 C   0  0  0  0  0  0  0  0  0
   -6.5622   -3.3274    0.0000 C   0  0  0  0  0  0  0  0  0
   -6.5622   -2.5024    0.0000 C   0  0  0  0  0  0  0  0  0
   -5.8477   -2.0899    0.0000 C   0  0  0  0  0  0  0  0  0
   -5.1332   -2.5024    0.0000 C   0  0  0  0  0  0  0  0  0
   -4.4187   -2.0899    0.0000 O   0  0  0  0  0  0  0  0  0
   -4.4187   -1.2649    0.0000 C   0  0  0  0  0  0  0  0  0
   -3.7043   -0.8524    0.0000 C   0  0  0  0  0  0  0  0  0
   -3.7043   -0.0274    0.0000 C   0  0  0  0  0  0  0  0  0
   -2.9898    0.3851    0.0000 N   0  0  0  0  0  0  0  0  0
   -2.2753   -0.0274    0.0000 C   0  0  0  0  0  0  0  0  0
   -1.5609    0.3851    0.0000 C   0  0  0  0  0  0  0  0  0
   -1.5609    1.2101    0.0000 C   0  0  0  0  0  0  0  0  0
   -2.2753    1.6226    0.0000 C   0  0  0  0  0  0  0  0  0
   -2.9898    1.2101    0.0000 C   0  0  0  0  0  0  0  0  0
   -2.2753    2.4476    0.0000 C   0  0  0  0  0  0  0  0  0
   -1.5609    2.8601    0.0000 C   0  0  0  0  0  0  0  0  0
   -0.8464    2.4476    0.0000 C   0  0  0  0  0  0  0  0  0
   -0.8464    1.6226    0.0000 C   0  0  0  0  0  0  0  0  0
   -0.1319    1.2101    0.0000 C   0  0  0  0  0  0  0  0  0
   -0.1319    0.3851    0.0000 C   0  0  0  0  0  0  0  0  0
   -0.8464   -0.0274    0.0000 C   0  0  0  0  0  0  0  0  0
   -5.1332   -3.3274    0.0000 C   0  0  0  0  0  0  0  0  0
   -5.8477   -3.7399    0.0000 C   0  0  0  0  0  0  0  0  0
   -8.2018   -2.5974    0.0000 C   0  0  0  0  0  0  0  0  0
   -8.9865   -2.3425    0.0000 N   0  0  0  0  0  0  0  0  0
   -9.1580   -1.5355    0.0000 C   0  0  0  0  0  0  0  0  0
   -8.5449   -0.9835    0.0000 C   0  0  0  0  0  0  0  0  0
   -7.7603   -1.2384    0.0000 C   0  0  0  0  0  0  0  0  0
   -7.5887   -2.0454    0.0000 C   0  0  0  0  0  0  0  0  0
  1  2  1  0  0  0  0
  2  3  4  0  0  0  0
  2 10  4  0  0  0  0
  3  4  4  0  0  0  0
  4  5  4  0  0  0  0
  4  8  4  0  0  0  0
  5  6  4  0  0  0  0
  6  7  4  0  0  0  0
  6 34  1  0  0  0  0
  7  8  4  0  0  0  0
  7 11  1  0  0  0  0
  8  9  4  0  0  0  0
  9 10  4  0  0  0  0
 11 12  4  0  0  0  0
 11 33  4  0  0  0  0
 12 13  4  0  0  0  0
 13 14  4  0  0  0  0
 14 15  1  0  0  0  0
 14 32  4  0  0  0  0
 15 16  1  0  0  0  0
 16 17  1  0  0  0  0
 17 18  1  0  0  0  0
 18 19  1  0  0  0  0
 19 20  1  0  0  0  0
 19 24  1  0  0  0  0
 20 21  1  0  0  0  0
 21 22  4  0  0  0  0
 21 31  4  0  0  0  0
 22 23  4  0  0  0  0
 22 28  4  0  0  0  0
 23 24  1  0  0  0  0
 23 25  4  0  0  0  0
 25 26  4  0  0  0  0
 26 27  4  0  0  0  0
 27 28  4  0  0  0  0
 28 29  4  0  0  0  0
 29 30  4  0  0  0  0
 30 31  4  0  0  0  0
 32 33  4  0  0  0  0
 34 35  4  0  0  0  0
 34 39  4  0  0  0  0
 35 36  4  0  0  0  0
 36 37  4  0  0  0  0
 37 38  4  0  0  0  0
 38 39  4  0  0  0  0
M  END
>  <Name_Molregno>
493417

>  <HISTAMINE H3>
6.15

$$$$
493418
  Marvin  02231216192D 0   1.00000     0.00000     0

 33 37  0  0  0  0  0  0  0  0999 V2000
   -0.1568   -5.0903    0.0000 F   0  0  0  0  0  0  0  0  0
   -0.8713   -4.6778    0.0000 C   0  0  0  0  0  0  0  0  0
   -1.5858   -5.0903    0.0000 C   0  0  0  0  0  0  0  0  0
   -2.3003   -4.6778    0.0000 C   0  0  0  0  0  0  0  0  0
   -3.0849   -4.9328    0.0000 N   0  0  0  0  0  0  0  0  0
   -3.5698   -4.2653    0.0000 C   0  0  0  0  0  0  0  0  0
   -3.0849   -3.5979    0.0000 N   0  0  0  0  0  0  0  0  0
   -2.3003   -3.8528    0.0000 C   0  0  0  0  0  0  0  0  0
   -1.5858   -3.4403    0.0000 C   0  0  0  0  0  0  0  0  0
   -0.8713   -3.8528    0.0000 C   0  0  0  0  0  0  0  0  0
   -3.3398   -2.8133    0.0000 C   0  0  0  0  0  0  0  0  0
   -4.1468   -2.6418    0.0000 C   0  0  0  0  0  0  0  0  0
   -4.4017   -1.8571    0.0000 C   0  0  0  0  0  0  0  0  0
   -3.8497   -1.2440    0.0000 C   0  0  0  0  0  0  0  0  0
   -4.1046   -0.4594    0.0000 O   0  0  0  0  0  0  0  0  0
   -4.9116   -0.2879    0.0000 C   0  0  0  0  0  0  0  0  0
   -5.1665    0.4967    0.0000 C   0  0  0  0  0  0  0  0  0
   -5.9735    0.6683    0.0000 C   0  0  0  0  0  0  0  0  0
   -6.2285    1.4529    0.0000 N   0  0  0  0  0  0  0  0  0
   -7.0354    1.6244    0.0000 C   0  0  0  0  0  0  0  0  0
   -7.2904    2.4090    0.0000 C   0  0  0  0  0  0  0  0  0
   -6.7383    3.0221    0.0000 C   0  0  0  0  0  0  0  0  0
   -6.9933    3.8067    0.0000 O   0  0  0  0  0  0  0  0  0
   -5.9314    2.8506    0.0000 C   0  0  0  0  0  0  0  0  0
   -5.6764    2.0660    0.0000 C   0  0  0  0  0  0  0  0  0
   -3.0427   -1.4156    0.0000 C   0  0  0  0  0  0  0  0  0
   -2.7878   -2.2002    0.0000 C   0  0  0  0  0  0  0  0  0
   -4.3948   -4.2653    0.0000 C   0  0  0  0  0  0  0  0  0
   -4.8073   -4.9798    0.0000 N   0  0  0  0  0  0  0  0  0
   -5.6323   -4.9798    0.0000 C   0  0  0  0  0  0  0  0  0
   -6.0448   -4.2653    0.0000 C   0  0  0  0  0  0  0  0  0
   -5.6323   -3.5509    0.0000 C   0  0  0  0  0  0  0  0  0
   -4.8073   -3.5509    0.0000 C   0  0  0  0  0  0  0  0  0
  1  2  1  0  0  0  0
  2  3  4  0  0  0  0
  2 10  4  0  0  0  0
  3  4  4  0  0  0  0
  4  5  4  0  0  0  0
  4  8  4  0  0  0  0
  5  6  4  0  0  0  0
  6  7  4  0  0  0  0
  6 28  1  0  0  0  0
  7  8  4  0  0  0  0
  7 11  1  0  0  0  0
  8  9  4  0  0  0  0
  9 10  4  0  0  0  0
 11 12  4  0  0  0  0
 11 27  4  0  0  0  0
 12 13  4  0  0  0  0
 13 14  4  0  0  0  0
 14 15  1  0  0  0  0
 14 26  4  0  0  0  0
 15 16  1  0  0  0  0
 16 17  1  0  0  0  0
 17 18  1  0  0  0  0
 18 19  1  0  0  0  0
 19 20  1  0  0  0  0
 19 25  1  0  0  0  0
 20 21  1  0  0  0  0
 21 22  1  0  0  0  0
 22 23  1  0  0  0  0
 22 24  1  0  0  0  0
 24 25  1  0  0  0  0
 26 27  4  0  0  0  0
 28 29  4  0  0  0  0
 28 33  4  0  0  0  0
 29 30  4  0  0  0  0
 30 31  4  0  0  0  0
 31 32  4  0  0  0  0
 32 33  4  0  0  0  0
M  END
>  <Name_Molregno>
493418

>  <HISTAMINE H3>
8.74

$$$$
493419
  Marvin  02231216192D 0   1.00000     0.00000     0

 36 40  0  0  0  0  0  0  0  0999 V2000
   -0.4894   -5.5020    0.0000 F   0  0  0  0  0  0  0  0  0
   -1.2039   -5.0895    0.0000 C   0  0  0  0  0  0  0  0  0
   -1.9184   -5.5020    0.0000 C   0  0  0  0  0  0  0  0  0
   -2.6328   -5.0895    0.0000 C   0  0  0  0  0  0  0  0  0
   -3.4175   -5.3445    0.0000 N   0  0  0  0  0  0  0  0  0
   -3.9024   -4.6770    0.0000 C   0  0  0  0  0  0  0  0  0
   -3.4175   -4.0096    0.0000 N   0  0  0  0  0  0  0  0  0
   -2.6328   -4.2645    0.0000 C   0  0  0  0  0  0  0  0  0
   -1.9184   -3.8520    0.0000 C   0  0  0  0  0  0  0  0  0
   -1.2039   -4.2645    0.0000 C   0  0  0  0  0  0  0  0  0
   -3.6724   -3.2250    0.0000 C   0  0  0  0  0  0  0  0  0
   -4.4794   -3.0534    0.0000 C   0  0  0  0  0  0  0  0  0
   -4.7343   -2.2688    0.0000 C   0  0  0  0  0  0  0  0  0
   -4.1823   -1.6557    0.0000 C   0  0  0  0  0  0  0  0  0
   -4.4372   -0.8711    0.0000 O   0  0  0  0  0  0  0  0  0
   -5.2442   -0.6996    0.0000 C   0  0  0  0  0  0  0  0  0
   -5.4991    0.0850    0.0000 C   0  0  0  0  0  0  0  0  0
   -6.3061    0.2566    0.0000 C   0  0  0  0  0  0  0  0  0
   -6.5610    1.0412    0.0000 N   0  0  0  0  0  0  0  0  0
   -7.3680    1.2127    0.0000 C   0  0  0  0  0  0  0  0  0
   -7.6230    1.9973    0.0000 C   0  0  0  0  0  0  0  0  0
   -7.0709    2.6104    0.0000 C   0  0  0  0  0  0  0  0  0
   -6.2640    2.4389    0.0000 C   0  0  0  0  0  0  0  0  0
   -6.0090    1.6543    0.0000 C   0  0  0  0  0  0  0  0  0
   -7.3259    3.3951    0.0000 C   0  0  0  0  0  0  0  0  0
   -6.7738    4.0082    0.0000 O   0  0  0  0  0  0  0  0  0
   -7.0288    4.7928    0.0000 C   0  0  0  0  0  0  0  0  0
   -8.1328    3.5666    0.0000 O   0  0  0  0  0  0  0  0  0
   -3.3753   -1.8273    0.0000 C   0  0  0  0  0  0  0  0  0
   -3.1204   -2.6119    0.0000 C   0  0  0  0  0  0  0  0  0
   -4.7274   -4.6770    0.0000 C   0  0  0  0  0  0  0  0  0
   -5.1399   -5.3915    0.0000 N   0  0  0  0  0  0  0  0  0
   -5.9649   -5.3915    0.0000 C   0  0  0  0  0  0  0  0  0
   -6.3774   -4.6770    0.0000 C   0  0  0  0  0  0  0  0  0
   -5.9649   -3.9626    0.0000 C   0  0  0  0  0  0  0  0  0
   -5.1399   -3.9626    0.0000 C   0  0  0  0  0  0  0  0  0
  1  2  1  0  0  0  0
  2  3  4  0  0  0  0
  2 10  4  0  0  0  0
  3  4  4  0  0  0  0
  4  5  4  0  0  0  0
  4  8  4  0  0  0  0
  5  6  4  0  0  0  0
  6  7  4  0  0  0  0
  6 31  1  0  0  0  0
  7  8  4  0  0  0  0
  7 11  1  0  0  0  0
  8  9  4  0  0  0  0
  9 10  4  0  0  0  0
 11 12  4  0  0  0  0
 11 30  4  0  0  0  0
 12 13  4  0  0  0  0
 13 14  4  0  0  0  0
 14 15  1  0  0  0  0
 14 29  4  0  0  0  0
 15 16  1  0  0  0  0
 16 17  1  0  0  0  0
 17 18  1  0  0  0  0
 18 19  1  0  0  0  0
 19 20  1  0  0  0  0
 19 24  1  0  0  0  0
 20 21  1  0  0  0  0
 21 22  1  0  0  0  0
 22 23  1  0  0  0  0
 22 25  1  0  0  0  0
 23 24  1  0  0  0  0
 25 26  1  0  0  0  0
 25 28  2  0  0  0  0
 26 27  1  0  0  0  0
 29 30  4  0  0  0  0
 31 32  4  0  0  0  0
 31 36  4  0  0  0  0
 32 33  4  0  0  0  0
 33 34  4  0  0  0  0
 34 35  4  0  0  0  0
 35 36  4  0  0  0  0
M  END
>  <Name_Molregno>
493419

>  <HISTAMINE H3>
7.8

$$$$
493496
  Marvin  02231216192D 0   1.00000     0.00000     0

 35 39  0  0  0  0  0  0  0  0999 V2000
   -0.3419   -5.4154    0.0000 F   0  0  0  0  0  0  0  0  0
   -1.0564   -5.0029    0.0000 C   0  0  0  0  0  0  0  0  0
   -1.7708   -5.4154    0.0000 C   0  0  0  0  0  0  0  0  0
   -2.4853   -5.0029    0.0000 C   0  0  0  0  0  0  0  0  0
   -3.2699   -5.2578    0.0000 N   0  0  0  0  0  0  0  0  0
   -3.7549   -4.5904    0.0000 C   0  0  0  0  0  0  0  0  0
   -3.2699   -3.9229    0.0000 N   0  0  0  0  0  0  0  0  0
   -2.4853   -4.1779    0.0000 C   0  0  0  0  0  0  0  0  0
   -1.7708   -3.7654    0.0000 C   0  0  0  0  0  0  0  0  0
   -1.0564   -4.1779    0.0000 C   0  0  0  0  0  0  0  0  0
   -3.5249   -3.1383    0.0000 C   0  0  0  0  0  0  0  0  0
   -4.3318   -2.9668    0.0000 C   0  0  0  0  0  0  0  0  0
   -4.5868   -2.1822    0.0000 C   0  0  0  0  0  0  0  0  0
   -4.0348   -1.5691    0.0000 C   0  0  0  0  0  0  0  0  0
   -4.2897   -0.7845    0.0000 O   0  0  0  0  0  0  0  0  0
   -5.0967   -0.6129    0.0000 C   0  0  0  0  0  0  0  0  0
   -5.3516    0.1717    0.0000 C   0  0  0  0  0  0  0  0  0
   -6.1586    0.3432    0.0000 C   0  0  0  0  0  0  0  0  0
   -6.4135    1.1278    0.0000 N   0  0  0  0  0  0  0  0  0
   -7.2205    1.2994    0.0000 C   0  0  0  0  0  0  0  0  0
   -7.4754    2.0840    0.0000 C   0  0  0  0  0  0  0  0  0
   -6.9234    2.6971    0.0000 C   0  0  0  0  0  0  0  0  0
   -6.1164    2.5256    0.0000 C   0  0  0  0  0  0  0  0  0
   -5.8615    1.7409    0.0000 C   0  0  0  0  0  0  0  0  0
   -7.1783    3.4817    0.0000 C   0  0  0  0  0  0  0  0  0
   -7.9853    3.6532    0.0000 O   0  0  0  0  0  0  0  0  0
   -6.6263    4.0948    0.0000 N   0  0  0  0  0  0  0  0  0
   -3.2278   -1.7406    0.0000 C   0  0  0  0  0  0  0  0  0
   -2.9728   -2.5252    0.0000 C   0  0  0  0  0  0  0  0  0
   -4.5799   -4.5904    0.0000 C   0  0  0  0  0  0  0  0  0
   -4.9924   -5.3048    0.0000 N   0  0  0  0  0  0  0  0  0
   -5.8174   -5.3048    0.0000 C   0  0  0  0  0  0  0  0  0
   -6.2299   -4.5904    0.0000 C   0  0  0  0  0  0  0  0  0
   -5.8174   -3.8759    0.0000 C   0  0  0  0  0  0  0  0  0
   -4.9924   -3.8759    0.0000 C   0  0  0  0  0  0  0  0  0
  1  2  1  0  0  0  0
  2  3  4  0  0  0  0
  2 10  4  0  0  0  0
  3  4  4  0  0  0  0
  4  5  4  0  0  0  0
  4  8  4  0  0  0  0
  5  6  4  0  0  0  0
  6  7  4  0  0  0  0
  6 30  1  0  0  0  0
  7  8  4  0  0  0  0
  7 11  1  0  0  0  0
  8  9  4  0  0  0  0
  9 10  4  0  0  0  0
 11 12  4  0  0  0  0
 11 29  4  0  0  0  0
 12 13  4  0  0  0  0
 13 14  4  0  0  0  0
 14 15  1  0  0  0  0
 14 28  4  0  0  0  0
 15 16  1  0  0  0  0
 16 17  1  0  0  0  0
 17 18  1  0  0  0  0
 18 19  1  0  0  0  0
 19 20  1  0  0  0  0
 19 24  1  0  0  0  0
 20 21  1  0  0  0  0
 21 22  1  0  0  0  0
 22 23  1  0  0  0  0
 22 25  1  0  0  0  0
 23 24  1  0  0  0  0
 25 26  2  0  0  0  0
 25 27  1  0  0  0  0
 28 29  4  0  0  0  0
 30 31  4  0  0  0  0
 30 35  4  0  0  0  0
 31 32  4  0  0  0  0
 32 33  4  0  0  0  0
 33 34  4  0  0  0  0
 34 35  4  0  0  0  0
M  END
>  <Name_Molregno>
493496

>  <HISTAMINE H3>
7.7

$$$$
493497
  Marvin  02231216192D 0   1.00000     0.00000     0

 35 39  0  0  1  0  0  0  0  0999 V2000
   -0.1681   -5.1063    0.0000 F   0  0  0  0  0  0  0  0  0
   -0.8826   -4.6938    0.0000 C   0  0  0  0  0  0  0  0  0
   -1.5971   -5.1063    0.0000 C   0  0  0  0  0  0  0  0  0
   -2.3115   -4.6938    0.0000 C   0  0  0  0  0  0  0  0  0
   -3.0962   -4.9488    0.0000 N   0  0  0  0  0  0  0  0  0
   -3.5811   -4.2813    0.0000 C   0  0  0  0  0  0  0  0  0
   -3.0962   -3.6139    0.0000 N   0  0  0  0  0  0  0  0  0
   -2.3115   -3.8688    0.0000 C   0  0  0  0  0  0  0  0  0
   -1.5971   -3.4563    0.0000 C   0  0  0  0  0  0  0  0  0
   -0.8826   -3.8688    0.0000 C   0  0  0  0  0  0  0  0  0
   -3.3511   -2.8293    0.0000 C   0  0  0  0  0  0  0  0  0
   -4.1581   -2.6578    0.0000 C   0  0  0  0  0  0  0  0  0
   -4.4130   -1.8731    0.0000 C   0  0  0  0  0  0  0  0  0
   -3.8610   -1.2600    0.0000 C   0  0  0  0  0  0  0  0  0
   -4.1159   -0.4754    0.0000 O   0  0  0  0  0  0  0  0  0
   -4.9229   -0.3039    0.0000 C   0  0  0  0  0  0  0  0  0
   -5.1778    0.4807    0.0000 C   0  0  0  0  0  0  0  0  0
   -5.9848    0.6523    0.0000 C   0  0  0  0  0  0  0  0  0
   -6.2397    1.4369    0.0000 N   0  0  0  0  0  0  0  0  0
   -7.0467    1.6084    0.0000 C   0  0  0  0  0  0  0  0  0
   -7.3017    2.3930    0.0000 C   0  0  0  0  0  0  0  0  0
   -6.7496    3.0061    0.0000 C   0  0  0  0  0  0  0  0  0
   -5.9426    2.8346    0.0000 C   0  0  0  0  0  0  0  0  0
   -5.6877    2.0500    0.0000 C   0  0  0  0  0  0  0  0  0
   -8.1086    2.5646    0.0000 C   0  0  0  0  0  0  0  0  0
   -8.3636    3.3492    0.0000 O   0  0  0  0  0  0  0  0  0
   -8.6607    1.9515    0.0000 N   0  0  0  0  0  0  0  0  0
   -3.0540   -1.4316    0.0000 C   0  0  0  0  0  0  0  0  0
   -2.7991   -2.2162    0.0000 C   0  0  0  0  0  0  0  0  0
   -4.4061   -4.2813    0.0000 C   0  0  0  0  0  0  0  0  0
   -4.8186   -4.9958    0.0000 N   0  0  0  0  0  0  0  0  0
   -5.6436   -4.9958    0.0000 C   0  0  0  0  0  0  0  0  0
   -6.0561   -4.2813    0.0000 C   0  0  0  0  0  0  0  0  0
   -5.6436   -3.5669    0.0000 C   0  0  0  0  0  0  0  0  0
   -4.8186   -3.5669    0.0000 C   0  0  0  0  0  0  0  0  0
  1  2  1  0  0  0  0
  2  3  4  0  0  0  0
  2 10  4  0  0  0  0
  3  4  4  0  0  0  0
  4  5  4  0  0  0  0
  4  8  4  0  0  0  0
  5  6  4  0  0  0  0
  6  7  4  0  0  0  0
  6 30  1  0  0  0  0
  7  8  4  0  0  0  0
  7 11  1  0  0  0  0
  8  9  4  0  0  0  0
  9 10  4  0  0  0  0
 11 12  4  0  0  0  0
 11 29  4  0  0  0  0
 12 13  4  0  0  0  0
 13 14  4  0  0  0  0
 14 15  1  0  0  0  0
 14 28  4  0  0  0  0
 15 16  1  0  0  0  0
 16 17  1  0  0  0  0
 17 18  1  0  0  0  0
 18 19  1  0  0  0  0
 19 20  1  0  0  0  0
 19 24  1  0  0  0  0
 20 21  1  0  0  0  0
 21 22  1  0  0  0  0
 21 25  1  0  0  0  0
 22 23  1  0  0  0  0
 23 24  1  0  0  0  0
 25 26  2  0  0  0  0
 25 27  1  0  0  0  0
 28 29  4  0  0  0  0
 30 31  4  0  0  0  0
 30 35  4  0  0  0  0
 31 32  4  0  0  0  0
 32 33  4  0  0  0  0
 33 34  4  0  0  0  0
 34 35  4  0  0  0  0
M  END
>  <Name_Molregno>
493497

>  <HISTAMINE H3>
7.96

$$$$
493498
  Marvin  02231216192D 0   1.00000     0.00000     0

 28 31  0  0  0  0  0  0  0  0999 V2000
   -0.9663   -2.8530    0.0000 F   0  0  0  0  0  0  0  0  0
   -0.1594   -2.6814    0.0000 C   0  0  0  0  0  0  0  0  0
    0.0956   -1.8968    0.0000 C   0  0  0  0  0  0  0  0  0
    0.9026   -1.7253    0.0000 C   0  0  0  0  0  0  0  0  0
    1.3151   -1.0108    0.0000 N   0  0  0  0  0  0  0  0  0
    2.1220   -1.1823    0.0000 C   0  0  0  0  0  0  0  0  0
    2.2083   -2.0028    0.0000 N   0  0  0  0  0  0  0  0  0
    1.4546   -2.3384    0.0000 C   0  0  0  0  0  0  0  0  0
    1.1996   -3.1230    0.0000 C   0  0  0  0  0  0  0  0  0
    0.3927   -3.2945    0.0000 C   0  0  0  0  0  0  0  0  0
    2.9227   -2.4153    0.0000 C   0  0  0  0  0  0  0  0  0
    3.6372   -2.0028    0.0000 C   0  0  0  0  0  0  0  0  0
    4.3517   -2.4153    0.0000 C   0  0  0  0  0  0  0  0  0
    4.3517   -3.2403    0.0000 C   0  0  0  0  0  0  0  0  0
    5.0661   -3.6528    0.0000 O   0  0  0  0  0  0  0  0  0
    5.7806   -3.2403    0.0000 C   0  0  0  0  0  0  0  0  0
    6.4951   -3.6528    0.0000 C   0  0  0  0  0  0  0  0  0
    7.2096   -3.2403    0.0000 C   0  0  0  0  0  0  0  0  0
    7.9240   -3.6528    0.0000 N   0  0  0  0  0  0  0  0  0
    8.6385   -3.2403    0.0000 C   0  0  0  0  0  0  0  0  0
    3.6372   -3.6528    0.0000 C   0  0  0  0  0  0  0  0  0
    2.9227   -3.2403    0.0000 C   0  0  0  0  0  0  0  0  0
    2.7351   -0.6303    0.0000 C   0  0  0  0  0  0  0  0  0
    2.5636    0.1767    0.0000 N   0  0  0  0  0  0  0  0  0
    3.1767    0.7287    0.0000 C   0  0  0  0  0  0  0  0  0
    3.9613    0.4738    0.0000 C   0  0  0  0  0  0  0  0  0
    4.1328   -0.3332    0.0000 C   0  0  0  0  0  0  0  0  0
    3.5197   -0.8853    0.0000 C   0  0  0  0  0  0  0  0  0
  1  2  1  0  0  0  0
  2  3  4  0  0  0  0
  2 10  4  0  0  0  0
  3  4  4  0  0  0  0
  4  5  4  0  0  0  0
  4  8  4  0  0  0  0
  5  6  4  0  0  0  0
  6  7  4  0  0  0  0
  6 23  1  0  0  0  0
  7  8  4  0  0  0  0
  7 11  1  0  0  0  0
  8  9  4  0  0  0  0
  9 10  4  0  0  0  0
 11 12  4  0  0  0  0
 11 22  4  0  0  0  0
 12 13  4  0  0  0  0
 13 14  4  0  0  0  0
 14 15  1  0  0  0  0
 14 21  4  0  0  0  0
 15 16  1  0  0  0  0
 16 17  1  0  0  0  0
 17 18  1  0  0  0  0
 18 19  1  0  0  0  0
 19 20  1  0  0  0  0
 21 22  4  0  0  0  0
 23 24  4  0  0  0  0
 23 28  4  0  0  0  0
 24 25  4  0  0  0  0
 25 26  4  0  0  0  0
 26 27  4  0  0  0  0
 27 28  4  0  0  0  0
M  END
>  <Name_Molregno>
493498

>  <HISTAMINE H3>
7

$$$$
493499
  Marvin  02231216192D 0   1.00000     0.00000     0

 27 30  0  0  0  0  0  0  0  0999 V2000
    8.5323   -4.2105    0.0000 F   0  0  0  0  0  0  0  0  0
    7.8179   -3.7980    0.0000 C   0  0  0  0  0  0  0  0  0
    7.1034   -4.2105    0.0000 C   0  0  0  0  0  0  0  0  0
    6.3889   -3.7980    0.0000 C   0  0  0  0  0  0  0  0  0
    5.6043   -4.0530    0.0000 N   0  0  0  0  0  0  0  0  0
    5.1194   -3.3855    0.0000 C   0  0  0  0  0  0  0  0  0
    4.2944   -3.3855    0.0000 O   0  0  0  0  0  0  0  0  0
    5.6043   -2.7181    0.0000 N   0  0  0  0  0  0  0  0  0
    6.3889   -2.9730    0.0000 C   0  0  0  0  0  0  0  0  0
    7.1034   -2.5605    0.0000 C   0  0  0  0  0  0  0  0  0
    7.8179   -2.9730    0.0000 C   0  0  0  0  0  0  0  0  0
    5.3494   -1.9335    0.0000 C   0  0  0  0  0  0  0  0  0
    4.5424   -1.7619    0.0000 C   0  0  0  0  0  0  0  0  0
    4.2875   -0.9773    0.0000 C   0  0  0  0  0  0  0  0  0
    4.8395   -0.3642    0.0000 C   0  0  0  0  0  0  0  0  0
    4.5846    0.4204    0.0000 O   0  0  0  0  0  0  0  0  0
    3.7776    0.5919    0.0000 C   0  0  0  0  0  0  0  0  0
    3.5226    1.3766    0.0000 C   0  0  0  0  0  0  0  0  0
    2.7157    1.5481    0.0000 C   0  0  0  0  0  0  0  0  0
    2.4607    2.3327    0.0000 N   0  0  0  0  0  0  0  0  0
    1.6538    2.5042    0.0000 C   0  0  0  0  0  0  0  0  0
    1.3988    3.2889    0.0000 C   0  0  0  0  0  0  0  0  0
    1.9509    3.9019    0.0000 C   0  0  0  0  0  0  0  0  0
    2.7578    3.7304    0.0000 C   0  0  0  0  0  0  0  0  0
    3.0128    2.9458    0.0000 C   0  0  0  0  0  0  0  0  0
    5.6465   -0.5357    0.0000 C   0  0  0  0  0  0  0  0  0
    5.9014   -1.3204    0.0000 C   0  0  0  0  0  0  0  0  0
  1  2  1  0  0  0  0
  2  3  4  0  0  0  0
  2 11  4  0  0  0  0
  3  4  4  0  0  0  0
  4  5  1  0  0  0  0
  4  9  4  0  0  0  0
  5  6  1  0  0  0  0
  6  7  2  0  0  0  0
  6  8  1  0  0  0  0
  8  9  1  0  0  0  0
  8 12  1  0  0  0  0
  9 10  4  0  0  0  0
 10 11  4  0  0  0  0
 12 13  4  0  0  0  0
 12 27  4  0  0  0  0
 13 14  4  0  0  0  0
 14 15  4  0  0  0  0
 15 16  1  0  0  0  0
 15 26  4  0  0  0  0
 16 17  1  0  0  0  0
 17 18  1  0  0  0  0
 18 19  1  0  0  0  0
 19 20  1  0  0  0  0
 20 21  1  0  0  0  0
 20 25  1  0  0  0  0
 21 22  1  0  0  0  0
 22 23  1  0  0  0  0
 23 24  1  0  0  0  0
 24 25  1  0  0  0  0
 26 27  4  0  0  0  0
M  END
>  <Name_Molregno>
493499

>  <HISTAMINE H3>
8.06

$$$$
493566
  Marvin  02231216192D 0   1.00000     0.00000     0

 27 30  0  0  0  0  0  0  0  0999 V2000
   -3.4029    1.3411    0.0000 S   0  0  0  0  0  0  0  0  0
   -2.5779    1.3411    0.0000 C   0  0  0  0  0  0  0  0  0
   -2.0929    2.0086    0.0000 N   0  0  0  0  0  0  0  0  0
   -1.3083    1.7536    0.0000 C   0  0  0  0  0  0  0  0  0
   -0.5938    2.1661    0.0000 C   0  0  0  0  0  0  0  0  0
    0.1206    1.7536    0.0000 C   0  0  0  0  0  0  0  0  0
    0.8351    2.1661    0.0000 F   0  0  0  0  0  0  0  0  0
    0.1206    0.9286    0.0000 C   0  0  0  0  0  0  0  0  0
   -0.5938    0.5161    0.0000 C   0  0  0  0  0  0  0  0  0
   -1.3083    0.9286    0.0000 C   0  0  0  0  0  0  0  0  0
   -2.0929    0.6737    0.0000 N   0  0  0  0  0  0  0  0  0
   -2.3479   -0.1109    0.0000 C   0  0  0  0  0  0  0  0  0
   -1.7958   -0.7240    0.0000 C   0  0  0  0  0  0  0  0  0
   -2.0508   -1.5086    0.0000 C   0  0  0  0  0  0  0  0  0
   -2.8577   -1.6802    0.0000 C   0  0  0  0  0  0  0  0  0
   -3.1127   -2.4648    0.0000 O   0  0  0  0  0  0  0  0  0
   -2.5607   -3.0779    0.0000 C   0  0  0  0  0  0  0  0  0
   -2.8156   -3.8625    0.0000 C   0  0  0  0  0  0  0  0  0
   -2.2636   -4.4756    0.0000 C   0  0  0  0  0  0  0  0  0
   -2.5185   -5.2602    0.0000 N   0  0  0  0  0  0  0  0  0
   -1.9665   -5.8733    0.0000 C   0  0  0  0  0  0  0  0  0
   -2.2214   -6.6579    0.0000 C   0  0  0  0  0  0  0  0  0
   -3.0284   -6.8295    0.0000 C   0  0  0  0  0  0  0  0  0
   -3.5804   -6.2164    0.0000 C   0  0  0  0  0  0  0  0  0
   -3.3255   -5.4317    0.0000 C   0  0  0  0  0  0  0  0  0
   -3.4098   -1.0671    0.0000 C   0  0  0  0  0  0  0  0  0
   -3.1548   -0.2824    0.0000 C   0  0  0  0  0  0  0  0  0
  1  2  2  0  0  0  0
  2  3  1  0  0  0  0
  2 11  1  0  0  0  0
  3  4  1  0  0  0  0
  4  5  4  0  0  0  0
  4 10  4  0  0  0  0
  5  6  4  0  0  0  0
  6  7  1  0  0  0  0
  6  8  4  0  0  0  0
  8  9  4  0  0  0  0
  9 10  4  0  0  0  0
 10 11  1  0  0  0  0
 11 12  1  0  0  0  0
 12 13  4  0  0  0  0
 12 27  4  0  0  0  0
 13 14  4  0  0  0  0
 14 15  4  0  0  0  0
 15 16  1  0  0  0  0
 15 26  4  0  0  0  0
 16 17  1  0  0  0  0
 17 18  1  0  0  0  0
 18 19  1  0  0  0  0
 19 20  1  0  0  0  0
 20 21  1  0  0  0  0
 20 25  1  0  0  0  0
 21 22  1  0  0  0  0
 22 23  1  0  0  0  0
 23 24  1  0  0  0  0
 24 25  1  0  0  0  0
 26 27  4  0  0  0  0
M  END
>  <Name_Molregno>
493566

>  <HISTAMINE H3>
8.1

$$$$
493567
  Marvin  02231216192D 0   1.00000     0.00000     0

 29 32  0  0  1  0  0  0  0  0999 V2000
   -3.8636    3.3429    0.0000 S   0  0  0  0  0  0  0  0  0
   -4.2761    2.6284    0.0000 C   0  0  0  0  0  0  0  0  0
   -5.1011    2.6284    0.0000 C   0  0  0  0  0  0  0  0  0
   -3.0386    3.3429    0.0000 C   0  0  0  0  0  0  0  0  0
   -2.5537    4.0103    0.0000 N   0  0  0  0  0  0  0  0  0
   -1.7691    3.7554    0.0000 C   0  0  0  0  0  0  0  0  0
   -1.0546    4.1679    0.0000 C   0  0  0  0  0  0  0  0  0
   -0.3401    3.7554    0.0000 C   0  0  0  0  0  0  0  0  0
    0.3744    4.1679    0.0000 F   0  0  0  0  0  0  0  0  0
   -0.3401    2.9304    0.0000 C   0  0  0  0  0  0  0  0  0
   -1.0546    2.5179    0.0000 C   0  0  0  0  0  0  0  0  0
   -1.7691    2.9304    0.0000 C   0  0  0  0  0  0  0  0  0
   -2.5537    2.6754    0.0000 N   0  0  0  0  0  0  0  0  0
   -2.8086    1.8908    0.0000 C   0  0  0  0  0  0  0  0  0
   -2.2566    1.2777    0.0000 C   0  0  0  0  0  0  0  0  0
   -2.5115    0.4931    0.0000 C   0  0  0  0  0  0  0  0  0
   -3.3185    0.3216    0.0000 C   0  0  0  0  0  0  0  0  0
   -3.5734   -0.4631    0.0000 O   0  0  0  0  0  0  0  0  0
   -3.0214   -1.0761    0.0000 C   0  0  0  0  0  0  0  0  0
   -3.2763   -1.8608    0.0000 C   0  0  0  0  0  0  0  0  0
   -2.7243   -2.4739    0.0000 C   0  0  0  0  0  0  0  0  0
   -2.9793   -3.2585    0.0000 N   0  0  0  0  0  0  0  0  0
   -2.4272   -3.8716    0.0000 C   0  0  0  0  0  0  0  0  0
   -2.6822   -4.6562    0.0000 C   0  0  0  0  0  0  0  0  0
   -3.4891   -4.8277    0.0000 C   0  0  0  0  0  0  0  0  0
   -4.0412   -4.2146    0.0000 C   0  0  0  0  0  0  0  0  0
   -3.7862   -3.4300    0.0000 C   0  0  0  0  0  0  0  0  0
   -3.8705    0.9347    0.0000 C   0  0  0  0  0  0  0  0  0
   -3.6156    1.7193    0.0000 C   0  0  0  0  0  0  0  0  0
  1  2  1  0  0  0  0
  1  4  1  0  0  0  0
  2  3  1  0  0  0  0
  4  5  1  0  0  0  0
  4 13  1  0  0  0  0
  5  6  1  0  0  0  0
  6  7  4  0  0  0  0
  6 12  4  0  0  0  0
  7  8  4  0  0  0  0
  8  9  1  0  0  0  0
  8 10  4  0  0  0  0
 10 11  4  0  0  0  0
 11 12  4  0  0  0  0
 12 13  1  0  0  0  0
 13 14  1  0  0  0  0
 14 15  4  0  0  0  0
 14 29  4  0  0  0  0
 15 16  4  0  0  0  0
 16 17  4  0  0  0  0
 17 18  1  0  0  0  0
 17 28  4  0  0  0  0
 18 19  1  0  0  0  0
 19 20  1  0  0  0  0
 20 21  1  0  0  0  0
 21 22  1  0  0  0  0
 22 23  1  0  0  0  0
 22 27  1  0  0  0  0
 23 24  1  0  0  0  0
 24 25  1  0  0  0  0
 25 26  1  0  0  0  0
 26 27  1  0  0  0  0
 28 29  4  0  0  0  0
M  END
>  <Name_Molregno>
493567

>  <HISTAMINE H3>
8.59

$$$$
493568
  Marvin  02231216192D 0   1.00000     0.00000     0

 29 32  0  0  1  0  0  0  0  0999 V2000
   -0.3068   -4.8697    0.0000 F   0  0  0  0  0  0  0  0  0
   -1.0213   -4.4572    0.0000 C   0  0  0  0  0  0  0  0  0
   -1.7358   -4.8697    0.0000 C   0  0  0  0  0  0  0  0  0
   -2.4502   -4.4572    0.0000 C   0  0  0  0  0  0  0  0  0
   -3.2349   -4.7121    0.0000 N   0  0  0  0  0  0  0  0  0
   -3.7198   -4.0447    0.0000 C   0  0  0  0  0  0  0  0  0
   -4.5448   -4.0447    0.0000 O   0  0  0  0  0  0  0  0  0
   -4.9573   -4.7592    0.0000 C   0  0  0  0  0  0  0  0  0
   -5.7823   -4.7592    0.0000 C   0  0  0  0  0  0  0  0  0
   -3.2349   -3.3773    0.0000 N   0  0  0  0  0  0  0  0  0
   -2.4502   -3.6322    0.0000 C   0  0  0  0  0  0  0  0  0
   -1.7358   -3.2197    0.0000 C   0  0  0  0  0  0  0  0  0
   -1.0213   -3.6322    0.0000 C   0  0  0  0  0  0  0  0  0
   -3.4898   -2.5926    0.0000 C   0  0  0  0  0  0  0  0  0
   -4.2968   -2.4211    0.0000 C   0  0  0  0  0  0  0  0  0
   -4.5517   -1.6365    0.0000 C   0  0  0  0  0  0  0  0  0
   -3.9997   -1.0234    0.0000 C   0  0  0  0  0  0  0  0  0
   -4.2546   -0.2388    0.0000 O   0  0  0  0  0  0  0  0  0
   -5.0616   -0.0672    0.0000 C   0  0  0  0  0  0  0  0  0
   -5.3165    0.7174    0.0000 C   0  0  0  0  0  0  0  0  0
   -6.1235    0.8889    0.0000 C   0  0  0  0  0  0  0  0  0
   -6.3784    1.6735    0.0000 N   0  0  0  0  0  0  0  0  0
   -7.1854    1.8451    0.0000 C   0  0  0  0  0  0  0  0  0
   -7.4403    2.6297    0.0000 C   0  0  0  0  0  0  0  0  0
   -6.8883    3.2428    0.0000 C   0  0  0  0  0  0  0  0  0
   -6.0813    3.0712    0.0000 C   0  0  0  0  0  0  0  0  0
   -5.8264    2.2866    0.0000 C   0  0  0  0  0  0  0  0  0
   -3.1927   -1.1949    0.0000 C   0  0  0  0  0  0  0  0  0
   -2.9378   -1.9795    0.0000 C   0  0  0  0  0  0  0  0  0
  1  2  1  0  0  0  0
  2  3  4  0  0  0  0
  2 13  4  0  0  0  0
  3  4  4  0  0  0  0
  4  5  1  0  0  0  0
  4 11  4  0  0  0  0
  5  6  1  0  0  0  0
  6  7  1  0  0  0  0
  6 10  1  0  0  0  0
  7  8  1  0  0  0  0
  8  9  1  0  0  0  0
 10 11  1  0  0  0  0
 10 14  1  0  0  0  0
 11 12  4  0  0  0  0
 12 13  4  0  0  0  0
 14 15  4  0  0  0  0
 14 29  4  0  0  0  0
 15 16  4  0  0  0  0
 16 17  4  0  0  0  0
 17 18  1  0  0  0  0
 17 28  4  0  0  0  0
 18 19  1  0  0  0  0
 19 20  1  0  0  0  0
 20 21  1  0  0  0  0
 21 22  1  0  0  0  0
 22 23  1  0  0  0  0
 22 27  1  0  0  0  0
 23 24  1  0  0  0  0
 24 25  1  0  0  0  0
 25 26  1  0  0  0  0
 26 27  1  0  0  0  0
 28 29  4  0  0  0  0
M  END
>  <Name_Molregno>
493568

>  <HISTAMINE H3>
7.82

$$$$
494856
  Marvin  02231216192D 0   1.00000     0.00000     0

 22 24  0  0  1  0  0  0  0  0999 V2000
    3.4373   -2.5826    0.0000 O   0  0  0  0  0  0  0  0  0
    3.4373   -3.4076    0.0000 C   0  0  0  0  0  0  0  0  0
    2.7228   -3.8201    0.0000 C   0  0  0  0  0  0  0  0  0
    2.0083   -3.4076    0.0000 N   0  0  0  0  0  0  0  0  0
    2.0083   -2.5826    0.0000 C   0  0  0  0  0  0  0  0  0
    2.7228   -2.1701    0.0000 C   0  0  0  0  0  0  0  0  0
    2.7228   -1.3451    0.0000 C   0  0  0  0  0  0  0  0  0
    2.0083   -0.9326    0.0000 O   0  0  0  0  0  0  0  0  0
    2.0083   -0.1076    0.0000 C   0  0  0  0  0  0  0  0  0
    1.2938    0.3049    0.0000 C   0  0  0  0  0  0  0  0  0
    1.2938    1.1299    0.0000 C   0  0  0  0  0  0  0  0  0
    2.0083    1.5424    0.0000 C   0  0  0  0  0  0  0  0  0
    2.7228    1.1299    0.0000 C   0  0  0  0  0  0  0  0  0
    2.7228    0.3049    0.0000 C   0  0  0  0  0  0  0  0  0
    2.0083    2.3674    0.0000 C   0  0  0  0  0  0  0  0  0
    2.7228    2.7799    0.0000 N   0  0  0  0  0  0  0  0  0
    2.7228    3.6049    0.0000 C   0  0  0  0  0  0  0  0  0
    3.4373    4.0174    0.0000 C   0  0  0  0  0  0  0  0  0
    4.1517    3.6049    0.0000 O   0  0  0  0  0  0  0  0  0
    4.1517    2.7799    0.0000 C   0  0  0  0  0  0  0  0  0
    3.4373    2.3674    0.0000 C   0  0  0  0  0  0  0  0  0
    1.2938   -3.8201    0.0000 C   0  0  0  0  0  0  0  0  0
  1  2  1  0  0  0  0
  1  6  1  0  0  0  0
  2  3  1  0  0  0  0
  3  4  1  0  0  0  0
  4  5  1  0  0  0  0
  4 22  1  0  0  0  0
  5  6  1  0  0  0  0
  6  7  1  0  0  0  0
  7  8  1  0  0  0  0
  8  9  1  0  0  0  0
  9 10  4  0  0  0  0
  9 14  4  0  0  0  0
 10 11  4  0  0  0  0
 11 12  4  0  0  0  0
 12 13  4  0  0  0  0
 12 15  1  0  0  0  0
 13 14  4  0  0  0  0
 15 16  1  0  0  0  0
 16 17  1  0  0  0  0
 16 21  1  0  0  0  0
 17 18  1  0  0  0  0
 18 19  1  0  0  0  0
 19 20  1  0  0  0  0
 20 21  1  0  0  0  0
M  END
>  <Name_Molregno>
494856

>  <HISTAMINE H3>
5.68

$$$$
494857
  Marvin  02231216192D 0   1.00000     0.00000     0

 23 25  0  0  1  0  0  0  0  0999 V2000
    2.4241   -2.5043    0.0000 O   0  0  0  0  0  0  0  0  0
    2.4241   -3.3293    0.0000 C   0  0  0  0  0  0  0  0  0
    1.7096   -3.7418    0.0000 C   0  0  0  0  0  0  0  0  0
    0.9951   -3.3293    0.0000 N   0  0  0  0  0  0  0  0  0
    0.9951   -2.5043    0.0000 C   0  0  0  0  0  0  0  0  0
    1.7096   -2.0918    0.0000 C   0  0  0  0  0  0  0  0  0
    1.7096   -1.2668    0.0000 C   0  0  0  0  0  0  0  0  0
    2.4241   -0.8543    0.0000 O   0  0  0  0  0  0  0  0  0
    2.4241   -0.0293    0.0000 C   0  0  0  0  0  0  0  0  0
    1.7096    0.3832    0.0000 C   0  0  0  0  0  0  0  0  0
    1.7096    1.2082    0.0000 C   0  0  0  0  0  0  0  0  0
    2.4241    1.6207    0.0000 C   0  0  0  0  0  0  0  0  0
    3.1385    1.2082    0.0000 C   0  0  0  0  0  0  0  0  0
    3.1385    0.3832    0.0000 C   0  0  0  0  0  0  0  0  0
    2.4241    2.4457    0.0000 C   0  0  0  0  0  0  0  0  0
    3.1385    2.8582    0.0000 N   0  0  0  0  0  0  0  0  0
    3.1385    3.6832    0.0000 C   0  0  0  0  0  0  0  0  0
    3.8530    4.0957    0.0000 C   0  0  0  0  0  0  0  0  0
    4.5675    3.6832    0.0000 O   0  0  0  0  0  0  0  0  0
    4.5675    2.8582    0.0000 C   0  0  0  0  0  0  0  0  0
    3.8530    2.4457    0.0000 C   0  0  0  0  0  0  0  0  0
    0.2806   -3.7418    0.0000 C   0  0  0  0  0  0  0  0  0
    0.2806   -4.5668    0.0000 C   0  0  0  0  0  0  0  0  0
  1  2  1  0  0  0  0
  1  6  1  0  0  0  0
  2  3  1  0  0  0  0
  3  4  1  0  0  0  0
  4  5  1  0  0  0  0
  4 22  1  0  0  0  0
  5  6  1  0  0  0  0
  6  7  1  0  0  0  0
  7  8  1  0  0  0  0
  8  9  1  0  0  0  0
  9 10  4  0  0  0  0
  9 14  4  0  0  0  0
 10 11  4  0  0  0  0
 11 12  4  0  0  0  0
 12 13  4  0  0  0  0
 12 15  1  0  0  0  0
 13 14  4  0  0  0  0
 15 16  1  0  0  0  0
 16 17  1  0  0  0  0
 16 21  1  0  0  0  0
 17 18  1  0  0  0  0
 18 19  1  0  0  0  0
 19 20  1  0  0  0  0
 20 21  1  0  0  0  0
 22 23  1  0  0  0  0
M  END
>  <Name_Molregno>
494857

>  <HISTAMINE H3>
6.78

$$$$
494858
  Marvin  02231216192D 0   1.00000     0.00000     0

 24 27  0  0  1  0  0  0  0  0999 V2000
    4.3322   -1.1651    0.0000 O   0  0  0  0  0  0  0  0  0
    5.0466   -1.5776    0.0000 C   0  0  0  0  0  0  0  0  0
    5.0466   -2.4026    0.0000 C   0  0  0  0  0  0  0  0  0
    4.3322   -2.8151    0.0000 N   0  0  0  0  0  0  0  0  0
    3.6177   -2.4026    0.0000 C   0  0  0  0  0  0  0  0  0
    3.6177   -1.5776    0.0000 C   0  0  0  0  0  0  0  0  0
    2.9032   -1.1651    0.0000 C   0  0  0  0  0  0  0  0  0
    2.9032   -0.3401    0.0000 O   0  0  0  0  0  0  0  0  0
    2.1887    0.0724    0.0000 C   0  0  0  0  0  0  0  0  0
    1.4743   -0.3401    0.0000 C   0  0  0  0  0  0  0  0  0
    0.7598    0.0724    0.0000 C   0  0  0  0  0  0  0  0  0
    0.7598    0.8974    0.0000 C   0  0  0  0  0  0  0  0  0
    1.4743    1.3099    0.0000 C   0  0  0  0  0  0  0  0  0
    2.1887    0.8974    0.0000 C   0  0  0  0  0  0  0  0  0
    0.0453    1.3099    0.0000 C   0  0  0  0  0  0  0  0  0
    0.0453    2.1349    0.0000 N   0  0  0  0  0  0  0  0  0
   -0.6691    2.5474    0.0000 C   0  0  0  0  0  0  0  0  0
   -0.6691    3.3724    0.0000 C   0  0  0  0  0  0  0  0  0
    0.0453    3.7849    0.0000 O   0  0  0  0  0  0  0  0  0
    0.7598    3.3724    0.0000 C   0  0  0  0  0  0  0  0  0
    0.7598    2.5474    0.0000 C   0  0  0  0  0  0  0  0  0
    4.3322   -3.6401    0.0000 C   0  0  0  0  0  0  0  0  0
    4.7447   -4.3546    0.0000 C   0  0  0  0  0  0  0  0  0
    3.9197   -4.3546    0.0000 C   0  0  0  0  0  0  0  0  0
  1  2  1  0  0  0  0
  1  6  1  0  0  0  0
  2  3  1  0  0  0  0
  3  4  1  0  0  0  0
  4  5  1  0  0  0  0
  4 22  1  0  0  0  0
  5  6  1  0  0  0  0
  6  7  1  0  0  0  0
  7  8  1  0  0  0  0
  8  9  1  0  0  0  0
  9 10  4  0  0  0  0
  9 14  4  0  0  0  0
 10 11  4  0  0  0  0
 11 12  4  0  0  0  0
 12 13  4  0  0  0  0
 12 15  1  0  0  0  0
 13 14  4  0  0  0  0
 15 16  1  0  0  0  0
 16 17  1  0  0  0  0
 16 21  1  0  0  0  0
 17 18  1  0  0  0  0
 18 19  1  0  0  0  0
 19 20  1  0  0  0  0
 20 21  1  0  0  0  0
 22 23  1  0  0  0  0
 22 24  1  0  0  0  0
 23 24  1  0  0  0  0
M  END
>  <Name_Molregno>
494858

>  <HISTAMINE H3>
6.97

$$$$
494859
  Marvin  02231216192D 0   1.00000     0.00000     0

 24 26  0  0  1  0  0  0  0  0999 V2000
    2.4086   -2.4704    0.0000 O   0  0  0  0  0  0  0  0  0
    2.4086   -3.2954    0.0000 C   0  0  0  0  0  0  0  0  0
    1.6941   -3.7079    0.0000 C   0  0  0  0  0  0  0  0  0
    0.9796   -3.2954    0.0000 N   0  0  0  0  0  0  0  0  0
    0.9796   -2.4704    0.0000 C   0  0  0  0  0  0  0  0  0
    1.6941   -2.0579    0.0000 C   0  0  0  0  0  0  0  0  0
    1.6941   -1.2329    0.0000 C   0  0  0  0  0  0  0  0  0
    2.4086   -0.8204    0.0000 O   0  0  0  0  0  0  0  0  0
    2.4086    0.0046    0.0000 C   0  0  0  0  0  0  0  0  0
    1.6941    0.4171    0.0000 C   0  0  0  0  0  0  0  0  0
    1.6941    1.2421    0.0000 C   0  0  0  0  0  0  0  0  0
    2.4086    1.6546    0.0000 C   0  0  0  0  0  0  0  0  0
    3.1230    1.2421    0.0000 C   0  0  0  0  0  0  0  0  0
    3.1230    0.4171    0.0000 C   0  0  0  0  0  0  0  0  0
    2.4086    2.4796    0.0000 C   0  0  0  0  0  0  0  0  0
    3.1230    2.8921    0.0000 N   0  0  0  0  0  0  0  0  0
    3.1230    3.7171    0.0000 C   0  0  0  0  0  0  0  0  0
    3.8375    4.1296    0.0000 C   0  0  0  0  0  0  0  0  0
    4.5520    3.7171    0.0000 O   0  0  0  0  0  0  0  0  0
    4.5520    2.8921    0.0000 C   0  0  0  0  0  0  0  0  0
    3.8375    2.4796    0.0000 C   0  0  0  0  0  0  0  0  0
    0.2651   -3.7079    0.0000 C   0  0  0  0  0  0  0  0  0
    0.2651   -4.5329    0.0000 C   0  0  0  0  0  0  0  0  0
   -0.4493   -3.2954    0.0000 C   0  0  0  0  0  0  0  0  0
  1  2  1  0  0  0  0
  1  6  1  0  0  0  0
  2  3  1  0  0  0  0
  3  4  1  0  0  0  0
  4  5  1  0  0  0  0
  4 22  1  0  0  0  0
  5  6  1  0  0  0  0
  6  7  1  0  0  0  0
  7  8  1  0  0  0  0
  8  9  1  0  0  0  0
  9 10  4  0  0  0  0
  9 14  4  0  0  0  0
 10 11  4  0  0  0  0
 11 12  4  0  0  0  0
 12 13  4  0  0  0  0
 12 15  1  0  0  0  0
 13 14  4  0  0  0  0
 15 16  1  0  0  0  0
 16 17  1  0  0  0  0
 16 21  1  0  0  0  0
 17 18  1  0  0  0  0
 18 19  1  0  0  0  0
 19 20  1  0  0  0  0
 20 21  1  0  0  0  0
 22 23  1  0  0  0  0
 22 24  1  0  0  0  0
M  END
>  <Name_Molregno>
494859

>  <HISTAMINE H3>
7.31

$$$$
494860
  Marvin  02231216192D 0   1.00000     0.00000     0

 25 28  0  0  1  0  0  0  0  0999 V2000
    4.0927   -1.1034    0.0000 O   0  0  0  0  0  0  0  0  0
    4.8071   -1.5159    0.0000 C   0  0  0  0  0  0  0  0  0
    4.8071   -2.3409    0.0000 C   0  0  0  0  0  0  0  0  0
    4.0927   -2.7534    0.0000 N   0  0  0  0  0  0  0  0  0
    3.3782   -2.3409    0.0000 C   0  0  0  0  0  0  0  0  0
    3.3782   -1.5159    0.0000 C   0  0  0  0  0  0  0  0  0
    2.6637   -1.1034    0.0000 C   0  0  0  0  0  0  0  0  0
    2.6637   -0.2784    0.0000 O   0  0  0  0  0  0  0  0  0
    1.9493    0.1341    0.0000 C   0  0  0  0  0  0  0  0  0
    1.2348   -0.2784    0.0000 C   0  0  0  0  0  0  0  0  0
    0.5203    0.1341    0.0000 C   0  0  0  0  0  0  0  0  0
    0.5203    0.9591    0.0000 C   0  0  0  0  0  0  0  0  0
    1.2348    1.3716    0.0000 C   0  0  0  0  0  0  0  0  0
    1.9493    0.9591    0.0000 C   0  0  0  0  0  0  0  0  0
   -0.1941    1.3716    0.0000 C   0  0  0  0  0  0  0  0  0
   -0.1941    2.1966    0.0000 N   0  0  0  0  0  0  0  0  0
   -0.9086    2.6091    0.0000 C   0  0  0  0  0  0  0  0  0
   -0.9086    3.4341    0.0000 C   0  0  0  0  0  0  0  0  0
   -0.1941    3.8466    0.0000 O   0  0  0  0  0  0  0  0  0
    0.5203    3.4341    0.0000 C   0  0  0  0  0  0  0  0  0
    0.5203    2.6091    0.0000 C   0  0  0  0  0  0  0  0  0
    4.0927   -3.5784    0.0000 C   0  0  0  0  0  0  0  0  0
    4.6760   -4.1618    0.0000 C   0  0  0  0  0  0  0  0  0
    4.0927   -4.7451    0.0000 C   0  0  0  0  0  0  0  0  0
    3.5093   -4.1618    0.0000 C   0  0  0  0  0  0  0  0  0
  1  2  1  0  0  0  0
  1  6  1  0  0  0  0
  2  3  1  0  0  0  0
  3  4  1  0  0  0  0
  4  5  1  0  0  0  0
  4 22  1  0  0  0  0
  5  6  1  0  0  0  0
  6  7  1  0  0  0  0
  7  8  1  0  0  0  0
  8  9  1  0  0  0  0
  9 10  4  0  0  0  0
  9 14  4  0  0  0  0
 10 11  4  0  0  0  0
 11 12  4  0  0  0  0
 12 13  4  0  0  0  0
 12 15  1  0  0  0  0
 13 14  4  0  0  0  0
 15 16  1  0  0  0  0
 16 17  1  0  0  0  0
 16 21  1  0  0  0  0
 17 18  1  0  0  0  0
 18 19  1  0  0  0  0
 19 20  1  0  0  0  0
 20 21  1  0  0  0  0
 22 23  1  0  0  0  0
 22 25  1  0  0  0  0
 23 24  1  0  0  0  0
 24 25  1  0  0  0  0
M  END
>  <Name_Molregno>
494860

>  <HISTAMINE H3>
7.74

$$$$
494861
  Marvin  02231216192D 0   1.00000     0.00000     0

 26 29  0  0  1  0  0  0  0  0999 V2000
    3.8664   -0.2747    0.0000 O   0  0  0  0  0  0  0  0  0
    4.5809   -0.6872    0.0000 C   0  0  0  0  0  0  0  0  0
    4.5809   -1.5122    0.0000 C   0  0  0  0  0  0  0  0  0
    3.8664   -1.9247    0.0000 N   0  0  0  0  0  0  0  0  0
    3.1519   -1.5122    0.0000 C   0  0  0  0  0  0  0  0  0
    3.1519   -0.6872    0.0000 C   0  0  0  0  0  0  0  0  0
    2.4375   -0.2747    0.0000 C   0  0  0  0  0  0  0  0  0
    2.4375    0.5503    0.0000 O   0  0  0  0  0  0  0  0  0
    1.7230    0.9628    0.0000 C   0  0  0  0  0  0  0  0  0
    1.0085    0.5503    0.0000 C   0  0  0  0  0  0  0  0  0
    0.2941    0.9628    0.0000 C   0  0  0  0  0  0  0  0  0
    0.2941    1.7878    0.0000 C   0  0  0  0  0  0  0  0  0
    1.0085    2.2003    0.0000 C   0  0  0  0  0  0  0  0  0
    1.7230    1.7878    0.0000 C   0  0  0  0  0  0  0  0  0
   -0.4204    2.2003    0.0000 C   0  0  0  0  0  0  0  0  0
   -0.4204    3.0253    0.0000 N   0  0  0  0  0  0  0  0  0
   -1.1349    3.4378    0.0000 C   0  0  0  0  0  0  0  0  0
   -1.1349    4.2628    0.0000 C   0  0  0  0  0  0  0  0  0
   -0.4204    4.6753    0.0000 O   0  0  0  0  0  0  0  0  0
    0.2941    4.2628    0.0000 C   0  0  0  0  0  0  0  0  0
    0.2941    3.4378    0.0000 C   0  0  0  0  0  0  0  0  0
    3.8664   -2.7497    0.0000 C   0  0  0  0  0  0  0  0  0
    4.5338   -3.2347    0.0000 C   0  0  0  0  0  0  0  0  0
    4.2789   -4.0193    0.0000 C   0  0  0  0  0  0  0  0  0
    3.4539   -4.0193    0.0000 C   0  0  0  0  0  0  0  0  0
    3.1990   -3.2347    0.0000 C   0  0  0  0  0  0  0  0  0
  1  2  1  0  0  0  0
  1  6  1  0  0  0  0
  2  3  1  0  0  0  0
  3  4  1  0  0  0  0
  4  5  1  0  0  0  0
  4 22  1  0  0  0  0
  5  6  1  0  0  0  0
  6  7  1  0  0  0  0
  7  8  1  0  0  0  0
  8  9  1  0  0  0  0
  9 10  4  0  0  0  0
  9 14  4  0  0  0  0
 10 11  4  0  0  0  0
 11 12  4  0  0  0  0
 12 13  4  0  0  0  0
 12 15  1  0  0  0  0
 13 14  4  0  0  0  0
 15 16  1  0  0  0  0
 16 17  1  0  0  0  0
 16 21  1  0  0  0  0
 17 18  1  0  0  0  0
 18 19  1  0  0  0  0
 19 20  1  0  0  0  0
 20 21  1  0  0  0  0
 22 23  1  0  0  0  0
 22 26  1  0  0  0  0
 23 24  1  0  0  0  0
 24 25  1  0  0  0  0
 25 26  1  0  0  0  0
M  END
>  <Name_Molregno>
494861

>  <HISTAMINE H3>
8.22

$$$$
494953
  Marvin  02231216192D 0   1.00000     0.00000     0

 24 27  0  0  1  0  0  0  0  0999 V2000
    4.6555   -0.4251    0.0000 O   0  0  0  0  0  0  0  0  0
    5.3700   -0.8376    0.0000 C   0  0  0  0  0  0  0  0  0
    5.3700   -1.6626    0.0000 C   0  0  0  0  0  0  0  0  0
    4.6555   -2.0751    0.0000 N   0  0  0  0  0  0  0  0  0
    3.9410   -1.6626    0.0000 C   0  0  0  0  0  0  0  0  0
    3.9410   -0.8376    0.0000 C   0  0  0  0  0  0  0  0  0
    3.2265   -0.4251    0.0000 C   0  0  0  0  0  0  0  0  0
    3.2265    0.3999    0.0000 O   0  0  0  0  0  0  0  0  0
    2.5121    0.8124    0.0000 C   0  0  0  0  0  0  0  0  0
    1.7976    0.3999    0.0000 C   0  0  0  0  0  0  0  0  0
    1.0831    0.8124    0.0000 C   0  0  0  0  0  0  0  0  0
    1.0831    1.6374    0.0000 C   0  0  0  0  0  0  0  0  0
    1.7976    2.0499    0.0000 C   0  0  0  0  0  0  0  0  0
    2.5121    1.6374    0.0000 C   0  0  0  0  0  0  0  0  0
    0.3687    0.3999    0.0000 C   0  0  0  0  0  0  0  0  0
   -0.3458    0.8124    0.0000 N   0  0  0  0  0  0  0  0  0
   -1.0603    0.3999    0.0000 C   0  0  0  0  0  0  0  0  0
   -1.7748    0.8124    0.0000 C   0  0  0  0  0  0  0  0  0
   -1.7748    1.6374    0.0000 O   0  0  0  0  0  0  0  0  0
   -1.0603    2.0499    0.0000 C   0  0  0  0  0  0  0  0  0
   -0.3458    1.6374    0.0000 C   0  0  0  0  0  0  0  0  0
    4.6555   -2.9001    0.0000 C   0  0  0  0  0  0  0  0  0
    5.0680   -3.6146    0.0000 C   0  0  0  0  0  0  0  0  0
    4.2430   -3.6146    0.0000 C   0  0  0  0  0  0  0  0  0
  1  2  1  0  0  0  0
  1  6  1  0  0  0  0
  2  3  1  0  0  0  0
  3  4  1  0  0  0  0
  4  5  1  0  0  0  0
  4 22  1  0  0  0  0
  5  6  1  0  0  0  0
  6  7  1  0  0  0  0
  7  8  1  0  0  0  0
  8  9  1  0  0  0  0
  9 10  4  0  0  0  0
  9 14  4  0  0  0  0
 10 11  4  0  0  0  0
 11 12  4  0  0  0  0
 11 15  1  0  0  0  0
 12 13  4  0  0  0  0
 13 14  4  0  0  0  0
 15 16  1  0  0  0  0
 16 17  1  0  0  0  0
 16 21  1  0  0  0  0
 17 18  1  0  0  0  0
 18 19  1  0  0  0  0
 19 20  1  0  0  0  0
 20 21  1  0  0  0  0
 22 23  1  0  0  0  0
 22 24  1  0  0  0  0
 23 24  1  0  0  0  0
M  END
>  <Name_Molregno>
494953

>  <HISTAMINE H3>
6.25

$$$$
494954
  Marvin  02231216192D 0   1.00000     0.00000     0

 24 26  0  0  1  0  0  0  0  0999 V2000
    3.1490   -2.3839    0.0000 O   0  0  0  0  0  0  0  0  0
    3.1490   -3.2089    0.0000 C   0  0  0  0  0  0  0  0  0
    2.4345   -3.6214    0.0000 C   0  0  0  0  0  0  0  0  0
    1.7201   -3.2089    0.0000 N   0  0  0  0  0  0  0  0  0
    1.7201   -2.3839    0.0000 C   0  0  0  0  0  0  0  0  0
    2.4345   -1.9714    0.0000 C   0  0  0  0  0  0  0  0  0
    2.4345   -1.1464    0.0000 C   0  0  0  0  0  0  0  0  0
    3.1490   -0.7339    0.0000 O   0  0  0  0  0  0  0  0  0
    3.1490    0.0911    0.0000 C   0  0  0  0  0  0  0  0  0
    2.4345    0.5036    0.0000 C   0  0  0  0  0  0  0  0  0
    2.4345    1.3286    0.0000 C   0  0  0  0  0  0  0  0  0
    3.1490    1.7411    0.0000 C   0  0  0  0  0  0  0  0  0
    3.8635    1.3286    0.0000 C   0  0  0  0  0  0  0  0  0
    3.8635    0.5036    0.0000 C   0  0  0  0  0  0  0  0  0
    1.7201    1.7411    0.0000 C   0  0  0  0  0  0  0  0  0
    1.7201    2.5661    0.0000 N   0  0  0  0  0  0  0  0  0
    1.0056    2.9786    0.0000 C   0  0  0  0  0  0  0  0  0
    1.0056    3.8036    0.0000 C   0  0  0  0  0  0  0  0  0
    1.7201    4.2161    0.0000 O   0  0  0  0  0  0  0  0  0
    2.4345    3.8036    0.0000 C   0  0  0  0  0  0  0  0  0
    2.4345    2.9786    0.0000 C   0  0  0  0  0  0  0  0  0
    1.0056   -3.6214    0.0000 C   0  0  0  0  0  0  0  0  0
    1.0056   -4.4464    0.0000 C   0  0  0  0  0  0  0  0  0
    0.2911   -3.2089    0.0000 C   0  0  0  0  0  0  0  0  0
  1  2  1  0  0  0  0
  1  6  1  0  0  0  0
  2  3  1  0  0  0  0
  3  4  1  0  0  0  0
  4  5  1  0  0  0  0
  4 22  1  0  0  0  0
  5  6  1  0  0  0  0
  6  7  1  0  0  0  0
  7  8  1  0  0  0  0
  8  9  1  0  0  0  0
  9 10  4  0  0  0  0
  9 14  4  0  0  0  0
 10 11  4  0  0  0  0
 11 12  4  0  0  0  0
 11 15  1  0  0  0  0
 12 13  4  0  0  0  0
 13 14  4  0  0  0  0
 15 16  1  0  0  0  0
 16 17  1  0  0  0  0
 16 21  1  0  0  0  0
 17 18  1  0  0  0  0
 18 19  1  0  0  0  0
 19 20  1  0  0  0  0
 20 21  1  0  0  0  0
 22 23  1  0  0  0  0
 22 24  1  0  0  0  0
M  END
>  <Name_Molregno>
494954

>  <HISTAMINE H3>
6.99

$$$$
494955
  Marvin  02231216192D 0   1.00000     0.00000     0

 25 28  0  0  1  0  0  0  0  0999 V2000
    4.4030   -0.3918    0.0000 O   0  0  0  0  0  0  0  0  0
    5.1175   -0.8043    0.0000 C   0  0  0  0  0  0  0  0  0
    5.1175   -1.6293    0.0000 C   0  0  0  0  0  0  0  0  0
    4.4030   -2.0418    0.0000 N   0  0  0  0  0  0  0  0  0
    3.6885   -1.6293    0.0000 C   0  0  0  0  0  0  0  0  0
    3.6885   -0.8043    0.0000 C   0  0  0  0  0  0  0  0  0
    2.9741   -0.3918    0.0000 C   0  0  0  0  0  0  0  0  0
    2.9741    0.4332    0.0000 O   0  0  0  0  0  0  0  0  0
    2.2596    0.8457    0.0000 C   0  0  0  0  0  0  0  0  0
    1.5451    0.4332    0.0000 C   0  0  0  0  0  0  0  0  0
    0.8307    0.8457    0.0000 C   0  0  0  0  0  0  0  0  0
    0.8307    1.6707    0.0000 C   0  0  0  0  0  0  0  0  0
    1.5451    2.0832    0.0000 C   0  0  0  0  0  0  0  0  0
    2.2596    1.6707    0.0000 C   0  0  0  0  0  0  0  0  0
    0.1162    0.4332    0.0000 C   0  0  0  0  0  0  0  0  0
   -0.5983    0.8457    0.0000 N   0  0  0  0  0  0  0  0  0
   -1.3128    0.4332    0.0000 C   0  0  0  0  0  0  0  0  0
   -2.0272    0.8457    0.0000 C   0  0  0  0  0  0  0  0  0
   -2.0272    1.6707    0.0000 O   0  0  0  0  0  0  0  0  0
   -1.3128    2.0832    0.0000 C   0  0  0  0  0  0  0  0  0
   -0.5983    1.6707    0.0000 C   0  0  0  0  0  0  0  0  0
    4.4030   -2.8668    0.0000 C   0  0  0  0  0  0  0  0  0
    4.9864   -3.4502    0.0000 C   0  0  0  0  0  0  0  0  0
    4.4030   -4.0336    0.0000 C   0  0  0  0  0  0  0  0  0
    3.8196   -3.4502    0.0000 C   0  0  0  0  0  0  0  0  0
  1  2  1  0  0  0  0
  1  6  1  0  0  0  0
  2  3  1  0  0  0  0
  3  4  1  0  0  0  0
  4  5  1  0  0  0  0
  4 22  1  0  0  0  0
  5  6  1  0  0  0  0
  6  7  1  0  0  0  0
  7  8  1  0  0  0  0
  8  9  1  0  0  0  0
  9 10  4  0  0  0  0
  9 14  4  0  0  0  0
 10 11  4  0  0  0  0
 11 12  4  0  0  0  0
 11 15  1  0  0  0  0
 12 13  4  0  0  0  0
 13 14  4  0  0  0  0
 15 16  1  0  0  0  0
 16 17  1  0  0  0  0
 16 21  1  0  0  0  0
 17 18  1  0  0  0  0
 18 19  1  0  0  0  0
 19 20  1  0  0  0  0
 20 21  1  0  0  0  0
 22 23  1  0  0  0  0
 22 25  1  0  0  0  0
 23 24  1  0  0  0  0
 24 25  1  0  0  0  0
M  END
>  <Name_Molregno>
494955

>  <HISTAMINE H3>
7.43

$$$$
494956
  Marvin  02231216192D 0   1.00000     0.00000     0

 14 15  0  0  1  0  0  0  0  0999 V2000
    2.4772   -1.7946    0.0000 O   0  0  0  0  0  0  0  0  0
    2.4772   -2.6196    0.0000 C   0  0  0  0  0  0  0  0  0
    1.7628   -3.0321    0.0000 C   0  0  0  0  0  0  0  0  0
    1.0483   -2.6196    0.0000 N   0  0  0  0  0  0  0  0  0
    1.0483   -1.7946    0.0000 C   0  0  0  0  0  0  0  0  0
    1.7628   -1.3821    0.0000 C   0  0  0  0  0  0  0  0  0
    1.7628   -0.5571    0.0000 C   0  0  0  0  0  0  0  0  0
    1.0483   -0.1446    0.0000 O   0  0  0  0  0  0  0  0  0
    1.0483    0.6804    0.0000 C   0  0  0  0  0  0  0  0  0
    0.3338    1.0929    0.0000 C   0  0  0  0  0  0  0  0  0
    0.3338    1.9179    0.0000 C   0  0  0  0  0  0  0  0  0
    1.0483    2.3304    0.0000 C   0  0  0  0  0  0  0  0  0
    1.7628    1.9179    0.0000 C   0  0  0  0  0  0  0  0  0
    1.7628    1.0929    0.0000 C   0  0  0  0  0  0  0  0  0
  1  2  1  0  0  0  0
  1  6  1  0  0  0  0
  2  3  1  0  0  0  0
  3  4  1  0  0  0  0
  4  5  1  0  0  0  0
  5  6  1  0  0  0  0
  6  7  1  0  0  0  0
  7  8  1  0  0  0  0
  8  9  1  0  0  0  0
  9 10  4  0  0  0  0
  9 14  4  0  0  0  0
 10 11  4  0  0  0  0
 11 12  4  0  0  0  0
 12 13  4  0  0  0  0
 13 14  4  0  0  0  0
M  END
>  <Name_Molregno>
494956

>  <HISTAMINE H3>
5

$$$$
494957
  Marvin  02231216192D 0   1.00000     0.00000     0

 17 18  0  0  1  0  0  0  0  0999 V2000
    1.6403   -1.6368    0.0000 O   0  0  0  0  0  0  0  0  0
    1.6403   -2.4618    0.0000 C   0  0  0  0  0  0  0  0  0
    0.9259   -2.8743    0.0000 C   0  0  0  0  0  0  0  0  0
    0.2114   -2.4618    0.0000 N   0  0  0  0  0  0  0  0  0
    0.2114   -1.6368    0.0000 C   0  0  0  0  0  0  0  0  0
    0.9259   -1.2243    0.0000 C   0  0  0  0  0  0  0  0  0
    0.9259   -0.3993    0.0000 C   0  0  0  0  0  0  0  0  0
    1.6403    0.0132    0.0000 O   0  0  0  0  0  0  0  0  0
    1.6403    0.8382    0.0000 C   0  0  0  0  0  0  0  0  0
    0.9259    1.2507    0.0000 C   0  0  0  0  0  0  0  0  0
    0.9259    2.0757    0.0000 C   0  0  0  0  0  0  0  0  0
    1.6403    2.4882    0.0000 C   0  0  0  0  0  0  0  0  0
    2.3548    2.0757    0.0000 C   0  0  0  0  0  0  0  0  0
    2.3548    1.2507    0.0000 C   0  0  0  0  0  0  0  0  0
   -0.5031   -2.8743    0.0000 C   0  0  0  0  0  0  0  0  0
   -0.5031   -3.6993    0.0000 C   0  0  0  0  0  0  0  0  0
   -1.2175   -2.4618    0.0000 C   0  0  0  0  0  0  0  0  0
  1  2  1  0  0  0  0
  1  6  1  0  0  0  0
  2  3  1  0  0  0  0
  3  4  1  0  0  0  0
  4  5  1  0  0  0  0
  4 15  1  0  0  0  0
  5  6  1  0  0  0  0
  6  7  1  0  0  0  0
  7  8  1  0  0  0  0
  8  9  1  0  0  0  0
  9 10  4  0  0  0  0
  9 14  4  0  0  0  0
 10 11  4  0  0  0  0
 11 12  4  0  0  0  0
 12 13  4  0  0  0  0
 13 14  4  0  0  0  0
 15 16  1  0  0  0  0
 15 17  1  0  0  0  0
M  END
>  <Name_Molregno>
494957

>  <HISTAMINE H3>
5.32

$$$$
494958
  Marvin  02231216192D 0   1.00000     0.00000     0

 20 21  0  0  1  0  0  0  0  0999 V2000
    0.6197   -2.3467    0.0000 O   0  0  0  0  0  0  0  0  0
    0.6197   -3.1718    0.0000 C   0  0  0  0  0  0  0  0  0
   -0.0948   -3.5843    0.0000 C   0  0  0  0  0  0  0  0  0
   -0.8093   -3.1718    0.0000 N   0  0  0  0  0  0  0  0  0
   -0.8093   -2.3468    0.0000 C   0  0  0  0  0  0  0  0  0
   -0.0948   -1.9343    0.0000 C   0  0  0  0  0  0  0  0  0
   -0.0948   -1.1093    0.0000 C   0  0  0  0  0  0  0  0  0
    0.6197   -0.6968    0.0000 O   0  0  0  0  0  0  0  0  0
    0.6197    0.1282    0.0000 C   0  0  0  0  0  0  0  0  0
   -0.0948    0.5408    0.0000 C   0  0  0  0  0  0  0  0  0
   -0.0948    1.3658    0.0000 C   0  0  0  0  0  0  0  0  0
    0.6197    1.7783    0.0000 C   0  0  0  0  0  0  0  0  0
    1.3341    1.3658    0.0000 C   0  0  0  0  0  0  0  0  0
    1.3341    0.5408    0.0000 C   0  0  0  0  0  0  0  0  0
    2.0486    0.1283    0.0000 O   0  0  0  0  0  0  0  0  0
    2.7631    0.5408    0.0000 C   0  0  0  0  0  0  0  0  0
    3.4776    0.1283    0.0000 C   0  0  0  0  0  0  0  0  0
   -1.5237   -3.5842    0.0000 C   0  0  0  0  0  0  0  0  0
   -1.5237   -4.4093    0.0000 C   0  0  0  0  0  0  0  0  0
   -2.2382   -3.1718    0.0000 C   0  0  0  0  0  0  0  0  0
  1  2  1  0  0  0  0
  1  6  1  0  0  0  0
  2  3  1  0  0  0  0
  3  4  1  0  0  0  0
  4  5  1  0  0  0  0
  4 18  1  0  0  0  0
  5  6  1  0  0  0  0
  6  7  1  0  0  0  0
  7  8  1  0  0  0  0
  8  9  1  0  0  0  0
  9 10  4  0  0  0  0
  9 14  4  0  0  0  0
 10 11  4  0  0  0  0
 11 12  4  0  0  0  0
 12 13  4  0  0  0  0
 13 14  4  0  0  0  0
 14 15  1  0  0  0  0
 15 16  1  0  0  0  0
 16 17  1  0  0  0  0
 18 19  1  0  0  0  0
 18 20  1  0  0  0  0
M  END
>  <Name_Molregno>
494958

>  <HISTAMINE H3>
5.05

$$$$
495017
  Marvin  02231216192D 0   1.00000     0.00000     0

 21 23  0  0  1  0  0  0  0  0999 V2000
    1.2637   -1.2377    0.0000 O   0  0  0  0  0  0  0  0  0
    1.9782   -1.6502    0.0000 C   0  0  0  0  0  0  0  0  0
    1.9782   -2.4752    0.0000 C   0  0  0  0  0  0  0  0  0
    1.2637   -2.8877    0.0000 N   0  0  0  0  0  0  0  0  0
    0.5493   -2.4752    0.0000 C   0  0  0  0  0  0  0  0  0
    0.5493   -1.6502    0.0000 C   0  0  0  0  0  0  0  0  0
   -0.1652   -1.2377    0.0000 C   0  0  0  0  0  0  0  0  0
   -0.1652   -0.4127    0.0000 O   0  0  0  0  0  0  0  0  0
   -0.8797   -0.0002    0.0000 C   0  0  0  0  0  0  0  0  0
   -1.5941   -0.4127    0.0000 C   0  0  0  0  0  0  0  0  0
   -2.3086   -0.0002    0.0000 C   0  0  0  0  0  0  0  0  0
   -2.3086    0.8248    0.0000 C   0  0  0  0  0  0  0  0  0
   -1.5941    1.2373    0.0000 C   0  0  0  0  0  0  0  0  0
   -0.8797    0.8248    0.0000 C   0  0  0  0  0  0  0  0  0
   -0.1652    1.2373    0.0000 O   0  0  0  0  0  0  0  0  0
   -0.1652    2.0623    0.0000 C   0  0  0  0  0  0  0  0  0
    0.5493    2.4748    0.0000 C   0  0  0  0  0  0  0  0  0
    1.2637   -3.7127    0.0000 C   0  0  0  0  0  0  0  0  0
    1.8471   -4.2960    0.0000 C   0  0  0  0  0  0  0  0  0
    1.2637   -4.8794    0.0000 C   0  0  0  0  0  0  0  0  0
    0.6804   -4.2960    0.0000 C   0  0  0  0  0  0  0  0  0
  1  2  1  0  0  0  0
  1  6  1  0  0  0  0
  2  3  1  0  0  0  0
  3  4  1  0  0  0  0
  4  5  1  0  0  0  0
  4 18  1  0  0  0  0
  5  6  1  0  0  0  0
  6  7  1  0  0  0  0
  7  8  1  0  0  0  0
  8  9  1  0  0  0  0
  9 10  4  0  0  0  0
  9 14  4  0  0  0  0
 10 11  4  0  0  0  0
 11 12  4  0  0  0  0
 12 13  4  0  0  0  0
 13 14  4  0  0  0  0
 14 15  1  0  0  0  0
 15 16  1  0  0  0  0
 16 17  1  0  0  0  0
 18 19  1  0  0  0  0
 18 21  1  0  0  0  0
 19 20  1  0  0  0  0
 20 21  1  0  0  0  0
M  END
>  <Name_Molregno>
495017

>  <HISTAMINE H3>
5.15

$$$$
495018
  Marvin  02231216192D 0   1.00000     0.00000     0

 20 22  0  0  1  0  0  0  0  0999 V2000
    1.5003   -1.4661    0.0000 O   0  0  0  0  0  0  0  0  0
    2.2147   -1.8786    0.0000 C   0  0  0  0  0  0  0  0  0
    2.2147   -2.7036    0.0000 C   0  0  0  0  0  0  0  0  0
    1.5003   -3.1161    0.0000 N   0  0  0  0  0  0  0  0  0
    0.7858   -2.7036    0.0000 C   0  0  0  0  0  0  0  0  0
    0.7858   -1.8786    0.0000 C   0  0  0  0  0  0  0  0  0
    0.0713   -1.4661    0.0000 C   0  0  0  0  0  0  0  0  0
    0.0713   -0.6411    0.0000 O   0  0  0  0  0  0  0  0  0
   -0.6431   -0.2286    0.0000 C   0  0  0  0  0  0  0  0  0
   -1.3576   -0.6411    0.0000 C   0  0  0  0  0  0  0  0  0
   -2.0721   -0.2286    0.0000 C   0  0  0  0  0  0  0  0  0
   -2.0721    0.5964    0.0000 C   0  0  0  0  0  0  0  0  0
   -1.3576    1.0089    0.0000 C   0  0  0  0  0  0  0  0  0
   -0.6431    0.5964    0.0000 C   0  0  0  0  0  0  0  0  0
    0.0713    1.0089    0.0000 O   0  0  0  0  0  0  0  0  0
    0.0713    1.8339    0.0000 C   0  0  0  0  0  0  0  0  0
    0.7858    2.2464    0.0000 C   0  0  0  0  0  0  0  0  0
    1.5003   -3.9411    0.0000 C   0  0  0  0  0  0  0  0  0
    1.9128   -4.6556    0.0000 C   0  0  0  0  0  0  0  0  0
    1.0878   -4.6556    0.0000 C   0  0  0  0  0  0  0  0  0
  1  2  1  0  0  0  0
  1  6  1  0  0  0  0
  2  3  1  0  0  0  0
  3  4  1  0  0  0  0
  4  5  1  0  0  0  0
  4 18  1  0  0  0  0
  5  6  1  0  0  0  0
  6  7  1  0  0  0  0
  7  8  1  0  0  0  0
  8  9  1  0  0  0  0
  9 10  4  0  0  0  0
  9 14  4  0  0  0  0
 10 11  4  0  0  0  0
 11 12  4  0  0  0  0
 12 13  4  0  0  0  0
 13 14  4  0  0  0  0
 14 15  1  0  0  0  0
 15 16  1  0  0  0  0
 16 17  1  0  0  0  0
 18 19  1  0  0  0  0
 18 20  1  0  0  0  0
 19 20  1  0  0  0  0
M  END
>  <Name_Molregno>
495018

>  <HISTAMINE H3>
5

$$$$
495019
  Marvin  02231216192D 0   1.00000     0.00000     0

 22 24  0  0  1  0  0  0  0  0999 V2000
    1.0403   -1.0155    0.0000 O   0  0  0  0  0  0  0  0  0
    1.7548   -1.4280    0.0000 C   0  0  0  0  0  0  0  0  0
    1.7548   -2.2530    0.0000 C   0  0  0  0  0  0  0  0  0
    1.0403   -2.6655    0.0000 N   0  0  0  0  0  0  0  0  0
    0.3258   -2.2530    0.0000 C   0  0  0  0  0  0  0  0  0
    0.3258   -1.4280    0.0000 C   0  0  0  0  0  0  0  0  0
   -0.3886   -1.0155    0.0000 C   0  0  0  0  0  0  0  0  0
   -0.3886   -0.1905    0.0000 O   0  0  0  0  0  0  0  0  0
   -1.1031    0.2220    0.0000 C   0  0  0  0  0  0  0  0  0
   -1.8176   -0.1905    0.0000 C   0  0  0  0  0  0  0  0  0
   -2.5321    0.2220    0.0000 C   0  0  0  0  0  0  0  0  0
   -2.5321    1.0470    0.0000 C   0  0  0  0  0  0  0  0  0
   -1.8176    1.4595    0.0000 C   0  0  0  0  0  0  0  0  0
   -1.1031    1.0470    0.0000 C   0  0  0  0  0  0  0  0  0
   -0.3886    1.4595    0.0000 O   0  0  0  0  0  0  0  0  0
   -0.3886    2.2845    0.0000 C   0  0  0  0  0  0  0  0  0
    0.3258    2.6970    0.0000 C   0  0  0  0  0  0  0  0  0
    1.0403   -3.4905    0.0000 C   0  0  0  0  0  0  0  0  0
    1.7077   -3.9754    0.0000 C   0  0  0  0  0  0  0  0  0
    1.4528   -4.7601    0.0000 C   0  0  0  0  0  0  0  0  0
    0.6278   -4.7601    0.0000 C   0  0  0  0  0  0  0  0  0
    0.3729   -3.9754    0.0000 C   0  0  0  0  0  0  0  0  0
  1  2  1  0  0  0  0
  1  6  1  0  0  0  0
  2  3  1  0  0  0  0
  3  4  1  0  0  0  0
  4  5  1  0  0  0  0
  4 18  1  0  0  0  0
  5  6  1  0  0  0  0
  6  7  1  0  0  0  0
  7  8  1  0  0  0  0
  8  9  1  0  0  0  0
  9 10  4  0  0  0  0
  9 14  4  0  0  0  0
 10 11  4  0  0  0  0
 11 12  4  0  0  0  0
 12 13  4  0  0  0  0
 13 14  4  0  0  0  0
 14 15  1  0  0  0  0
 15 16  1  0  0  0  0
 16 17  1  0  0  0  0
 18 19  1  0  0  0  0
 18 22  1  0  0  0  0
 19 20  1  0  0  0  0
 20 21  1  0  0  0  0
 21 22  1  0  0  0  0
M  END
>  <Name_Molregno>
495019

>  <HISTAMINE H3>
5.28

$$$$
495020
  Marvin  02231216192D 0   1.00000     0.00000     0

 25 28  0  0  1  0  0  0  0  0999 V2000
   -0.0419    0.0342    0.0000 O   0  0  0  0  0  0  0  0  0
   -0.7563    0.4467    0.0000 C   0  0  0  0  0  0  0  0  0
   -0.7563    1.2717    0.0000 C   0  0  0  0  0  0  0  0  0
   -0.0419    1.6842    0.0000 N   0  0  0  0  0  0  0  0  0
    0.6726    1.2717    0.0000 C   0  0  0  0  0  0  0  0  0
    0.6726    0.4467    0.0000 C   0  0  0  0  0  0  0  0  0
    1.3871    0.0342    0.0000 C   0  0  0  0  0  0  0  0  0
    1.3871   -0.7908    0.0000 O   0  0  0  0  0  0  0  0  0
    2.1016   -1.2033    0.0000 C   0  0  0  0  0  0  0  0  0
    2.8160   -0.7908    0.0000 C   0  0  0  0  0  0  0  0  0
    3.5305   -1.2033    0.0000 C   0  0  0  0  0  0  0  0  0
    3.5305   -2.0283    0.0000 C   0  0  0  0  0  0  0  0  0
    2.8160   -2.4408    0.0000 C   0  0  0  0  0  0  0  0  0
    2.1016   -2.0283    0.0000 C   0  0  0  0  0  0  0  0  0
    4.2450   -2.4408    0.0000 C   0  0  0  0  0  0  0  0  0
    4.2450   -3.2658    0.0000 N   0  0  0  0  0  0  0  0  0
    4.9124   -3.7508    0.0000 C   0  0  0  0  0  0  0  0  0
    4.6575   -4.5354    0.0000 C   0  0  0  0  0  0  0  0  0
    3.8325   -4.5354    0.0000 C   0  0  0  0  0  0  0  0  0
    3.5775   -3.7508    0.0000 C   0  0  0  0  0  0  0  0  0
   -0.0419    2.5092    0.0000 C   0  0  0  0  0  0  0  0  0
   -0.7093    2.9941    0.0000 C   0  0  0  0  0  0  0  0  0
   -0.4544    3.7787    0.0000 C   0  0  0  0  0  0  0  0  0
    0.3706    3.7787    0.0000 C   0  0  0  0  0  0  0  0  0
    0.6256    2.9941    0.0000 C   0  0  0  0  0  0  0  0  0
  1  2  1  0  0  0  0
  1  6  1  0  0  0  0
  2  3  1  0  0  0  0
  3  4  1  0  0  0  0
  4  5  1  0  0  0  0
  4 21  1  0  0  0  0
  5  6  1  0  0  0  0
  6  7  1  0  0  0  0
  7  8  1  0  0  0  0
  8  9  1  0  0  0  0
  9 10  4  0  0  0  0
  9 14  4  0  0  0  0
 10 11  4  0  0  0  0
 11 12  4  0  0  0  0
 12 13  4  0  0  0  0
 12 15  1  0  0  0  0
 13 14  4  0  0  0  0
 15 16  1  0  0  0  0
 16 17  1  0  0  0  0
 16 20  1  0  0  0  0
 17 18  1  0  0  0  0
 18 19  1  0  0  0  0
 19 20  1  0  0  0  0
 21 22  1  0  0  0  0
 21 25  1  0  0  0  0
 22 23  1  0  0  0  0
 23 24  1  0  0  0  0
 24 25  1  0  0  0  0
M  END
>  <Name_Molregno>
495020

>  <HISTAMINE H3>
8.66

$$$$
495021
  Marvin  02231216192D 0   1.00000     0.00000     0

 26 29  0  0  1  0  0  0  0  0999 V2000
    3.8664   -0.2747    0.0000 O   0  0  0  0  0  0  0  0  0
    4.5809   -0.6872    0.0000 C   0  0  0  0  0  0  0  0  0
    4.5809   -1.5122    0.0000 C   0  0  0  0  0  0  0  0  0
    3.8664   -1.9247    0.0000 N   0  0  0  0  0  0  0  0  0
    3.1519   -1.5122    0.0000 C   0  0  0  0  0  0  0  0  0
    3.1519   -0.6872    0.0000 C   0  0  0  0  0  0  0  0  0
    2.4375   -0.2747    0.0000 C   0  0  0  0  0  0  0  0  0
    2.4375    0.5503    0.0000 O   0  0  0  0  0  0  0  0  0
    1.7230    0.9628    0.0000 C   0  0  0  0  0  0  0  0  0
    1.0085    0.5503    0.0000 C   0  0  0  0  0  0  0  0  0
    0.2941    0.9628    0.0000 C   0  0  0  0  0  0  0  0  0
    0.2941    1.7878    0.0000 C   0  0  0  0  0  0  0  0  0
    1.0085    2.2003    0.0000 C   0  0  0  0  0  0  0  0  0
    1.7230    1.7878    0.0000 C   0  0  0  0  0  0  0  0  0
   -0.4204    2.2003    0.0000 C   0  0  0  0  0  0  0  0  0
   -0.4204    3.0253    0.0000 N   0  0  0  0  0  0  0  0  0
   -1.1349    3.4378    0.0000 C   0  0  0  0  0  0  0  0  0
   -1.1349    4.2628    0.0000 C   0  0  0  0  0  0  0  0  0
   -0.4204    4.6753    0.0000 C   0  0  0  0  0  0  0  0  0
    0.2941    4.2628    0.0000 C   0  0  0  0  0  0  0  0  0
    0.2941    3.4378    0.0000 C   0  0  0  0  0  0  0  0  0
    3.8664   -2.7497    0.0000 C   0  0  0  0  0  0  0  0  0
    4.5338   -3.2347    0.0000 C   0  0  0  0  0  0  0  0  0
    4.2789   -4.0193    0.0000 C   0  0  0  0  0  0  0  0  0
    3.4539   -4.0193    0.0000 C   0  0  0  0  0  0  0  0  0
    3.1990   -3.2347    0.0000 C   0  0  0  0  0  0  0  0  0
  1  2  1  0  0  0  0
  1  6  1  0  0  0  0
  2  3  1  0  0  0  0
  3  4  1  0  0  0  0
  4  5  1  0  0  0  0
  4 22  1  0  0  0  0
  5  6  1  0  0  0  0
  6  7  1  0  0  0  0
  7  8  1  0  0  0  0
  8  9  1  0  0  0  0
  9 10  4  0  0  0  0
  9 14  4  0  0  0  0
 10 11  4  0  0  0  0
 11 12  4  0  0  0  0
 12 13  4  0  0  0  0
 12 15  1  0  0  0  0
 13 14  4  0  0  0  0
 15 16  1  0  0  0  0
 16 17  1  0  0  0  0
 16 21  1  0  0  0  0
 17 18  1  0  0  0  0
 18 19  1  0  0  0  0
 19 20  1  0  0  0  0
 20 21  1  0  0  0  0
 22 23  1  0  0  0  0
 22 26  1  0  0  0  0
 23 24  1  0  0  0  0
 24 25  1  0  0  0  0
 25 26  1  0  0  0  0
M  END
>  <Name_Molregno>
495021

>  <HISTAMINE H3>
8.6

$$$$
498864
  Marvin  02231216192D 0   1.00000     0.00000     0

 22 23  0  0  0  0  0  0  0  0999 V2000
   -0.0850   -1.1071    0.0000 O   0  0  0  0  0  0  0  0  0
    0.6295   -0.6946    0.0000 C   0  0  0  0  0  0  0  0  0
    1.3440   -1.1071    0.0000 C   0  0  0  0  0  0  0  0  0
    2.0584   -0.6946    0.0000 O   0  0  0  0  0  0  0  0  0
    2.7729   -1.1071    0.0000 C   0  0  0  0  0  0  0  0  0
    3.4874   -0.6946    0.0000 C   0  0  0  0  0  0  0  0  0
    4.2018   -1.1071    0.0000 C   0  0  0  0  0  0  0  0  0
    4.9163   -0.6946    0.0000 N   0  0  0  0  0  0  0  0  0
    4.8547    0.1281    0.0000 C   0  0  0  0  0  0  0  0  0
    5.4594    0.6893    0.0000 C   0  0  0  0  0  0  0  0  0
    6.2752    0.5663    0.0000 C   0  0  0  0  0  0  0  0  0
    6.6877   -0.1482    0.0000 C   0  0  0  0  0  0  0  0  0
    6.3863   -0.9161    0.0000 C   0  0  0  0  0  0  0  0  0
    5.5980   -1.1593    0.0000 C   0  0  0  0  0  0  0  0  0
   -0.7995   -0.6946    0.0000 C   0  0  0  0  0  0  0  0  0
   -1.5139   -1.1071    0.0000 C   0  0  0  0  0  0  0  0  0
   -2.2284   -0.6946    0.0000 C   0  0  0  0  0  0  0  0  0
   -2.9429   -1.1071    0.0000 O   0  0  0  0  0  0  0  0  0
   -2.9429   -1.9321    0.0000 C   0  0  0  0  0  0  0  0  0
   -2.2284    0.1304    0.0000 C   0  0  0  0  0  0  0  0  0
   -1.5139    0.5429    0.0000 C   0  0  0  0  0  0  0  0  0
   -0.7995    0.1304    0.0000 C   0  0  0  0  0  0  0  0  0
  1  2  1  0  0  0  0
  1 15  1  0  0  0  0
  2  3  1  0  0  0  0
  3  4  1  0  0  0  0
  4  5  1  0  0  0  0
  5  6  1  0  0  0  0
  6  7  1  0  0  0  0
  7  8  1  0  0  0  0
  8  9  1  0  0  0  0
  8 14  1  0  0  0  0
  9 10  1  0  0  0  0
 10 11  1  0  0  0  0
 11 12  1  0  0  0  0
 12 13  1  0  0  0  0
 13 14  1  0  0  0  0
 15 16  4  0  0  0  0
 15 22  4  0  0  0  0
 16 17  4  0  0  0  0
 17 18  1  0  0  0  0
 17 20  4  0  0  0  0
 18 19  1  0  0  0  0
 20 21  4  0  0  0  0
 21 22  4  0  0  0  0
M  END
>  <Name_Molregno>
498864

>  <HISTAMINE H3>
7.21

$$$$
498962
  Marvin  02231216192D 0   1.00000     0.00000     0

 29 31  0  0  0  0  0  0  0  0999 V2000
    4.6273    6.8992    0.0000 F   0  0  0  0  0  0  0  0  0
    4.6273    6.0742    0.0000 C   0  0  0  0  0  0  0  0  0
    5.3417    5.6617    0.0000 C   0  0  0  0  0  0  0  0  0
    5.3417    4.8367    0.0000 C   0  0  0  0  0  0  0  0  0
    4.6273    4.4242    0.0000 C   0  0  0  0  0  0  0  0  0
    3.9128    4.8367    0.0000 C   0  0  0  0  0  0  0  0  0
    3.9128    5.6617    0.0000 C   0  0  0  0  0  0  0  0  0
    4.6273    3.5992    0.0000 C   0  0  0  0  0  0  0  0  0
    5.3417    3.1867    0.0000 C   0  0  0  0  0  0  0  0  0
    5.3417    2.3617    0.0000 N   0  0  0  0  0  0  0  0  0
    6.0562    1.9492    0.0000 C   0  0  0  0  0  0  0  0  0
    6.0562    1.1242    0.0000 C   0  0  0  0  0  0  0  0  0
    5.3417    0.7117    0.0000 C   0  0  0  0  0  0  0  0  0
    4.6273    1.1242    0.0000 C   0  0  0  0  0  0  0  0  0
    4.6273    1.9492    0.0000 C   0  0  0  0  0  0  0  0  0
    5.3417   -0.1133    0.0000 C   0  0  0  0  0  0  0  0  0
    4.6273   -0.5258    0.0000 O   0  0  0  0  0  0  0  0  0
    6.0562   -0.5258    0.0000 C   0  0  0  0  0  0  0  0  0
    6.7707   -0.1133    0.0000 C   0  0  0  0  0  0  0  0  0
    7.4851   -0.5258    0.0000 C   0  0  0  0  0  0  0  0  0
    7.4851   -1.3508    0.0000 C   0  0  0  0  0  0  0  0  0
    6.7707   -1.7633    0.0000 C   0  0  0  0  0  0  0  0  0
    6.7707   -2.5883    0.0000 O   0  0  0  0  0  0  0  0  0
    7.4851   -3.0008    0.0000 C   0  0  0  0  0  0  0  0  0
    7.4851   -3.8258    0.0000 C   0  0  0  0  0  0  0  0  0
    8.1996   -4.2383    0.0000 F   0  0  0  0  0  0  0  0  0
    6.0562   -1.3508    0.0000 C   0  0  0  0  0  0  0  0  0
    5.3417   -1.7633    0.0000 O   0  0  0  0  0  0  0  0  0
    5.3417   -2.5883    0.0000 C   0  0  0  0  0  0  0  0  0
  1  2  1  0  0  0  0
  2  3  4  0  0  0  0
  2  7  4  0  0  0  0
  3  4  4  0  0  0  0
  4  5  4  0  0  0  0
  5  6  4  0  0  0  0
  5  8  1  0  0  0  0
  6  7  4  0  0  0  0
  8  9  1  0  0  0  0
  9 10  1  0  0  0  0
 10 11  1  0  0  0  0
 10 15  1  0  0  0  0
 11 12  1  0  0  0  0
 12 13  1  0  0  0  0
 13 14  1  0  0  0  0
 13 16  1  0  0  0  0
 14 15  1  0  0  0  0
 16 17  2  0  0  0  0
 16 18  1  0  0  0  0
 18 19  4  0  0  0  0
 18 27  4  0  0  0  0
 19 20  4  0  0  0  0
 20 21  4  0  0  0  0
 21 22  4  0  0  0  0
 22 23  1  0  0  0  0
 22 27  4  0  0  0  0
 23 24  1  0  0  0  0
 24 25  1  0  0  0  0
 25 26  1  0  0  0  0
 27 28  1  0  0  0  0
 28 29  1  0  0  0  0
M  END
>  <Name_Molregno>
498962

>  <5-HT1A>
5.77

>  <5-HT1B>
5.66

>  <5-HT1D>
6.15

>  <5-HT1E>
5

>  <5-HT2C>
6.89

>  <5-HT3>
5

>  <5-HT5>
5.8

>  <5-HT6>
5

>  <5-HT7>
6.68

>  <Alpha-1A>
6.84

>  <Alpha-1B>
6.26

>  <Alpha-2A>
6.06

>  <Alpha-2C>
6.48

>  <DOPAMINE D1>
5.85

>  <DOPAMINE D2>
5.42

>  <DOPAMINE D4>
6.76

>  <DOPAMINE D5>
5.13

>  <Dopamine transporter>
5

>  <HISTAMINE H1>
6.03

>  <HISTAMINE H2>
5.76

>  <HISTAMINE H3>
5

>  <Serotonin transporter>
5.51

$$$$
498964
  Marvin  02231216192D 0   1.00000     0.00000     0

 29 31  0  0  1  0  0  0  0  0999 V2000
    7.7806    5.8078    0.0000 F   0  0  0  0  0  0  0  0  0
    7.0662    5.3953    0.0000 C   0  0  0  0  0  0  0  0  0
    7.0662    4.5703    0.0000 C   0  0  0  0  0  0  0  0  0
    6.3517    4.1578    0.0000 O   0  0  0  0  0  0  0  0  0
    6.3517    3.3328    0.0000 C   0  0  0  0  0  0  0  0  0
    7.0662    2.9203    0.0000 C   0  0  0  0  0  0  0  0  0
    7.0662    2.0953    0.0000 C   0  0  0  0  0  0  0  0  0
    6.3517    1.6828    0.0000 C   0  0  0  0  0  0  0  0  0
    5.6372    2.0953    0.0000 C   0  0  0  0  0  0  0  0  0
    4.9227    1.6828    0.0000 C   0  0  0  0  0  0  0  0  0
    4.2083    2.0953    0.0000 O   0  0  0  0  0  0  0  0  0
    4.9227    0.8578    0.0000 C   0  0  0  0  0  0  0  0  0
    5.6372    0.4453    0.0000 C   0  0  0  0  0  0  0  0  0
    5.6372   -0.3797    0.0000 C   0  0  0  0  0  0  0  0  0
    4.9227   -0.7922    0.0000 N   0  0  0  0  0  0  0  0  0
    4.2083   -0.3797    0.0000 C   0  0  0  0  0  0  0  0  0
    4.2083    0.4453    0.0000 C   0  0  0  0  0  0  0  0  0
    4.9227   -1.6172    0.0000 C   0  0  0  0  0  0  0  0  0
    5.6372   -2.0297    0.0000 C   0  0  0  0  0  0  0  0  0
    5.6372   -2.8547    0.0000 C   0  0  0  0  0  0  0  0  0
    6.3517   -3.2672    0.0000 C   0  0  0  0  0  0  0  0  0
    6.3517   -4.0922    0.0000 C   0  0  0  0  0  0  0  0  0
    5.6372   -4.5047    0.0000 C   0  0  0  0  0  0  0  0  0
    4.9227   -4.0922    0.0000 C   0  0  0  0  0  0  0  0  0
    4.9227   -3.2672    0.0000 C   0  0  0  0  0  0  0  0  0
    5.6372   -5.3297    0.0000 C   0  0  0  0  0  0  0  0  0
    5.6372    2.9203    0.0000 C   0  0  0  0  0  0  0  0  0
    4.9227    3.3328    0.0000 O   0  0  0  0  0  0  0  0  0
    4.2083    2.9203    0.0000 C   0  0  0  0  0  0  0  0  0
  1  2  1  0  0  0  0
  2  3  1  0  0  0  0
  3  4  1  0  0  0  0
  4  5  1  0  0  0  0
  5  6  4  0  0  0  0
  5 27  4  0  0  0  0
  6  7  4  0  0  0  0
  7  8  4  0  0  0  0
  8  9  4  0  0  0  0
  9 10  1  0  0  0  0
  9 27  4  0  0  0  0
 10 11  1  0  0  0  0
 10 12  1  0  0  0  0
 12 13  1  0  0  0  0
 12 17  1  0  0  0  0
 13 14  1  0  0  0  0
 14 15  1  0  0  0  0
 15 16  1  0  0  0  0
 15 18  1  0  0  0  0
 16 17  1  0  0  0  0
 18 19  1  0  0  0  0
 19 20  1  0  0  0  0
 20 21  4  0  0  0  0
 20 25  4  0  0  0  0
 21 22  4  0  0  0  0
 22 23  4  0  0  0  0
 23 24  4  0  0  0  0
 23 26  1  0  0  0  0
 24 25  4  0  0  0  0
 27 28  1  0  0  0  0
 28 29  1  0  0  0  0
M  END
>  <Name_Molregno>
498964

>  <5-HT1A>
5

>  <5-HT1B>
5.31

>  <5-HT1D>
5.84

>  <5-HT1E>
5

>  <5-HT2C>
6.29

>  <5-HT3>
5

>  <5-HT5>
5

>  <5-HT6>
5

>  <5-HT7>
6.3

>  <Alpha-1B>
5

>  <Alpha-2A>
5

>  <Alpha-2C>
6.84

>  <DOPAMINE D1>
5.75

>  <DOPAMINE D2>
5

>  <DOPAMINE D4>
5.57

>  <Dopamine transporter>
5

>  <HISTAMINE H1>
6.36

>  <HISTAMINE H2>
5.94

>  <HISTAMINE H3>
5

>  <Serotonin transporter>
5.58

$$$$
499028
  Marvin  02231216192D 0   1.00000     0.00000     0

 29 31  0  0  0  0  0  0  0  0999 V2000
    7.7806    5.8078    0.0000 F   0  0  0  0  0  0  0  0  0
    7.0662    5.3953    0.0000 C   0  0  0  0  0  0  0  0  0
    7.0662    4.5703    0.0000 C   0  0  0  0  0  0  0  0  0
    6.3517    4.1578    0.0000 O   0  0  0  0  0  0  0  0  0
    6.3517    3.3328    0.0000 C   0  0  0  0  0  0  0  0  0
    7.0662    2.9203    0.0000 C   0  0  0  0  0  0  0  0  0
    7.0662    2.0953    0.0000 C   0  0  0  0  0  0  0  0  0
    6.3517    1.6828    0.0000 C   0  0  0  0  0  0  0  0  0
    5.6372    2.0953    0.0000 C   0  0  0  0  0  0  0  0  0
    4.9227    1.6828    0.0000 C   0  0  0  0  0  0  0  0  0
    4.2083    2.0953    0.0000 O   0  0  0  0  0  0  0  0  0
    4.9227    0.8578    0.0000 C   0  0  0  0  0  0  0  0  0
    5.6372    0.4453    0.0000 C   0  0  0  0  0  0  0  0  0
    5.6372   -0.3797    0.0000 C   0  0  0  0  0  0  0  0  0
    4.9227   -0.7922    0.0000 N   0  0  0  0  0  0  0  0  0
    4.2083   -0.3797    0.0000 C   0  0  0  0  0  0  0  0  0
    4.2083    0.4453    0.0000 C   0  0  0  0  0  0  0  0  0
    4.9227   -1.6172    0.0000 C   0  0  0  0  0  0  0  0  0
    5.6372   -2.0297    0.0000 C   0  0  0  0  0  0  0  0  0
    5.6372   -2.8547    0.0000 C   0  0  0  0  0  0  0  0  0
    6.3517   -3.2672    0.0000 C   0  0  0  0  0  0  0  0  0
    6.3517   -4.0922    0.0000 C   0  0  0  0  0  0  0  0  0
    5.6372   -4.5047    0.0000 C   0  0  0  0  0  0  0  0  0
    4.9227   -4.0922    0.0000 C   0  0  0  0  0  0  0  0  0
    4.9227   -3.2672    0.0000 C   0  0  0  0  0  0  0  0  0
    5.6372   -5.3297    0.0000 C   0  0  0  0  0  0  0  0  0
    5.6372    2.9203    0.0000 C   0  0  0  0  0  0  0  0  0
    4.9227    3.3328    0.0000 O   0  0  0  0  0  0  0  0  0
    4.2083    2.9203    0.0000 C   0  0  0  0  0  0  0  0  0
  1  2  1  0  0  0  0
  2  3  1  0  0  0  0
  3  4  1  0  0  0  0
  4  5  1  0  0  0  0
  5  6  4  0  0  0  0
  5 27  4  0  0  0  0
  6  7  4  0  0  0  0
  7  8  4  0  0  0  0
  8  9  4  0  0  0  0
  9 10  1  0  0  0  0
  9 27  4  0  0  0  0
 10 11  2  0  0  0  0
 10 12  1  0  0  0  0
 12 13  1  0  0  0  0
 12 17  1  0  0  0  0
 13 14  1  0  0  0  0
 14 15  1  0  0  0  0
 15 16  1  0  0  0  0
 15 18  1  0  0  0  0
 16 17  1  0  0  0  0
 18 19  1  0  0  0  0
 19 20  1  0  0  0  0
 20 21  4  0  0  0  0
 20 25  4  0  0  0  0
 21 22  4  0  0  0  0
 22 23  4  0  0  0  0
 23 24  4  0  0  0  0
 23 26  1  0  0  0  0
 24 25  4  0  0  0  0
 27 28  1  0  0  0  0
 28 29  1  0  0  0  0
M  END
>  <Name_Molregno>
499028

>  <5-HT1A>
5.73

>  <5-HT1B>
5.47

>  <5-HT1E>
5

>  <5-HT2C>
6.3

>  <5-HT3>
5

>  <5-HT5>
5.77

>  <5-HT6>
5

>  <5-HT7>
6.14

>  <Alpha-2C>
6.81

>  <DOPAMINE D1>
5.71

>  <DOPAMINE D2>
5

>  <DOPAMINE D4>
6.03

>  <HISTAMINE H1>
6.18

>  <HISTAMINE H2>
6.08

>  <HISTAMINE H3>
5.04

>  <Serotonin transporter>
6

$$$$
500759
  Marvin  02231216192D 0   1.00000     0.00000     0

 37 41  0  0  0  0  0  0  0  0999 V2000
    0.5362   -6.2444    0.0000 Cl  0  0  0  0  0  0  0  0  0
   -0.0158   -5.6313    0.0000 C   0  0  0  0  0  0  0  0  0
    0.2391   -4.8467    0.0000 C   0  0  0  0  0  0  0  0  0
   -0.3129   -4.2336    0.0000 C   0  0  0  0  0  0  0  0  0
   -0.0580   -3.4490    0.0000 N   0  0  0  0  0  0  0  0  0
    0.7266   -3.1941    0.0000 C   0  0  0  0  0  0  0  0  0
    0.7266   -2.3691    0.0000 C   0  0  0  0  0  0  0  0  0
   -0.0580   -2.1141    0.0000 C   0  0  0  0  0  0  0  0  0
   -0.5429   -2.7816    0.0000 C   0  0  0  0  0  0  0  0  0
   -1.3679   -2.7816    0.0000 C   0  0  0  0  0  0  0  0  0
   -1.7804   -3.4960    0.0000 O   0  0  0  0  0  0  0  0  0
   -1.7804   -2.0671    0.0000 N   0  0  0  0  0  0  0  0  0
   -2.6054   -2.0671    0.0000 C   0  0  0  0  0  0  0  0  0
   -3.0179   -1.3526    0.0000 C   0  0  0  0  0  0  0  0  0
   -2.6054   -0.6381    0.0000 C   0  0  0  0  0  0  0  0  0
   -3.3807   -0.3560    0.0000 F   0  0  0  0  0  0  0  0  0
   -2.4621    0.1743    0.0000 F   0  0  0  0  0  0  0  0  0
   -1.7804   -0.6381    0.0000 C   0  0  0  0  0  0  0  0  0
   -1.3679   -1.3526    0.0000 C   0  0  0  0  0  0  0  0  0
    1.4411   -1.9566    0.0000 C   0  0  0  0  0  0  0  0  0
    2.1556   -2.3691    0.0000 C   0  0  0  0  0  0  0  0  0
    2.8701   -1.9566    0.0000 O   0  0  0  0  0  0  0  0  0
    3.5845   -2.3691    0.0000 C   0  0  0  0  0  0  0  0  0
    4.2990   -1.9566    0.0000 C   0  0  0  0  0  0  0  0  0
    5.0135   -2.3691    0.0000 C   0  0  0  0  0  0  0  0  0
    5.0135   -3.1941    0.0000 N   0  0  0  0  0  0  0  0  0
    4.2990   -3.6066    0.0000 C   0  0  0  0  0  0  0  0  0
    3.5845   -3.1941    0.0000 C   0  0  0  0  0  0  0  0  0
    5.7279   -3.6066    0.0000 C   0  0  0  0  0  0  0  0  0
    6.4424   -3.1941    0.0000 C   0  0  0  0  0  0  0  0  0
    5.7279   -4.4316    0.0000 C   0  0  0  0  0  0  0  0  0
    2.1556   -3.1941    0.0000 C   0  0  0  0  0  0  0  0  0
    1.4411   -3.6066    0.0000 C   0  0  0  0  0  0  0  0  0
   -1.1199   -4.4051    0.0000 C   0  0  0  0  0  0  0  0  0
   -1.3748   -5.1898    0.0000 C   0  0  0  0  0  0  0  0  0
   -0.8228   -5.8029    0.0000 C   0  0  0  0  0  0  0  0  0
   -1.0777   -6.5875    0.0000 Cl  0  0  0  0  0  0  0  0  0
  1  2  1  0  0  0  0
  2  3  4  0  0  0  0
  2 36  4  0  0  0  0
  3  4  4  0  0  0  0
  4  5  1  0  0  0  0
  4 34  4  0  0  0  0
  5  6  4  0  0  0  0
  5  9  4  0  0  0  0
  6  7  4  0  0  0  0
  6 33  4  0  0  0  0
  7  8  4  0  0  0  0
  7 20  4  0  0  0  0
  8  9  4  0  0  0  0
  9 10  1  0  0  0  0
 10 11  2  0  0  0  0
 10 12  1  0  0  0  0
 12 13  1  0  0  0  0
 12 19  1  0  0  0  0
 13 14  1  0  0  0  0
 14 15  1  0  0  0  0
 15 16  1  0  0  0  0
 15 17  1  0  0  0  0
 15 18  1  0  0  0  0
 18 19  1  0  0  0  0
 20 21  4  0  0  0  0
 21 22  1  0  0  0  0
 21 32  4  0  0  0  0
 22 23  1  0  0  0  0
 23 24  1  0  0  0  0
 23 28  1  0  0  0  0
 24 25  1  0  0  0  0
 25 26  1  0  0  0  0
 26 27  1  0  0  0  0
 26 29  1  0  0  0  0
 27 28  1  0  0  0  0
 29 30  1  0  0  0  0
 29 31  1  0  0  0  0
 32 33  4  0  0  0  0
 34 35  4  0  0  0  0
 35 36  4  0  0  0  0
 36 37  1  0  0  0  0
M  END
>  <Name_Molregno>
500759

>  <HISTAMINE H3>
9

$$$$
500760
  Marvin  02231216192D 0   1.00000     0.00000     0

 34 37  0  0  0  0  0  0  0  0999 V2000
   -7.4527    2.0519    0.0000 S   0  0  0  0  0  0  0  0  0
   -7.3094    2.8644    0.0000 O   0  0  0  0  0  0  0  0  0
   -8.2279    2.3341    0.0000 O   0  0  0  0  0  0  0  0  0
   -6.6277    2.0519    0.0000 C   0  0  0  0  0  0  0  0  0
   -6.2152    1.3374    0.0000 C   0  0  0  0  0  0  0  0  0
   -6.6277    0.6230    0.0000 N   0  0  0  0  0  0  0  0  0
   -7.4527    0.6230    0.0000 C   0  0  0  0  0  0  0  0  0
   -7.8652    1.3374    0.0000 C   0  0  0  0  0  0  0  0  0
   -6.2152   -0.0915    0.0000 C   0  0  0  0  0  0  0  0  0
   -6.6277   -0.8060    0.0000 O   0  0  0  0  0  0  0  0  0
   -5.3902   -0.0915    0.0000 C   0  0  0  0  0  0  0  0  0
   -4.9052   -0.7589    0.0000 N   0  0  0  0  0  0  0  0  0
   -4.1206   -0.5040    0.0000 C   0  0  0  0  0  0  0  0  0
   -4.1206    0.3210    0.0000 C   0  0  0  0  0  0  0  0  0
   -4.9052    0.5759    0.0000 C   0  0  0  0  0  0  0  0  0
   -3.4061    0.7335    0.0000 C   0  0  0  0  0  0  0  0  0
   -2.6917    0.3210    0.0000 C   0  0  0  0  0  0  0  0  0
   -1.9772    0.7335    0.0000 O   0  0  0  0  0  0  0  0  0
   -1.2627    0.3210    0.0000 C   0  0  0  0  0  0  0  0  0
   -0.5483    0.7335    0.0000 C   0  0  0  0  0  0  0  0  0
    0.1662    0.3210    0.0000 C   0  0  0  0  0  0  0  0  0
    0.1662   -0.5040    0.0000 N   0  0  0  0  0  0  0  0  0
   -0.5483   -0.9165    0.0000 C   0  0  0  0  0  0  0  0  0
   -1.2627   -0.5040    0.0000 C   0  0  0  0  0  0  0  0  0
    0.8807   -0.9165    0.0000 C   0  0  0  0  0  0  0  0  0
    1.5952   -0.5040    0.0000 C   0  0  0  0  0  0  0  0  0
    0.8807   -1.7415    0.0000 C   0  0  0  0  0  0  0  0  0
   -2.6917   -0.5040    0.0000 C   0  0  0  0  0  0  0  0  0
   -3.4061   -0.9165    0.0000 C   0  0  0  0  0  0  0  0  0
   -5.1602   -1.5436    0.0000 C   0  0  0  0  0  0  0  0  0
   -5.9671   -1.7151    0.0000 C   0  0  0  0  0  0  0  0  0
   -6.1387   -0.9081    0.0000 F   0  0  0  0  0  0  0  0  0
   -5.7956   -2.5221    0.0000 F   0  0  0  0  0  0  0  0  0
   -6.7741   -1.8866    0.0000 F   0  0  0  0  0  0  0  0  0
  1  2  2  0  0  0  0
  1  3  2  0  0  0  0
  1  4  1  0  0  0  0
  1  8  1  0  0  0  0
  4  5  1  0  0  0  0
  5  6  1  0  0  0  0
  6  7  1  0  0  0  0
  6  9  1  0  0  0  0
  7  8  1  0  0  0  0
  9 10  2  0  0  0  0
  9 11  1  0  0  0  0
 11 12  4  0  0  0  0
 11 15  4  0  0  0  0
 12 13  4  0  0  0  0
 12 30  1  0  0  0  0
 13 14  4  0  0  0  0
 13 29  4  0  0  0  0
 14 15  4  0  0  0  0
 14 16  4  0  0  0  0
 16 17  4  0  0  0  0
 17 18  1  0  0  0  0
 17 28  4  0  0  0  0
 18 19  1  0  0  0  0
 19 20  1  0  0  0  0
 19 24  1  0  0  0  0
 20 21  1  0  0  0  0
 21 22  1  0  0  0  0
 22 23  1  0  0  0  0
 22 25  1  0  0  0  0
 23 24  1  0  0  0  0
 25 26  1  0  0  0  0
 25 27  1  0  0  0  0
 28 29  4  0  0  0  0
 30 31  1  0  0  0  0
 31 32  1  0  0  0  0
 31 33  1  0  0  0  0
 31 34  1  0  0  0  0
M  END
>  <Name_Molregno>
500760

>  <HISTAMINE H3>
7.96

$$$$
500761
  Marvin  02231216192D 0   1.00000     0.00000     0

 33 37  0  0  0  0  0  0  0  0999 V2000
   -0.3180   -0.6467    0.0000 F   0  0  0  0  0  0  0  0  0
   -0.8701   -0.0336    0.0000 C   0  0  0  0  0  0  0  0  0
   -1.4832   -0.5857    0.0000 F   0  0  0  0  0  0  0  0  0
   -0.2570    0.5184    0.0000 F   0  0  0  0  0  0  0  0  0
   -1.4221    0.5795    0.0000 C   0  0  0  0  0  0  0  0  0
   -1.1672    1.3641    0.0000 N   0  0  0  0  0  0  0  0  0
   -0.3825    1.6190    0.0000 C   0  0  0  0  0  0  0  0  0
   -0.3825    2.4440    0.0000 C   0  0  0  0  0  0  0  0  0
   -1.1672    2.6990    0.0000 C   0  0  0  0  0  0  0  0  0
   -1.6521    2.0315    0.0000 C   0  0  0  0  0  0  0  0  0
   -2.4771    2.0315    0.0000 C   0  0  0  0  0  0  0  0  0
   -2.8896    2.7460    0.0000 O   0  0  0  0  0  0  0  0  0
   -2.8896    1.3170    0.0000 N   0  0  0  0  0  0  0  0  0
   -2.4771    0.6026    0.0000 C   0  0  0  0  0  0  0  0  0
   -2.8896   -0.1119    0.0000 C   0  0  0  0  0  0  0  0  0
   -3.7146   -0.1119    0.0000 O   0  0  0  0  0  0  0  0  0
   -4.1271    0.6026    0.0000 C   0  0  0  0  0  0  0  0  0
   -3.7146    1.3170    0.0000 C   0  0  0  0  0  0  0  0  0
    0.3319    2.8565    0.0000 C   0  0  0  0  0  0  0  0  0
    1.0464    2.4440    0.0000 C   0  0  0  0  0  0  0  0  0
    1.7609    2.8565    0.0000 O   0  0  0  0  0  0  0  0  0
    2.4754    2.4440    0.0000 C   0  0  0  0  0  0  0  0  0
    3.1898    2.8565    0.0000 C   0  0  0  0  0  0  0  0  0
    3.9043    2.4440    0.0000 C   0  0  0  0  0  0  0  0  0
    3.9043    1.6190    0.0000 N   0  0  0  0  0  0  0  0  0
    3.1898    1.2065    0.0000 C   0  0  0  0  0  0  0  0  0
    2.4754    1.6190    0.0000 C   0  0  0  0  0  0  0  0  0
    4.6188    1.2065    0.0000 C   0  0  0  0  0  0  0  0  0
    5.4157    1.4200    0.0000 C   0  0  0  0  0  0  0  0  0
    5.6292    0.6231    0.0000 C   0  0  0  0  0  0  0  0  0
    4.8323    0.4096    0.0000 C   0  0  0  0  0  0  0  0  0
    1.0464    1.6190    0.0000 C   0  0  0  0  0  0  0  0  0
    0.3319    1.2065    0.0000 C   0  0  0  0  0  0  0  0  0
  1  2  1  0  0  0  0
  2  3  1  0  0  0  0
  2  4  1  0  0  0  0
  2  5  1  0  0  0  0
  5  6  1  0  0  0  0
  6  7  4  0  0  0  0
  6 10  4  0  0  0  0
  7  8  4  0  0  0  0
  7 33  4  0  0  0  0
  8  9  4  0  0  0  0
  8 19  4  0  0  0  0
  9 10  4  0  0  0  0
 10 11  1  0  0  0  0
 11 12  2  0  0  0  0
 11 13  1  0  0  0  0
 13 14  1  0  0  0  0
 13 18  1  0  0  0  0
 14 15  1  0  0  0  0
 15 16  1  0  0  0  0
 16 17  1  0  0  0  0
 17 18  1  0  0  0  0
 19 20  4  0  0  0  0
 20 21  1  0  0  0  0
 20 32  4  0  0  0  0
 21 22  1  0  0  0  0
 22 23  1  0  0  0  0
 22 27  1  0  0  0  0
 23 24  1  0  0  0  0
 24 25  1  0  0  0  0
 25 26  1  0  0  0  0
 25 28  1  0  0  0  0
 26 27  1  0  0  0  0
 28 29  1  0  0  0  0
 28 31  1  0  0  0  0
 29 30  1  0  0  0  0
 30 31  1  0  0  0  0
 32 33  4  0  0  0  0
M  END
>  <Name_Molregno>
500761

>  <HISTAMINE H3>
9

$$$$
500762
  Marvin  02231216192D 0   1.00000     0.00000     0

 33 37  0  0  0  0  0  0  0  0999 V2000
   -0.3180   -0.6467    0.0000 F   0  0  0  0  0  0  0  0  0
   -0.8701   -0.0336    0.0000 C   0  0  0  0  0  0  0  0  0
   -1.4832   -0.5857    0.0000 F   0  0  0  0  0  0  0  0  0
   -0.2570    0.5184    0.0000 F   0  0  0  0  0  0  0  0  0
   -1.4221    0.5795    0.0000 C   0  0  0  0  0  0  0  0  0
   -1.1672    1.3641    0.0000 N   0  0  0  0  0  0  0  0  0
   -0.3825    1.6190    0.0000 C   0  0  0  0  0  0  0  0  0
   -0.3825    2.4440    0.0000 C   0  0  0  0  0  0  0  0  0
   -1.1672    2.6990    0.0000 C   0  0  0  0  0  0  0  0  0
   -1.6521    2.0315    0.0000 C   0  0  0  0  0  0  0  0  0
   -2.4771    2.0315    0.0000 C   0  0  0  0  0  0  0  0  0
   -2.8896    2.7460    0.0000 O   0  0  0  0  0  0  0  0  0
   -2.8896    1.3170    0.0000 N   0  0  0  0  0  0  0  0  0
   -2.4771    0.6026    0.0000 C   0  0  0  0  0  0  0  0  0
   -2.8896   -0.1119    0.0000 C   0  0  0  0  0  0  0  0  0
   -3.7146   -0.1119    0.0000 O   0  0  0  0  0  0  0  0  0
   -4.1271    0.6026    0.0000 C   0  0  0  0  0  0  0  0  0
   -3.7146    1.3170    0.0000 C   0  0  0  0  0  0  0  0  0
    0.3319    2.8565    0.0000 C   0  0  0  0  0  0  0  0  0
    1.0464    2.4440    0.0000 C   0  0  0  0  0  0  0  0  0
    1.7609    2.8565    0.0000 O   0  0  0  0  0  0  0  0  0
    2.4754    2.4440    0.0000 C   0  0  0  0  0  0  0  0  0
    3.1898    2.8565    0.0000 C   0  0  0  0  0  0  0  0  0
    3.9043    2.4440    0.0000 C   0  0  0  0  0  0  0  0  0
    3.9043    1.6190    0.0000 N   0  0  0  0  0  0  0  0  0
    3.1898    1.2065    0.0000 C   0  0  0  0  0  0  0  0  0
    2.4754    1.6190    0.0000 C   0  0  0  0  0  0  0  0  0
    4.6188    1.2065    0.0000 C   0  0  0  0  0  0  0  0  0
    5.4157    1.4200    0.0000 C   0  0  0  0  0  0  0  0  0
    5.6292    0.6231    0.0000 O   0  0  0  0  0  0  0  0  0
    4.8323    0.4096    0.0000 C   0  0  0  0  0  0  0  0  0
    1.0464    1.6190    0.0000 C   0  0  0  0  0  0  0  0  0
    0.3319    1.2065    0.0000 C   0  0  0  0  0  0  0  0  0
  1  2  1  0  0  0  0
  2  3  1  0  0  0  0
  2  4  1  0  0  0  0
  2  5  1  0  0  0  0
  5  6  1  0  0  0  0
  6  7  4  0  0  0  0
  6 10  4  0  0  0  0
  7  8  4  0  0  0  0
  7 33  4  0  0  0  0
  8  9  4  0  0  0  0
  8 19  4  0  0  0  0
  9 10  4  0  0  0  0
 10 11  1  0  0  0  0
 11 12  2  0  0  0  0
 11 13  1  0  0  0  0
 13 14  1  0  0  0  0
 13 18  1  0  0  0  0
 14 15  1  0  0  0  0
 15 16  1  0  0  0  0
 16 17  1  0  0  0  0
 17 18  1  0  0  0  0
 19 20  4  0  0  0  0
 20 21  1  0  0  0  0
 20 32  4  0  0  0  0
 21 22  1  0  0  0  0
 22 23  1  0  0  0  0
 22 27  1  0  0  0  0
 23 24  1  0  0  0  0
 24 25  1  0  0  0  0
 25 26  1  0  0  0  0
 25 28  1  0  0  0  0
 26 27  1  0  0  0  0
 28 29  1  0  0  0  0
 28 31  1  0  0  0  0
 29 30  1  0  0  0  0
 30 31  1  0  0  0  0
 32 33  4  0  0  0  0
M  END
>  <Name_Molregno>
500762

>  <HISTAMINE H3>
7.64

$$$$
500825
  Marvin  02231216192D 0   1.00000     0.00000     0

 32 36  0  0  0  0  0  0  0  0999 V2000
   -0.3327   -0.6599    0.0000 F   0  0  0  0  0  0  0  0  0
   -0.8847   -0.0468    0.0000 C   0  0  0  0  0  0  0  0  0
   -1.4978   -0.5988    0.0000 F   0  0  0  0  0  0  0  0  0
   -0.2716    0.5052    0.0000 F   0  0  0  0  0  0  0  0  0
   -1.4367    0.5663    0.0000 C   0  0  0  0  0  0  0  0  0
   -1.1818    1.3509    0.0000 N   0  0  0  0  0  0  0  0  0
   -0.3972    1.6059    0.0000 C   0  0  0  0  0  0  0  0  0
   -0.3972    2.4309    0.0000 C   0  0  0  0  0  0  0  0  0
   -1.1818    2.6858    0.0000 C   0  0  0  0  0  0  0  0  0
   -1.6667    2.0184    0.0000 C   0  0  0  0  0  0  0  0  0
   -2.4917    2.0184    0.0000 C   0  0  0  0  0  0  0  0  0
   -2.9042    2.7328    0.0000 O   0  0  0  0  0  0  0  0  0
   -2.9042    1.3039    0.0000 N   0  0  0  0  0  0  0  0  0
   -2.4917    0.5894    0.0000 C   0  0  0  0  0  0  0  0  0
   -2.9042   -0.1251    0.0000 C   0  0  0  0  0  0  0  0  0
   -3.7292   -0.1251    0.0000 O   0  0  0  0  0  0  0  0  0
   -4.1417    0.5894    0.0000 C   0  0  0  0  0  0  0  0  0
   -3.7292    1.3039    0.0000 C   0  0  0  0  0  0  0  0  0
    0.3173    2.8434    0.0000 C   0  0  0  0  0  0  0  0  0
    1.0318    2.4309    0.0000 C   0  0  0  0  0  0  0  0  0
    1.7462    2.8434    0.0000 O   0  0  0  0  0  0  0  0  0
    2.4607    2.4309    0.0000 C   0  0  0  0  0  0  0  0  0
    3.1752    2.8434    0.0000 C   0  0  0  0  0  0  0  0  0
    3.8897    2.4309    0.0000 C   0  0  0  0  0  0  0  0  0
    3.8897    1.6059    0.0000 N   0  0  0  0  0  0  0  0  0
    3.1752    1.1934    0.0000 C   0  0  0  0  0  0  0  0  0
    2.4607    1.6059    0.0000 C   0  0  0  0  0  0  0  0  0
    4.6041    1.1934    0.0000 C   0  0  0  0  0  0  0  0  0
    5.4291    1.1934    0.0000 C   0  0  0  0  0  0  0  0  0
    5.0166    0.4789    0.0000 C   0  0  0  0  0  0  0  0  0
    1.0318    1.6059    0.0000 C   0  0  0  0  0  0  0  0  0
    0.3173    1.1934    0.0000 C   0  0  0  0  0  0  0  0  0
  1  2  1  0  0  0  0
  2  3  1  0  0  0  0
  2  4  1  0  0  0  0
  2  5  1  0  0  0  0
  5  6  1  0  0  0  0
  6  7  4  0  0  0  0
  6 10  4  0  0  0  0
  7  8  4  0  0  0  0
  7 32  4  0  0  0  0
  8  9  4  0  0  0  0
  8 19  4  0  0  0  0
  9 10  4  0  0  0  0
 10 11  1  0  0  0  0
 11 12  2  0  0  0  0
 11 13  1  0  0  0  0
 13 14  1  0  0  0  0
 13 18  1  0  0  0  0
 14 15  1  0  0  0  0
 15 16  1  0  0  0  0
 16 17  1  0  0  0  0
 17 18  1  0  0  0  0
 19 20  4  0  0  0  0
 20 21  1  0  0  0  0
 20 31  4  0  0  0  0
 21 22  1  0  0  0  0
 22 23  1  0  0  0  0
 22 27  1  0  0  0  0
 23 24  1  0  0  0  0
 24 25  1  0  0  0  0
 25 26  1  0  0  0  0
 25 28  1  0  0  0  0
 26 27  1  0  0  0  0
 28 29  1  0  0  0  0
 28 30  1  0  0  0  0
 29 30  1  0  0  0  0
 31 32  4  0  0  0  0
M  END
>  <Name_Molregno>
500825

>  <HISTAMINE H3>
8.7

$$$$
501017
  Marvin  02231216192D 0   1.00000     0.00000     0

 27 30  0  0  0  0  0  0  0  0999 V2000
   -7.9318   -0.0292    0.0000 O   0  0  0  0  0  0  0  0  0
   -8.3443    0.6853    0.0000 C   0  0  0  0  0  0  0  0  0
   -7.9318    1.3998    0.0000 C   0  0  0  0  0  0  0  0  0
   -7.1068    1.3998    0.0000 N   0  0  0  0  0  0  0  0  0
   -6.6943    0.6853    0.0000 C   0  0  0  0  0  0  0  0  0
   -7.1068   -0.0292    0.0000 C   0  0  0  0  0  0  0  0  0
   -6.6943    2.1143    0.0000 C   0  0  0  0  0  0  0  0  0
   -7.1068    2.8287    0.0000 O   0  0  0  0  0  0  0  0  0
   -5.8693    2.1143    0.0000 C   0  0  0  0  0  0  0  0  0
   -5.3844    1.4468    0.0000 N   0  0  0  0  0  0  0  0  0
   -4.5997    1.7018    0.0000 C   0  0  0  0  0  0  0  0  0
   -4.5997    2.5268    0.0000 C   0  0  0  0  0  0  0  0  0
   -5.3844    2.7817    0.0000 C   0  0  0  0  0  0  0  0  0
   -3.8853    2.9393    0.0000 C   0  0  0  0  0  0  0  0  0
   -3.1708    2.5268    0.0000 C   0  0  0  0  0  0  0  0  0
   -2.4563    2.9393    0.0000 N   0  0  0  0  0  0  0  0  0
   -1.7419    2.5268    0.0000 C   0  0  0  0  0  0  0  0  0
   -1.0274    2.9393    0.0000 C   0  0  0  0  0  0  0  0  0
   -0.3129    2.5268    0.0000 C   0  0  0  0  0  0  0  0  0
   -0.3129    1.7018    0.0000 N   0  0  0  0  0  0  0  0  0
   -1.0274    1.2893    0.0000 C   0  0  0  0  0  0  0  0  0
   -1.7419    1.7018    0.0000 C   0  0  0  0  0  0  0  0  0
    0.4016    1.2893    0.0000 C   0  0  0  0  0  0  0  0  0
    1.1160    1.7018    0.0000 C   0  0  0  0  0  0  0  0  0
    0.4016    0.4643    0.0000 C   0  0  0  0  0  0  0  0  0
   -3.1708    1.7018    0.0000 C   0  0  0  0  0  0  0  0  0
   -3.8853    1.2893    0.0000 C   0  0  0  0  0  0  0  0  0
  1  2  1  0  0  0  0
  1  6  1  0  0  0  0
  2  3  1  0  0  0  0
  3  4  1  0  0  0  0
  4  5  1  0  0  0  0
  4  7  1  0  0  0  0
  5  6  1  0  0  0  0
  7  8  2  0  0  0  0
  7  9  1  0  0  0  0
  9 10  4  0  0  0  0
  9 13  4  0  0  0  0
 10 11  4  0  0  0  0
 11 12  4  0  0  0  0
 11 27  4  0  0  0  0
 12 13  4  0  0  0  0
 12 14  4  0  0  0  0
 14 15  4  0  0  0  0
 15 16  1  0  0  0  0
 15 26  4  0  0  0  0
 16 17  1  0  0  0  0
 17 18  1  0  0  0  0
 17 22  1  0  0  0  0
 18 19  1  0  0  0  0
 19 20  1  0  0  0  0
 20 21  1  0  0  0  0
 20 23  1  0  0  0  0
 21 22  1  0  0  0  0
 23 24  1  0  0  0  0
 23 25  1  0  0  0  0
 26 27  4  0  0  0  0
M  STY  1   1 DAT
M  SAL   1  1  10
M  SDT   1 MRV_IMPLICIT_H                                        
M  SDD   1     0.0000    0.0000    DR    ALL  0       0  
M  SED   1 IMPL_H1
M  END
>  <Name_Molregno>
501017

>  <HISTAMINE H3>
7.19

$$$$
501019
  Marvin  02231216192D 0   1.00000     0.00000     0

 17 18  0  0  0  0  0  0  0  0999 V2000
   -4.3864   -0.3463    0.0000 O   0  0  0  0  0  0  0  0  0
   -3.9739    0.3682    0.0000 C   0  0  0  0  0  0  0  0  0
   -4.3864    1.0827    0.0000 O   0  0  0  0  0  0  0  0  0
   -3.1489    0.3682    0.0000 C   0  0  0  0  0  0  0  0  0
   -2.6640   -0.2992    0.0000 N   0  0  0  0  0  0  0  0  0
   -1.8794   -0.0443    0.0000 C   0  0  0  0  0  0  0  0  0
   -1.8794    0.7807    0.0000 C   0  0  0  0  0  0  0  0  0
   -1.1649    1.1932    0.0000 C   0  0  0  0  0  0  0  0  0
   -0.4504    0.7807    0.0000 C   0  0  0  0  0  0  0  0  0
   -0.4504   -0.0443    0.0000 C   0  0  0  0  0  0  0  0  0
   -1.1649   -0.4568    0.0000 C   0  0  0  0  0  0  0  0  0
    0.2640    1.1932    0.0000 C   0  0  0  0  0  0  0  0  0
    0.9785    0.7807    0.0000 O   0  0  0  0  0  0  0  0  0
    0.2640    2.0182    0.0000 O   0  0  0  0  0  0  0  0  0
   -2.6640    1.0356    0.0000 C   0  0  0  0  0  0  0  0  0
   -5.2114   -0.3463    0.0000 C   0  0  0  0  0  0  0  0  0
   -5.6239   -1.0607    0.0000 C   0  0  0  0  0  0  0  0  0
  1  2  1  0  0  0  0
  1 16  1  0  0  0  0
  2  3  2  0  0  0  0
  2  4  1  0  0  0  0
  4  5  4  0  0  0  0
  4 15  4  0  0  0  0
  5  6  4  0  0  0  0
  6  7  4  0  0  0  0
  6 11  4  0  0  0  0
  7  8  4  0  0  0  0
  7 15  4  0  0  0  0
  8  9  4  0  0  0  0
  9 10  4  0  0  0  0
  9 12  1  0  0  0  0
 10 11  4  0  0  0  0
 12 13  1  0  0  0  0
 12 14  2  0  0  0  0
 16 17  1  0  0  0  0
M  STY  1   1 DAT
M  SAL   1  1   5
M  SDT   1 MRV_IMPLICIT_H                                        
M  SDD   1     0.0000    0.0000    DR    ALL  0       0  
M  SED   1 IMPL_H1
M  END
>  <Name_Molregno>
501019

>  <HISTAMINE H3>
8.7

$$$$
501020
  Marvin  02231216192D 0   1.00000     0.00000     0

 34 38  0  0  0  0  0  0  0  0999 V2000
   -0.3399   -1.1153    0.0000 F   0  0  0  0  0  0  0  0  0
   -0.8919   -0.5022    0.0000 C   0  0  0  0  0  0  0  0  0
   -1.5050   -1.0543    0.0000 F   0  0  0  0  0  0  0  0  0
   -0.2788    0.0498    0.0000 F   0  0  0  0  0  0  0  0  0
   -1.4439    0.1109    0.0000 C   0  0  0  0  0  0  0  0  0
   -1.1890    0.8955    0.0000 N   0  0  0  0  0  0  0  0  0
   -0.4044    1.1504    0.0000 C   0  0  0  0  0  0  0  0  0
   -0.4044    1.9754    0.0000 C   0  0  0  0  0  0  0  0  0
    0.3101    2.3879    0.0000 C   0  0  0  0  0  0  0  0  0
    1.0246    1.9754    0.0000 C   0  0  0  0  0  0  0  0  0
    1.0246    1.1504    0.0000 C   0  0  0  0  0  0  0  0  0
    0.3101    0.7379    0.0000 C   0  0  0  0  0  0  0  0  0
    1.7390    2.3879    0.0000 C   0  0  0  0  0  0  0  0  0
    1.7390    3.2129    0.0000 O   0  0  0  0  0  0  0  0  0
    2.4535    1.9754    0.0000 N   0  0  0  0  0  0  0  0  0
    3.1680    2.3879    0.0000 C   0  0  0  0  0  0  0  0  0
    3.8825    1.9754    0.0000 C   0  0  0  0  0  0  0  0  0
    3.8825    1.1504    0.0000 N   0  0  0  0  0  0  0  0  0
    3.1680    0.7379    0.0000 C   0  0  0  0  0  0  0  0  0
    2.4535    1.1504    0.0000 C   0  0  0  0  0  0  0  0  0
    4.5969    0.7379    0.0000 C   0  0  0  0  0  0  0  0  0
    5.3938    0.9515    0.0000 C   0  0  0  0  0  0  0  0  0
    5.6073    0.1546    0.0000 C   0  0  0  0  0  0  0  0  0
    4.8105   -0.0590    0.0000 C   0  0  0  0  0  0  0  0  0
   -1.1890    2.2304    0.0000 C   0  0  0  0  0  0  0  0  0
   -1.6739    1.5629    0.0000 C   0  0  0  0  0  0  0  0  0
   -2.4989    1.5629    0.0000 C   0  0  0  0  0  0  0  0  0
   -2.9114    0.8485    0.0000 O   0  0  0  0  0  0  0  0  0
   -2.9114    2.2774    0.0000 N   0  0  0  0  0  0  0  0  0
   -3.7364    2.2774    0.0000 C   0  0  0  0  0  0  0  0  0
   -4.1489    2.9919    0.0000 C   0  0  0  0  0  0  0  0  0
   -3.7364    3.7063    0.0000 O   0  0  0  0  0  0  0  0  0
   -2.9114    3.7063    0.0000 C   0  0  0  0  0  0  0  0  0
   -2.4989    2.9919    0.0000 C   0  0  0  0  0  0  0  0  0
  1  2  1  0  0  0  0
  2  3  1  0  0  0  0
  2  4  1  0  0  0  0
  2  5  1  0  0  0  0
  5  6  1  0  0  0  0
  6  7  4  0  0  0  0
  6 26  4  0  0  0  0
  7  8  4  0  0  0  0
  7 12  4  0  0  0  0
  8  9  4  0  0  0  0
  8 25  4  0  0  0  0
  9 10  4  0  0  0  0
 10 11  4  0  0  0  0
 10 13  1  0  0  0  0
 11 12  4  0  0  0  0
 13 14  2  0  0  0  0
 13 15  1  0  0  0  0
 15 16  1  0  0  0  0
 15 20  1  0  0  0  0
 16 17  1  0  0  0  0
 17 18  1  0  0  0  0
 18 19  1  0  0  0  0
 18 21  1  0  0  0  0
 19 20  1  0  0  0  0
 21 22  1  0  0  0  0
 21 24  1  0  0  0  0
 22 23  1  0  0  0  0
 23 24  1  0  0  0  0
 25 26  4  0  0  0  0
 26 27  1  0  0  0  0
 27 28  2  0  0  0  0
 27 29  1  0  0  0  0
 29 30  1  0  0  0  0
 29 34  1  0  0  0  0
 30 31  1  0  0  0  0
 31 32  1  0  0  0  0
 32 33  1  0  0  0  0
 33 34  1  0  0  0  0
M  END
>  <Name_Molregno>
501020

>  <HISTAMINE H3>
8.15

$$$$
501021
  Marvin  02231216192D 0   1.00000     0.00000     0

 28 31  0  0  0  0  0  0  0  0999 V2000
    0.1061    2.1642    0.0000 O   0  0  0  0  0  0  0  0  0
    0.6582    2.7772    0.0000 C   0  0  0  0  0  0  0  0  0
    1.4651    2.6057    0.0000 C   0  0  0  0  0  0  0  0  0
    1.7201    1.8211    0.0000 N   0  0  0  0  0  0  0  0  0
    1.1681    1.2080    0.0000 C   0  0  0  0  0  0  0  0  0
    0.3611    1.3795    0.0000 C   0  0  0  0  0  0  0  0  0
    2.5271    1.6496    0.0000 C   0  0  0  0  0  0  0  0  0
    3.0791    2.2627    0.0000 O   0  0  0  0  0  0  0  0  0
    2.7820    0.8650    0.0000 C   0  0  0  0  0  0  0  0  0
    3.5666    0.6100    0.0000 C   0  0  0  0  0  0  0  0  0
    4.2811    1.0225    0.0000 C   0  0  0  0  0  0  0  0  0
    4.9956    0.6100    0.0000 C   0  0  0  0  0  0  0  0  0
    5.7100    1.0225    0.0000 O   0  0  0  0  0  0  0  0  0
    6.4245    0.6100    0.0000 C   0  0  0  0  0  0  0  0  0
    7.1390    1.0225    0.0000 C   0  0  0  0  0  0  0  0  0
    7.8534    0.6100    0.0000 C   0  0  0  0  0  0  0  0  0
    7.8534   -0.2150    0.0000 N   0  0  0  0  0  0  0  0  0
    7.1390   -0.6275    0.0000 C   0  0  0  0  0  0  0  0  0
    6.4245   -0.2150    0.0000 C   0  0  0  0  0  0  0  0  0
    8.5679   -0.6275    0.0000 C   0  0  0  0  0  0  0  0  0
    9.2824   -0.2150    0.0000 C   0  0  0  0  0  0  0  0  0
    8.5679   -1.4525    0.0000 C   0  0  0  0  0  0  0  0  0
    4.9956   -0.2150    0.0000 C   0  0  0  0  0  0  0  0  0
    4.2811   -0.6275    0.0000 C   0  0  0  0  0  0  0  0  0
    3.5666   -0.2150    0.0000 C   0  0  0  0  0  0  0  0  0
    2.7820   -0.4699    0.0000 N   0  0  0  0  0  0  0  0  0
    2.2971    0.1975    0.0000 C   0  0  0  0  0  0  0  0  0
    1.4721    0.1975    0.0000 C   0  0  0  0  0  0  0  0  0
  1  2  1  0  0  0  0
  1  6  1  0  0  0  0
  2  3  1  0  0  0  0
  3  4  1  0  0  0  0
  4  5  1  0  0  0  0
  4  7  1  0  0  0  0
  5  6  1  0  0  0  0
  7  8  2  0  0  0  0
  7  9  1  0  0  0  0
  9 10  4  0  0  0  0
  9 27  4  0  0  0  0
 10 11  4  0  0  0  0
 10 25  4  0  0  0  0
 11 12  4  0  0  0  0
 12 13  1  0  0  0  0
 12 23  4  0  0  0  0
 13 14  1  0  0  0  0
 14 15  1  0  0  0  0
 14 19  1  0  0  0  0
 15 16  1  0  0  0  0
 16 17  1  0  0  0  0
 17 18  1  0  0  0  0
 17 20  1  0  0  0  0
 18 19  1  0  0  0  0
 20 21  1  0  0  0  0
 20 22  1  0  0  0  0
 23 24  4  0  0  0  0
 24 25  4  0  0  0  0
 25 26  4  0  0  0  0
 26 27  4  0  0  0  0
 27 28  1  0  0  0  0
M  STY  1   1 DAT
M  SAL   1  1  26
M  SDT   1 MRV_IMPLICIT_H                                        
M  SDD   1     0.0000    0.0000    DR    ALL  0       0  
M  SED   1 IMPL_H1
M  END
>  <Name_Molregno>
501021

>  <HISTAMINE H3>
7.07

$$$$
501109
  Marvin  02231216192D 0   1.00000     0.00000     0

 28 31  0  0  0  0  0  0  0  0999 V2000
    0.4291   -3.2979    0.0000 F   0  0  0  0  0  0  0  0  0
   -0.2854   -2.8854    0.0000 C   0  0  0  0  0  0  0  0  0
   -0.9999   -3.2979    0.0000 C   0  0  0  0  0  0  0  0  0
   -1.7143   -2.8854    0.0000 C   0  0  0  0  0  0  0  0  0
   -2.4989   -3.1403    0.0000 C   0  0  0  0  0  0  0  0  0
   -2.9839   -2.4729    0.0000 C   0  0  0  0  0  0  0  0  0
   -2.4989   -1.8054    0.0000 N   0  0  0  0  0  0  0  0  0
   -1.7143   -2.0604    0.0000 C   0  0  0  0  0  0  0  0  0
   -0.9999   -1.6479    0.0000 C   0  0  0  0  0  0  0  0  0
   -0.2854   -2.0604    0.0000 C   0  0  0  0  0  0  0  0  0
    0.4291   -1.6479    0.0000 O   0  0  0  0  0  0  0  0  0
    1.1436   -2.0604    0.0000 C   0  0  0  0  0  0  0  0  0
    1.8580   -1.6479    0.0000 C   0  0  0  0  0  0  0  0  0
    2.5725   -2.0604    0.0000 C   0  0  0  0  0  0  0  0  0
    2.5725   -2.8854    0.0000 N   0  0  0  0  0  0  0  0  0
    1.8580   -3.2979    0.0000 C   0  0  0  0  0  0  0  0  0
    1.1436   -2.8854    0.0000 C   0  0  0  0  0  0  0  0  0
    3.2870   -3.2979    0.0000 C   0  0  0  0  0  0  0  0  0
    3.2870   -4.1229    0.0000 C   0  0  0  0  0  0  0  0  0
    4.0014   -2.8854    0.0000 C   0  0  0  0  0  0  0  0  0
   -3.8089   -2.4729    0.0000 C   0  0  0  0  0  0  0  0  0
   -4.2214   -3.1874    0.0000 O   0  0  0  0  0  0  0  0  0
   -4.2214   -1.7584    0.0000 N   0  0  0  0  0  0  0  0  0
   -5.0464   -1.7584    0.0000 C   0  0  0  0  0  0  0  0  0
   -5.4589   -1.0439    0.0000 C   0  0  0  0  0  0  0  0  0
   -5.0464   -0.3295    0.0000 O   0  0  0  0  0  0  0  0  0
   -4.2214   -0.3295    0.0000 C   0  0  0  0  0  0  0  0  0
   -3.8089   -1.0439    0.0000 C   0  0  0  0  0  0  0  0  0
  1  2  1  0  0  0  0
  2  3  4  0  0  0  0
  2 10  4  0  0  0  0
  3  4  4  0  0  0  0
  4  5  4  0  0  0  0
  4  8  4  0  0  0  0
  5  6  4  0  0  0  0
  6  7  4  0  0  0  0
  6 21  1  0  0  0  0
  7  8  4  0  0  0  0
  8  9  4  0  0  0  0
  9 10  4  0  0  0  0
 10 11  1  0  0  0  0
 11 12  1  0  0  0  0
 12 13  1  0  0  0  0
 12 17  1  0  0  0  0
 13 14  1  0  0  0  0
 14 15  1  0  0  0  0
 15 16  1  0  0  0  0
 15 18  1  0  0  0  0
 16 17  1  0  0  0  0
 18 19  1  0  0  0  0
 18 20  1  0  0  0  0
 21 22  2  0  0  0  0
 21 23  1  0  0  0  0
 23 24  1  0  0  0  0
 23 28  1  0  0  0  0
 24 25  1  0  0  0  0
 25 26  1  0  0  0  0
 26 27  1  0  0  0  0
 27 28  1  0  0  0  0
M  STY  1   1 DAT
M  SAL   1  1   7
M  SDT   1 MRV_IMPLICIT_H                                        
M  SDD   1     0.0000    0.0000    DR    ALL  0       0  
M  SED   1 IMPL_H1
M  END
>  <Name_Molregno>
501109

>  <HISTAMINE H3>
6.44

$$$$
501765
  Marvin  02231216192D 0   1.00000     0.00000     0

 27 30  0  0  0  0  0  0  0  0999 V2000
   -8.0717   -0.7549    0.0000 O   0  0  0  0  0  0  0  0  0
   -8.4842   -0.0404    0.0000 C   0  0  0  0  0  0  0  0  0
   -8.0717    0.6741    0.0000 C   0  0  0  0  0  0  0  0  0
   -7.2467    0.6741    0.0000 N   0  0  0  0  0  0  0  0  0
   -6.8342   -0.0404    0.0000 C   0  0  0  0  0  0  0  0  0
   -7.2467   -0.7549    0.0000 C   0  0  0  0  0  0  0  0  0
   -6.8342    1.3886    0.0000 C   0  0  0  0  0  0  0  0  0
   -7.2467    2.1030    0.0000 O   0  0  0  0  0  0  0  0  0
   -6.0092    1.3886    0.0000 C   0  0  0  0  0  0  0  0  0
   -5.5242    0.7211    0.0000 N   0  0  0  0  0  0  0  0  0
   -4.7396    0.9761    0.0000 C   0  0  0  0  0  0  0  0  0
   -4.7396    1.8011    0.0000 C   0  0  0  0  0  0  0  0  0
   -5.5242    2.0560    0.0000 C   0  0  0  0  0  0  0  0  0
   -4.0251    2.2136    0.0000 C   0  0  0  0  0  0  0  0  0
   -3.3107    1.8011    0.0000 C   0  0  0  0  0  0  0  0  0
   -2.5962    2.2136    0.0000 O   0  0  0  0  0  0  0  0  0
   -2.5962    3.0386    0.0000 C   0  0  0  0  0  0  0  0  0
   -1.8817    3.4511    0.0000 C   0  0  0  0  0  0  0  0  0
   -1.8817    4.2761    0.0000 C   0  0  0  0  0  0  0  0  0
   -1.1673    4.6886    0.0000 N   0  0  0  0  0  0  0  0  0
   -1.1673    5.5136    0.0000 C   0  0  0  0  0  0  0  0  0
   -0.4528    5.9261    0.0000 C   0  0  0  0  0  0  0  0  0
    0.2617    5.5136    0.0000 C   0  0  0  0  0  0  0  0  0
    0.2617    4.6886    0.0000 C   0  0  0  0  0  0  0  0  0
   -0.4528    4.2761    0.0000 C   0  0  0  0  0  0  0  0  0
   -3.3107    0.9761    0.0000 C   0  0  0  0  0  0  0  0  0
   -4.0251    0.5636    0.0000 C   0  0  0  0  0  0  0  0  0
  1  2  1  0  0  0  0
  1  6  1  0  0  0  0
  2  3  1  0  0  0  0
  3  4  1  0  0  0  0
  4  5  1  0  0  0  0
  4  7  1  0  0  0  0
  5  6  1  0  0  0  0
  7  8  2  0  0  0  0
  7  9  1  0  0  0  0
  9 10  4  0  0  0  0
  9 13  4  0  0  0  0
 10 11  4  0  0  0  0
 11 12  4  0  0  0  0
 11 27  4  0  0  0  0
 12 13  4  0  0  0  0
 12 14  4  0  0  0  0
 14 15  4  0  0  0  0
 15 16  1  0  0  0  0
 15 26  4  0  0  0  0
 16 17  1  0  0  0  0
 17 18  1  0  0  0  0
 18 19  1  0  0  0  0
 19 20  1  0  0  0  0
 20 21  1  0  0  0  0
 20 25  1  0  0  0  0
 21 22  1  0  0  0  0
 22 23  1  0  0  0  0
 23 24  1  0  0  0  0
 24 25  1  0  0  0  0
 26 27  4  0  0  0  0
M  STY  1   1 DAT
M  SAL   1  1  10
M  SDT   1 MRV_IMPLICIT_H                                        
M  SDD   1     0.0000    0.0000    DR    ALL  0       0  
M  SED   1 IMPL_H1
M  END
>  <Name_Molregno>
501765

>  <HISTAMINE H3>
7.15

$$$$
501766
  Marvin  02231216192D 0   1.00000     0.00000     0

 27 31  0  0  0  0  0  0  0  0999 V2000
   -7.9797   -3.4785    0.0000 O   0  0  0  0  0  0  0  0  0
   -8.3922   -2.7641    0.0000 C   0  0  0  0  0  0  0  0  0
   -7.9797   -2.0496    0.0000 C   0  0  0  0  0  0  0  0  0
   -7.1547   -2.0496    0.0000 N   0  0  0  0  0  0  0  0  0
   -6.7422   -2.7641    0.0000 C   0  0  0  0  0  0  0  0  0
   -7.1547   -3.4785    0.0000 C   0  0  0  0  0  0  0  0  0
   -6.7422   -1.3351    0.0000 C   0  0  0  0  0  0  0  0  0
   -7.1547   -0.6206    0.0000 O   0  0  0  0  0  0  0  0  0
   -5.9172   -1.3351    0.0000 C   0  0  0  0  0  0  0  0  0
   -5.4323   -2.0026    0.0000 N   0  0  0  0  0  0  0  0  0
   -4.6477   -1.7476    0.0000 C   0  0  0  0  0  0  0  0  0
   -4.6477   -0.9226    0.0000 C   0  0  0  0  0  0  0  0  0
   -5.4323   -0.6677    0.0000 C   0  0  0  0  0  0  0  0  0
   -3.9332   -0.5101    0.0000 C   0  0  0  0  0  0  0  0  0
   -3.2187   -0.9226    0.0000 C   0  0  0  0  0  0  0  0  0
   -2.5042   -0.5101    0.0000 O   0  0  0  0  0  0  0  0  0
   -1.7898   -0.9226    0.0000 C   0  0  0  0  0  0  0  0  0
   -1.0753   -0.5101    0.0000 C   0  0  0  0  0  0  0  0  0
   -0.3608   -0.9226    0.0000 C   0  0  0  0  0  0  0  0  0
   -0.3608   -1.7476    0.0000 N   0  0  0  0  0  0  0  0  0
   -1.0753   -2.1601    0.0000 C   0  0  0  0  0  0  0  0  0
   -1.7898   -1.7476    0.0000 C   0  0  0  0  0  0  0  0  0
    0.3536   -2.1601    0.0000 C   0  0  0  0  0  0  0  0  0
    1.1786   -2.1601    0.0000 C   0  0  0  0  0  0  0  0  0
    0.7661   -2.8746    0.0000 C   0  0  0  0  0  0  0  0  0
   -3.2187   -1.7476    0.0000 C   0  0  0  0  0  0  0  0  0
   -3.9332   -2.1601    0.0000 C   0  0  0  0  0  0  0  0  0
  1  2  1  0  0  0  0
  1  6  1  0  0  0  0
  2  3  1  0  0  0  0
  3  4  1  0  0  0  0
  4  5  1  0  0  0  0
  4  7  1  0  0  0  0
  5  6  1  0  0  0  0
  7  8  2  0  0  0  0
  7  9  1  0  0  0  0
  9 10  4  0  0  0  0
  9 13  4  0  0  0  0
 10 11  4  0  0  0  0
 11 12  4  0  0  0  0
 11 27  4  0  0  0  0
 12 13  4  0  0  0  0
 12 14  4  0  0  0  0
 14 15  4  0  0  0  0
 15 16  1  0  0  0  0
 15 26  4  0  0  0  0
 16 17  1  0  0  0  0
 17 18  1  0  0  0  0
 17 22  1  0  0  0  0
 18 19  1  0  0  0  0
 19 20  1  0  0  0  0
 20 21  1  0  0  0  0
 20 23  1  0  0  0  0
 21 22  1  0  0  0  0
 23 24  1  0  0  0  0
 23 25  1  0  0  0  0
 24 25  1  0  0  0  0
 26 27  4  0  0  0  0
M  STY  1   1 DAT
M  SAL   1  1  10
M  SDT   1 MRV_IMPLICIT_H                                        
M  SDD   1     0.0000    0.0000    DR    ALL  0       0  
M  SED   1 IMPL_H1
M  END
>  <Name_Molregno>
501766

>  <HISTAMINE H3>
8.7

$$$$
501767
  Marvin  02231216192D 0   1.00000     0.00000     0

 28 31  0  0  0  0  0  0  0  0999 V2000
   -8.2402   -0.0385    0.0000 O   0  0  0  0  0  0  0  0  0
   -8.6527    0.6760    0.0000 C   0  0  0  0  0  0  0  0  0
   -8.2402    1.3904    0.0000 C   0  0  0  0  0  0  0  0  0
   -7.4152    1.3904    0.0000 N   0  0  0  0  0  0  0  0  0
   -7.0027    0.6760    0.0000 C   0  0  0  0  0  0  0  0  0
   -7.4152   -0.0385    0.0000 C   0  0  0  0  0  0  0  0  0
   -7.0027    2.1049    0.0000 C   0  0  0  0  0  0  0  0  0
   -7.4152    2.8194    0.0000 O   0  0  0  0  0  0  0  0  0
   -6.1777    2.1049    0.0000 C   0  0  0  0  0  0  0  0  0
   -5.6928    1.4375    0.0000 N   0  0  0  0  0  0  0  0  0
   -4.9082    1.6924    0.0000 C   0  0  0  0  0  0  0  0  0
   -4.9082    2.5174    0.0000 C   0  0  0  0  0  0  0  0  0
   -5.6928    2.7723    0.0000 C   0  0  0  0  0  0  0  0  0
   -4.1937    2.9299    0.0000 C   0  0  0  0  0  0  0  0  0
   -3.4792    2.5174    0.0000 C   0  0  0  0  0  0  0  0  0
   -2.7648    2.9299    0.0000 O   0  0  0  0  0  0  0  0  0
   -2.0503    2.5174    0.0000 C   0  0  0  0  0  0  0  0  0
   -1.3358    2.9299    0.0000 C   0  0  0  0  0  0  0  0  0
   -0.6213    2.5174    0.0000 C   0  0  0  0  0  0  0  0  0
   -0.6213    1.6924    0.0000 N   0  0  0  0  0  0  0  0  0
   -1.3358    1.2799    0.0000 C   0  0  0  0  0  0  0  0  0
   -2.0503    1.6924    0.0000 C   0  0  0  0  0  0  0  0  0
    0.0931    1.2799    0.0000 C   0  0  0  0  0  0  0  0  0
    0.8076    0.8674    0.0000 C   0  0  0  0  0  0  0  0  0
   -0.3194    0.5654    0.0000 C   0  0  0  0  0  0  0  0  0
    0.5056    1.9944    0.0000 C   0  0  0  0  0  0  0  0  0
   -3.4792    1.6924    0.0000 C   0  0  0  0  0  0  0  0  0
   -4.1937    1.2799    0.0000 C   0  0  0  0  0  0  0  0  0
  1  2  1  0  0  0  0
  1  6  1  0  0  0  0
  2  3  1  0  0  0  0
  3  4  1  0  0  0  0
  4  5  1  0  0  0  0
  4  7  1  0  0  0  0
  5  6  1  0  0  0  0
  7  8  2  0  0  0  0
  7  9  1  0  0  0  0
  9 10  4  0  0  0  0
  9 13  4  0  0  0  0
 10 11  4  0  0  0  0
 11 12  4  0  0  0  0
 11 28  4  0  0  0  0
 12 13  4  0  0  0  0
 12 14  4  0  0  0  0
 14 15  4  0  0  0  0
 15 16  1  0  0  0  0
 15 27  4  0  0  0  0
 16 17  1  0  0  0  0
 17 18  1  0  0  0  0
 17 22  1  0  0  0  0
 18 19  1  0  0  0  0
 19 20  1  0  0  0  0
 20 21  1  0  0  0  0
 20 23  1  0  0  0  0
 21 22  1  0  0  0  0
 23 24  1  0  0  0  0
 23 25  1  0  0  0  0
 23 26  1  0  0  0  0
 27 28  4  0  0  0  0
M  STY  1   1 DAT
M  SAL   1  1  10
M  SDT   1 MRV_IMPLICIT_H                                        
M  SDD   1     0.0000    0.0000    DR    ALL  0       0  
M  SED   1 IMPL_H1
M  END
>  <Name_Molregno>
501767

>  <HISTAMINE H3>
8.4

$$$$
501768
  Marvin  02231216192D 0   1.00000     0.00000     0

 27 30  0  0  0  0  0  0  0  0999 V2000
   -7.9318   -0.0292    0.0000 O   0  0  0  0  0  0  0  0  0
   -8.3443    0.6853    0.0000 C   0  0  0  0  0  0  0  0  0
   -7.9318    1.3998    0.0000 C   0  0  0  0  0  0  0  0  0
   -7.1068    1.3998    0.0000 N   0  0  0  0  0  0  0  0  0
   -6.6943    0.6853    0.0000 C   0  0  0  0  0  0  0  0  0
   -7.1068   -0.0292    0.0000 C   0  0  0  0  0  0  0  0  0
   -6.6943    2.1143    0.0000 C   0  0  0  0  0  0  0  0  0
   -7.1068    2.8287    0.0000 O   0  0  0  0  0  0  0  0  0
   -5.8693    2.1143    0.0000 C   0  0  0  0  0  0  0  0  0
   -5.3844    1.4468    0.0000 N   0  0  0  0  0  0  0  0  0
   -4.5997    1.7018    0.0000 C   0  0  0  0  0  0  0  0  0
   -4.5997    2.5268    0.0000 C   0  0  0  0  0  0  0  0  0
   -5.3844    2.7817    0.0000 C   0  0  0  0  0  0  0  0  0
   -3.8853    2.9393    0.0000 C   0  0  0  0  0  0  0  0  0
   -3.1708    2.5268    0.0000 C   0  0  0  0  0  0  0  0  0
   -2.4563    2.9393    0.0000 O   0  0  0  0  0  0  0  0  0
   -1.7419    2.5268    0.0000 C   0  0  0  0  0  0  0  0  0
   -1.0274    2.9393    0.0000 C   0  0  0  0  0  0  0  0  0
   -0.3129    2.5268    0.0000 C   0  0  0  0  0  0  0  0  0
   -0.3129    1.7018    0.0000 N   0  0  0  0  0  0  0  0  0
   -1.0274    1.2893    0.0000 C   0  0  0  0  0  0  0  0  0
   -1.7419    1.7018    0.0000 C   0  0  0  0  0  0  0  0  0
    0.4016    1.2893    0.0000 C   0  0  0  0  0  0  0  0  0
    1.1160    1.7018    0.0000 C   0  0  0  0  0  0  0  0  0
    0.4016    0.4643    0.0000 C   0  0  0  0  0  0  0  0  0
   -3.1708    1.7018    0.0000 C   0  0  0  0  0  0  0  0  0
   -3.8853    1.2893    0.0000 C   0  0  0  0  0  0  0  0  0
  1  2  1  0  0  0  0
  1  6  1  0  0  0  0
  2  3  1  0  0  0  0
  3  4  1  0  0  0  0
  4  5  1  0  0  0  0
  4  7  1  0  0  0  0
  5  6  1  0  0  0  0
  7  8  2  0  0  0  0
  7  9  1  0  0  0  0
  9 10  4  0  0  0  0
  9 13  4  0  0  0  0
 10 11  4  0  0  0  0
 11 12  4  0  0  0  0
 11 27  4  0  0  0  0
 12 13  4  0  0  0  0
 12 14  4  0  0  0  0
 14 15  4  0  0  0  0
 15 16  1  0  0  0  0
 15 26  4  0  0  0  0
 16 17  1  0  0  0  0
 17 18  1  0  0  0  0
 17 22  1  0  0  0  0
 18 19  1  0  0  0  0
 19 20  1  0  0  0  0
 20 21  1  0  0  0  0
 20 23  1  0  0  0  0
 21 22  1  0  0  0  0
 23 24  1  0  0  0  0
 23 25  1  0  0  0  0
 26 27  4  0  0  0  0
M  STY  1   1 DAT
M  SAL   1  1  10
M  SDT   1 MRV_IMPLICIT_H                                        
M  SDD   1     0.0000    0.0000    DR    ALL  0       0  
M  SED   1 IMPL_H1
M  END
>  <Name_Molregno>
501768

>  <HISTAMINE H3>
8.3

$$$$
501769
  Marvin  02231216192D 0   1.00000     0.00000     0

 28 31  0  0  0  0  0  0  0  0999 V2000
   -0.3634   -0.9824    0.0000 O   0  0  0  0  0  0  0  0  0
    0.3510   -0.5699    0.0000 C   0  0  0  0  0  0  0  0  0
    0.3510    0.2551    0.0000 C   0  0  0  0  0  0  0  0  0
    1.0655    0.6676    0.0000 C   0  0  0  0  0  0  0  0  0
    1.7800    0.2551    0.0000 N   0  0  0  0  0  0  0  0  0
    1.7800   -0.5699    0.0000 C   0  0  0  0  0  0  0  0  0
    1.0655   -0.9824    0.0000 C   0  0  0  0  0  0  0  0  0
    2.4944    0.6676    0.0000 C   0  0  0  0  0  0  0  0  0
    3.2089    0.2551    0.0000 C   0  0  0  0  0  0  0  0  0
    2.4944    1.4926    0.0000 C   0  0  0  0  0  0  0  0  0
   -1.0779   -0.5699    0.0000 C   0  0  0  0  0  0  0  0  0
   -1.7924   -0.9824    0.0000 C   0  0  0  0  0  0  0  0  0
   -2.5068   -0.5699    0.0000 C   0  0  0  0  0  0  0  0  0
   -3.2915   -0.8249    0.0000 C   0  0  0  0  0  0  0  0  0
   -3.7764   -0.1574    0.0000 C   0  0  0  0  0  0  0  0  0
   -3.2915    0.5100    0.0000 N   0  0  0  0  0  0  0  0  0
   -2.5068    0.2551    0.0000 C   0  0  0  0  0  0  0  0  0
   -1.7924    0.6676    0.0000 C   0  0  0  0  0  0  0  0  0
   -1.0779    0.2551    0.0000 C   0  0  0  0  0  0  0  0  0
   -4.6014   -0.1574    0.0000 C   0  0  0  0  0  0  0  0  0
   -5.0139   -0.8719    0.0000 O   0  0  0  0  0  0  0  0  0
   -5.0139    0.5570    0.0000 N   0  0  0  0  0  0  0  0  0
   -5.8366    0.4954    0.0000 C   0  0  0  0  0  0  0  0  0
   -6.3977    1.1002    0.0000 C   0  0  0  0  0  0  0  0  0
   -6.2748    1.9159    0.0000 C   0  0  0  0  0  0  0  0  0
   -5.5603    2.3284    0.0000 C   0  0  0  0  0  0  0  0  0
   -4.7923    2.0270    0.0000 C   0  0  0  0  0  0  0  0  0
   -4.5492    1.2387    0.0000 C   0  0  0  0  0  0  0  0  0
  1  2  1  0  0  0  0
  1 11  1  0  0  0  0
  2  3  1  0  0  0  0
  2  7  1  0  0  0  0
  3  4  1  0  0  0  0
  4  5  1  0  0  0  0
  5  6  1  0  0  0  0
  5  8  1  0  0  0  0
  6  7  1  0  0  0  0
  8  9  1  0  0  0  0
  8 10  1  0  0  0  0
 11 12  4  0  0  0  0
 11 19  4  0  0  0  0
 12 13  4  0  0  0  0
 13 14  4  0  0  0  0
 13 17  4  0  0  0  0
 14 15  4  0  0  0  0
 15 16  4  0  0  0  0
 15 20  1  0  0  0  0
 16 17  4  0  0  0  0
 17 18  4  0  0  0  0
 18 19  4  0  0  0  0
 20 21  2  0  0  0  0
 20 22  1  0  0  0  0
 22 23  1  0  0  0  0
 22 28  1  0  0  0  0
 23 24  1  0  0  0  0
 24 25  1  0  0  0  0
 25 26  1  0  0  0  0
 26 27  1  0  0  0  0
 27 28  1  0  0  0  0
M  STY  1   1 DAT
M  SAL   1  1  16
M  SDT   1 MRV_IMPLICIT_H                                        
M  SDD   1     0.0000    0.0000    DR    ALL  0       0  
M  SED   1 IMPL_H1
M  END
>  <Name_Molregno>
501769

>  <HISTAMINE H3>
8.22

$$$$
501834
  Marvin  02231216192D 0   1.00000     0.00000     0

 29 32  0  0  0  0  0  0  0  0999 V2000
   -0.3858   -1.6352    0.0000 O   0  0  0  0  0  0  0  0  0
    0.3287   -1.2227    0.0000 C   0  0  0  0  0  0  0  0  0
    0.3287   -0.3977    0.0000 C   0  0  0  0  0  0  0  0  0
    1.0431    0.0148    0.0000 C   0  0  0  0  0  0  0  0  0
    1.7576   -0.3977    0.0000 N   0  0  0  0  0  0  0  0  0
    1.7576   -1.2227    0.0000 C   0  0  0  0  0  0  0  0  0
    1.0431   -1.6352    0.0000 C   0  0  0  0  0  0  0  0  0
    2.4721    0.0148    0.0000 C   0  0  0  0  0  0  0  0  0
    3.1865   -0.3977    0.0000 C   0  0  0  0  0  0  0  0  0
    2.4721    0.8398    0.0000 C   0  0  0  0  0  0  0  0  0
   -1.1003   -1.2227    0.0000 C   0  0  0  0  0  0  0  0  0
   -1.8148   -1.6352    0.0000 C   0  0  0  0  0  0  0  0  0
   -2.5292   -1.2227    0.0000 C   0  0  0  0  0  0  0  0  0
   -3.3138   -1.4777    0.0000 C   0  0  0  0  0  0  0  0  0
   -3.7988   -0.8102    0.0000 C   0  0  0  0  0  0  0  0  0
   -3.3138   -0.1428    0.0000 N   0  0  0  0  0  0  0  0  0
   -2.5292   -0.3977    0.0000 C   0  0  0  0  0  0  0  0  0
   -1.8148    0.0148    0.0000 C   0  0  0  0  0  0  0  0  0
   -1.1003   -0.3977    0.0000 C   0  0  0  0  0  0  0  0  0
   -4.6238   -0.8102    0.0000 C   0  0  0  0  0  0  0  0  0
   -5.0363   -1.5247    0.0000 O   0  0  0  0  0  0  0  0  0
   -5.0363   -0.0958    0.0000 N   0  0  0  0  0  0  0  0  0
   -5.8613   -0.0958    0.0000 C   0  0  0  0  0  0  0  0  0
   -6.2738    0.6187    0.0000 C   0  0  0  0  0  0  0  0  0
   -5.8613    1.3332    0.0000 C   0  0  0  0  0  0  0  0  0
   -6.2738    2.0476    0.0000 O   0  0  0  0  0  0  0  0  0
   -7.0988    2.0476    0.0000 C   0  0  0  0  0  0  0  0  0
   -5.0363    1.3332    0.0000 C   0  0  0  0  0  0  0  0  0
   -4.6238    0.6187    0.0000 C   0  0  0  0  0  0  0  0  0
  1  2  1  0  0  0  0
  1 11  1  0  0  0  0
  2  3  1  0  0  0  0
  2  7  1  0  0  0  0
  3  4  1  0  0  0  0
  4  5  1  0  0  0  0
  5  6  1  0  0  0  0
  5  8  1  0  0  0  0
  6  7  1  0  0  0  0
  8  9  1  0  0  0  0
  8 10  1  0  0  0  0
 11 12  4  0  0  0  0
 11 19  4  0  0  0  0
 12 13  4  0  0  0  0
 13 14  4  0  0  0  0
 13 17  4  0  0  0  0
 14 15  4  0  0  0  0
 15 16  4  0  0  0  0
 15 20  1  0  0  0  0
 16 17  4  0  0  0  0
 17 18  4  0  0  0  0
 18 19  4  0  0  0  0
 20 21  2  0  0  0  0
 20 22  1  0  0  0  0
 22 23  1  0  0  0  0
 22 29  1  0  0  0  0
 23 24  1  0  0  0  0
 24 25  1  0  0  0  0
 25 26  1  0  0  0  0
 25 28  1  0  0  0  0
 26 27  1  0  0  0  0
 28 29  1  0  0  0  0
M  STY  1   1 DAT
M  SAL   1  1  16
M  SDT   1 MRV_IMPLICIT_H                                        
M  SDD   1     0.0000    0.0000    DR    ALL  0       0  
M  SED   1 IMPL_H1
M  END
>  <Name_Molregno>
501834

>  <HISTAMINE H3>
8.05

$$$$
501835
  Marvin  02231216192D 0   1.00000     0.00000     0

 27 30  0  0  1  0  0  0  0  0999 V2000
   -0.3471   -1.4703    0.0000 O   0  0  0  0  0  0  0  0  0
    0.3674   -1.0578    0.0000 C   0  0  0  0  0  0  0  0  0
    0.3674   -0.2328    0.0000 C   0  0  0  0  0  0  0  0  0
    1.0818    0.1797    0.0000 C   0  0  0  0  0  0  0  0  0
    1.7963   -0.2328    0.0000 N   0  0  0  0  0  0  0  0  0
    1.7963   -1.0578    0.0000 C   0  0  0  0  0  0  0  0  0
    1.0818   -1.4703    0.0000 C   0  0  0  0  0  0  0  0  0
    2.5108    0.1797    0.0000 C   0  0  0  0  0  0  0  0  0
    3.2252   -0.2328    0.0000 C   0  0  0  0  0  0  0  0  0
    2.5108    1.0047    0.0000 C   0  0  0  0  0  0  0  0  0
   -1.0616   -1.0578    0.0000 C   0  0  0  0  0  0  0  0  0
   -1.7760   -1.4703    0.0000 C   0  0  0  0  0  0  0  0  0
   -2.4905   -1.0578    0.0000 C   0  0  0  0  0  0  0  0  0
   -3.2751   -1.3127    0.0000 C   0  0  0  0  0  0  0  0  0
   -3.7601   -0.6453    0.0000 C   0  0  0  0  0  0  0  0  0
   -3.2751    0.0221    0.0000 N   0  0  0  0  0  0  0  0  0
   -2.4905   -0.2328    0.0000 C   0  0  0  0  0  0  0  0  0
   -1.7760    0.1797    0.0000 C   0  0  0  0  0  0  0  0  0
   -1.0616   -0.2328    0.0000 C   0  0  0  0  0  0  0  0  0
   -4.5851   -0.6453    0.0000 C   0  0  0  0  0  0  0  0  0
   -4.9976   -1.3598    0.0000 O   0  0  0  0  0  0  0  0  0
   -4.9976    0.0692    0.0000 N   0  0  0  0  0  0  0  0  0
   -5.8180    0.1554    0.0000 C   0  0  0  0  0  0  0  0  0
   -5.9896    0.9624    0.0000 C   0  0  0  0  0  0  0  0  0
   -6.7432    1.2979    0.0000 O   0  0  0  0  0  0  0  0  0
   -5.2751    1.3749    0.0000 C   0  0  0  0  0  0  0  0  0
   -4.6620    0.8229    0.0000 C   0  0  0  0  0  0  0  0  0
  1  2  1  0  0  0  0
  1 11  1  0  0  0  0
  2  3  1  0  0  0  0
  2  7  1  0  0  0  0
  3  4  1  0  0  0  0
  4  5  1  0  0  0  0
  5  6  1  0  0  0  0
  5  8  1  0  0  0  0
  6  7  1  0  0  0  0
  8  9  1  0  0  0  0
  8 10  1  0  0  0  0
 11 12  4  0  0  0  0
 11 19  4  0  0  0  0
 12 13  4  0  0  0  0
 13 14  4  0  0  0  0
 13 17  4  0  0  0  0
 14 15  4  0  0  0  0
 15 16  4  0  0  0  0
 15 20  1  0  0  0  0
 16 17  4  0  0  0  0
 17 18  4  0  0  0  0
 18 19  4  0  0  0  0
 20 21  2  0  0  0  0
 20 22  1  0  0  0  0
 22 23  1  0  0  0  0
 22 27  1  0  0  0  0
 23 24  1  0  0  0  0
 24 25  1  0  0  0  0
 24 26  1  0  0  0  0
 26 27  1  0  0  0  0
M  STY  1   1 DAT
M  SAL   1  1  16
M  SDT   1 MRV_IMPLICIT_H                                        
M  SDD   1     0.0000    0.0000    DR    ALL  0       0  
M  SED   1 IMPL_H1
M  END
>  <Name_Molregno>
501835

>  <HISTAMINE H3>
8.1

$$$$
501836
  Marvin  02231216192D 0   1.00000     0.00000     0

 29 32  0  0  0  0  0  0  0  0999 V2000
    1.5819   -3.5916    0.0000 F   0  0  0  0  0  0  0  0  0
    1.7252   -2.7791    0.0000 C   0  0  0  0  0  0  0  0  0
    2.5004   -3.0613    0.0000 F   0  0  0  0  0  0  0  0  0
    0.9002   -2.7791    0.0000 C   0  0  0  0  0  0  0  0  0
    0.4877   -2.0646    0.0000 C   0  0  0  0  0  0  0  0  0
    0.9002   -1.3502    0.0000 C   0  0  0  0  0  0  0  0  0
    1.7252   -1.3502    0.0000 N   0  0  0  0  0  0  0  0  0
    2.1377   -2.0646    0.0000 C   0  0  0  0  0  0  0  0  0
    2.1377   -0.6357    0.0000 C   0  0  0  0  0  0  0  0  0
    1.7252    0.0788    0.0000 O   0  0  0  0  0  0  0  0  0
    2.9627   -0.6357    0.0000 C   0  0  0  0  0  0  0  0  0
    3.4476   -1.3031    0.0000 N   0  0  0  0  0  0  0  0  0
    4.2322   -1.0482    0.0000 C   0  0  0  0  0  0  0  0  0
    4.2322   -0.2232    0.0000 C   0  0  0  0  0  0  0  0  0
    3.4476    0.0317    0.0000 C   0  0  0  0  0  0  0  0  0
    4.9467    0.1893    0.0000 C   0  0  0  0  0  0  0  0  0
    5.6612   -0.2232    0.0000 C   0  0  0  0  0  0  0  0  0
    6.3756    0.1893    0.0000 O   0  0  0  0  0  0  0  0  0
    7.0901   -0.2232    0.0000 C   0  0  0  0  0  0  0  0  0
    7.8046    0.1893    0.0000 C   0  0  0  0  0  0  0  0  0
    8.5190   -0.2232    0.0000 C   0  0  0  0  0  0  0  0  0
    8.5190   -1.0482    0.0000 N   0  0  0  0  0  0  0  0  0
    7.8046   -1.4607    0.0000 C   0  0  0  0  0  0  0  0  0
    7.0901   -1.0482    0.0000 C   0  0  0  0  0  0  0  0  0
    9.2335   -1.4607    0.0000 C   0  0  0  0  0  0  0  0  0
    9.9480   -1.0482    0.0000 C   0  0  0  0  0  0  0  0  0
    9.2335   -2.2857    0.0000 C   0  0  0  0  0  0  0  0  0
    5.6612   -1.0482    0.0000 C   0  0  0  0  0  0  0  0  0
    4.9467   -1.4607    0.0000 C   0  0  0  0  0  0  0  0  0
  1  2  1  0  0  0  0
  2  3  1  0  0  0  0
  2  4  1  0  0  0  0
  2  8  1  0  0  0  0
  4  5  1  0  0  0  0
  5  6  1  0  0  0  0
  6  7  1  0  0  0  0
  7  8  1  0  0  0  0
  7  9  1  0  0  0  0
  9 10  2  0  0  0  0
  9 11  1  0  0  0  0
 11 12  4  0  0  0  0
 11 15  4  0  0  0  0
 12 13  4  0  0  0  0
 13 14  4  0  0  0  0
 13 29  4  0  0  0  0
 14 15  4  0  0  0  0
 14 16  4  0  0  0  0
 16 17  4  0  0  0  0
 17 18  1  0  0  0  0
 17 28  4  0  0  0  0
 18 19  1  0  0  0  0
 19 20  1  0  0  0  0
 19 24  1  0  0  0  0
 20 21  1  0  0  0  0
 21 22  1  0  0  0  0
 22 23  1  0  0  0  0
 22 25  1  0  0  0  0
 23 24  1  0  0  0  0
 25 26  1  0  0  0  0
 25 27  1  0  0  0  0
 28 29  4  0  0  0  0
M  STY  1   1 DAT
M  SAL   1  1  12
M  SDT   1 MRV_IMPLICIT_H                                        
M  SDD   1     0.0000    0.0000    DR    ALL  0       0  
M  SED   1 IMPL_H1
M  END
>  <Name_Molregno>
501836

>  <HISTAMINE H3>
8.7

$$$$
501837
  Marvin  02231216192D 0   1.00000     0.00000     0

 29 32  0  0  0  0  0  0  0  0999 V2000
    0.2293   -2.3355    0.0000 F   0  0  0  0  0  0  0  0  0
    1.0046   -2.0534    0.0000 C   0  0  0  0  0  0  0  0  0
    1.1478   -2.8658    0.0000 F   0  0  0  0  0  0  0  0  0
    0.5921   -1.3389    0.0000 C   0  0  0  0  0  0  0  0  0
    1.0046   -0.6244    0.0000 C   0  0  0  0  0  0  0  0  0
    1.8296   -0.6244    0.0000 N   0  0  0  0  0  0  0  0  0
    2.2421   -1.3389    0.0000 C   0  0  0  0  0  0  0  0  0
    1.8296   -2.0534    0.0000 C   0  0  0  0  0  0  0  0  0
    2.2421    0.0901    0.0000 C   0  0  0  0  0  0  0  0  0
    1.8296    0.8045    0.0000 O   0  0  0  0  0  0  0  0  0
    3.0671    0.0901    0.0000 C   0  0  0  0  0  0  0  0  0
    3.5520   -0.5774    0.0000 N   0  0  0  0  0  0  0  0  0
    4.3366   -0.3224    0.0000 C   0  0  0  0  0  0  0  0  0
    4.3366    0.5026    0.0000 C   0  0  0  0  0  0  0  0  0
    3.5520    0.7575    0.0000 C   0  0  0  0  0  0  0  0  0
    5.0511    0.9151    0.0000 C   0  0  0  0  0  0  0  0  0
    5.7656    0.5026    0.0000 C   0  0  0  0  0  0  0  0  0
    6.4800    0.9151    0.0000 O   0  0  0  0  0  0  0  0  0
    7.1945    0.5026    0.0000 C   0  0  0  0  0  0  0  0  0
    7.9090    0.9151    0.0000 C   0  0  0  0  0  0  0  0  0
    8.6234    0.5026    0.0000 C   0  0  0  0  0  0  0  0  0
    8.6234   -0.3224    0.0000 N   0  0  0  0  0  0  0  0  0
    7.9090   -0.7349    0.0000 C   0  0  0  0  0  0  0  0  0
    7.1945   -0.3224    0.0000 C   0  0  0  0  0  0  0  0  0
    9.3379   -0.7349    0.0000 C   0  0  0  0  0  0  0  0  0
   10.0524   -0.3224    0.0000 C   0  0  0  0  0  0  0  0  0
    9.3379   -1.5599    0.0000 C   0  0  0  0  0  0  0  0  0
    5.7656   -0.3224    0.0000 C   0  0  0  0  0  0  0  0  0
    5.0511   -0.7349    0.0000 C   0  0  0  0  0  0  0  0  0
  1  2  1  0  0  0  0
  2  3  1  0  0  0  0
  2  4  1  0  0  0  0
  2  8  1  0  0  0  0
  4  5  1  0  0  0  0
  5  6  1  0  0  0  0
  6  7  1  0  0  0  0
  6  9  1  0  0  0  0
  7  8  1  0  0  0  0
  9 10  2  0  0  0  0
  9 11  1  0  0  0  0
 11 12  4  0  0  0  0
 11 15  4  0  0  0  0
 12 13  4  0  0  0  0
 13 14  4  0  0  0  0
 13 29  4  0  0  0  0
 14 15  4  0  0  0  0
 14 16  4  0  0  0  0
 16 17  4  0  0  0  0
 17 18  1  0  0  0  0
 17 28  4  0  0  0  0
 18 19  1  0  0  0  0
 19 20  1  0  0  0  0
 19 24  1  0  0  0  0
 20 21  1  0  0  0  0
 21 22  1  0  0  0  0
 22 23  1  0  0  0  0
 22 25  1  0  0  0  0
 23 24  1  0  0  0  0
 25 26  1  0  0  0  0
 25 27  1  0  0  0  0
 28 29  4  0  0  0  0
M  STY  1   1 DAT
M  SAL   1  1  12
M  SDT   1 MRV_IMPLICIT_H                                        
M  SDD   1     0.0000    0.0000    DR    ALL  0       0  
M  SED   1 IMPL_H1
M  END
>  <Name_Molregno>
501837

>  <HISTAMINE H3>
8.7

$$$$
501838
  Marvin  02231216192D 0   1.00000     0.00000     0

 29 32  0  0  0  0  0  0  0  0999 V2000
   -7.6464   -2.0559    0.0000 S   0  0  0  0  0  0  0  0  0
   -8.4216   -2.3381    0.0000 O   0  0  0  0  0  0  0  0  0
   -7.5031   -2.8684    0.0000 O   0  0  0  0  0  0  0  0  0
   -8.0589   -1.3415    0.0000 C   0  0  0  0  0  0  0  0  0
   -7.6464   -0.6270    0.0000 C   0  0  0  0  0  0  0  0  0
   -6.8214   -0.6270    0.0000 N   0  0  0  0  0  0  0  0  0
   -6.4089   -1.3415    0.0000 C   0  0  0  0  0  0  0  0  0
   -6.8214   -2.0559    0.0000 C   0  0  0  0  0  0  0  0  0
   -6.4089    0.0875    0.0000 C   0  0  0  0  0  0  0  0  0
   -6.8214    0.8019    0.0000 O   0  0  0  0  0  0  0  0  0
   -5.5839    0.0875    0.0000 C   0  0  0  0  0  0  0  0  0
   -5.0990   -0.5800    0.0000 N   0  0  0  0  0  0  0  0  0
   -4.3144   -0.3250    0.0000 C   0  0  0  0  0  0  0  0  0
   -4.3144    0.5000    0.0000 C   0  0  0  0  0  0  0  0  0
   -5.0990    0.7549    0.0000 C   0  0  0  0  0  0  0  0  0
   -3.5999    0.9125    0.0000 C   0  0  0  0  0  0  0  0  0
   -2.8854    0.5000    0.0000 C   0  0  0  0  0  0  0  0  0
   -2.1709    0.9125    0.0000 O   0  0  0  0  0  0  0  0  0
   -1.4565    0.5000    0.0000 C   0  0  0  0  0  0  0  0  0
   -0.7420    0.9125    0.0000 C   0  0  0  0  0  0  0  0  0
   -0.0275    0.5000    0.0000 C   0  0  0  0  0  0  0  0  0
   -0.0275   -0.3250    0.0000 N   0  0  0  0  0  0  0  0  0
   -0.7420   -0.7375    0.0000 C   0  0  0  0  0  0  0  0  0
   -1.4565   -0.3250    0.0000 C   0  0  0  0  0  0  0  0  0
    0.6869   -0.7375    0.0000 C   0  0  0  0  0  0  0  0  0
    1.4014   -0.3250    0.0000 C   0  0  0  0  0  0  0  0  0
    0.6869   -1.5625    0.0000 C   0  0  0  0  0  0  0  0  0
   -2.8854   -0.3250    0.0000 C   0  0  0  0  0  0  0  0  0
   -3.5999   -0.7375    0.0000 C   0  0  0  0  0  0  0  0  0
  1  2  2  0  0  0  0
  1  3  2  0  0  0  0
  1  4  1  0  0  0  0
  1  8  1  0  0  0  0
  4  5  1  0  0  0  0
  5  6  1  0  0  0  0
  6  7  1  0  0  0  0
  6  9  1  0  0  0  0
  7  8  1  0  0  0  0
  9 10  2  0  0  0  0
  9 11  1  0  0  0  0
 11 12  4  0  0  0  0
 11 15  4  0  0  0  0
 12 13  4  0  0  0  0
 13 14  4  0  0  0  0
 13 29  4  0  0  0  0
 14 15  4  0  0  0  0
 14 16  4  0  0  0  0
 16 17  4  0  0  0  0
 17 18  1  0  0  0  0
 17 28  4  0  0  0  0
 18 19  1  0  0  0  0
 19 20  1  0  0  0  0
 19 24  1  0  0  0  0
 20 21  1  0  0  0  0
 21 22  1  0  0  0  0
 22 23  1  0  0  0  0
 22 25  1  0  0  0  0
 23 24  1  0  0  0  0
 25 26  1  0  0  0  0
 25 27  1  0  0  0  0
 28 29  4  0  0  0  0
M  STY  1   1 DAT
M  SAL   1  1  12
M  SDT   1 MRV_IMPLICIT_H                                        
M  SDD   1     0.0000    0.0000    DR    ALL  0       0  
M  SED   1 IMPL_H1
M  END
>  <Name_Molregno>
501838

>  <HISTAMINE H3>
8.15

$$$$
501912
  Marvin  02231216192D 0   1.00000     0.00000     0

 27 30  0  0  0  0  0  0  0  0999 V2000
   -0.1119   -0.0292    0.0000 O   0  0  0  0  0  0  0  0  0
   -0.5244    0.6853    0.0000 C   0  0  0  0  0  0  0  0  0
   -0.1119    1.3998    0.0000 C   0  0  0  0  0  0  0  0  0
    0.7131    1.3998    0.0000 N   0  0  0  0  0  0  0  0  0
    1.1256    0.6853    0.0000 C   0  0  0  0  0  0  0  0  0
    0.7131   -0.0292    0.0000 C   0  0  0  0  0  0  0  0  0
    1.1256    2.1143    0.0000 C   0  0  0  0  0  0  0  0  0
    0.7131    2.8287    0.0000 O   0  0  0  0  0  0  0  0  0
    1.9506    2.1143    0.0000 C   0  0  0  0  0  0  0  0  0
    2.4355    2.7817    0.0000 N   0  0  0  0  0  0  0  0  0
    3.2201    2.5268    0.0000 C   0  0  0  0  0  0  0  0  0
    3.9346    2.9393    0.0000 C   0  0  0  0  0  0  0  0  0
    4.6490    2.5268    0.0000 C   0  0  0  0  0  0  0  0  0
    5.3635    2.9393    0.0000 O   0  0  0  0  0  0  0  0  0
    6.0780    2.5268    0.0000 C   0  0  0  0  0  0  0  0  0
    6.7925    2.9393    0.0000 C   0  0  0  0  0  0  0  0  0
    7.5069    2.5268    0.0000 C   0  0  0  0  0  0  0  0  0
    7.5069    1.7018    0.0000 N   0  0  0  0  0  0  0  0  0
    6.7925    1.2893    0.0000 C   0  0  0  0  0  0  0  0  0
    6.0780    1.7018    0.0000 C   0  0  0  0  0  0  0  0  0
    8.2214    1.2893    0.0000 C   0  0  0  0  0  0  0  0  0
    8.9359    1.7018    0.0000 C   0  0  0  0  0  0  0  0  0
    8.2214    0.4643    0.0000 C   0  0  0  0  0  0  0  0  0
    4.6490    1.7018    0.0000 C   0  0  0  0  0  0  0  0  0
    3.9346    1.2893    0.0000 C   0  0  0  0  0  0  0  0  0
    3.2201    1.7018    0.0000 C   0  0  0  0  0  0  0  0  0
    2.4355    1.4468    0.0000 C   0  0  0  0  0  0  0  0  0
  1  2  1  0  0  0  0
  1  6  1  0  0  0  0
  2  3  1  0  0  0  0
  3  4  1  0  0  0  0
  4  5  1  0  0  0  0
  4  7  1  0  0  0  0
  5  6  1  0  0  0  0
  7  8  2  0  0  0  0
  7  9  1  0  0  0  0
  9 10  4  0  0  0  0
  9 27  4  0  0  0  0
 10 11  4  0  0  0  0
 11 12  4  0  0  0  0
 11 26  4  0  0  0  0
 12 13  4  0  0  0  0
 13 14  1  0  0  0  0
 13 24  4  0  0  0  0
 14 15  1  0  0  0  0
 15 16  1  0  0  0  0
 15 20  1  0  0  0  0
 16 17  1  0  0  0  0
 17 18  1  0  0  0  0
 18 19  1  0  0  0  0
 18 21  1  0  0  0  0
 19 20  1  0  0  0  0
 21 22  1  0  0  0  0
 21 23  1  0  0  0  0
 24 25  4  0  0  0  0
 25 26  4  0  0  0  0
 26 27  4  0  0  0  0
M  STY  1   1 DAT
M  SAL   1  1  10
M  SDT   1 MRV_IMPLICIT_H                                        
M  SDD   1     0.0000    0.0000    DR    ALL  0       0  
M  SED   1 IMPL_H1
M  END
>  <Name_Molregno>
501912

>  <HISTAMINE H3>
7.48

$$$$
501913
  Marvin  02231216192D 0   1.00000     0.00000     0

 32 35  0  0  0  0  0  0  0  0999 V2000
   -0.3236   -0.6642    0.0000 F   0  0  0  0  0  0  0  0  0
   -0.8757   -0.0511    0.0000 C   0  0  0  0  0  0  0  0  0
   -1.4888   -0.6031    0.0000 F   0  0  0  0  0  0  0  0  0
   -0.2626    0.5009    0.0000 F   0  0  0  0  0  0  0  0  0
   -1.4277    0.5620    0.0000 C   0  0  0  0  0  0  0  0  0
   -1.1728    1.3466    0.0000 N   0  0  0  0  0  0  0  0  0
   -0.3882    1.6016    0.0000 C   0  0  0  0  0  0  0  0  0
   -0.3882    2.4266    0.0000 C   0  0  0  0  0  0  0  0  0
   -1.1728    2.6815    0.0000 C   0  0  0  0  0  0  0  0  0
   -1.6577    2.0141    0.0000 C   0  0  0  0  0  0  0  0  0
   -2.4827    2.0141    0.0000 C   0  0  0  0  0  0  0  0  0
   -2.8952    2.7285    0.0000 O   0  0  0  0  0  0  0  0  0
   -2.8952    1.2996    0.0000 N   0  0  0  0  0  0  0  0  0
   -2.4827    0.5851    0.0000 C   0  0  0  0  0  0  0  0  0
   -2.8952   -0.1294    0.0000 C   0  0  0  0  0  0  0  0  0
   -3.7202   -0.1294    0.0000 O   0  0  0  0  0  0  0  0  0
   -4.1327    0.5851    0.0000 C   0  0  0  0  0  0  0  0  0
   -3.7202    1.2996    0.0000 C   0  0  0  0  0  0  0  0  0
    0.3263    2.8391    0.0000 C   0  0  0  0  0  0  0  0  0
    1.0408    2.4266    0.0000 C   0  0  0  0  0  0  0  0  0
    1.7553    2.8391    0.0000 O   0  0  0  0  0  0  0  0  0
    2.4697    2.4266    0.0000 C   0  0  0  0  0  0  0  0  0
    3.1842    2.8391    0.0000 C   0  0  0  0  0  0  0  0  0
    3.8987    2.4266    0.0000 C   0  0  0  0  0  0  0  0  0
    3.8987    1.6016    0.0000 N   0  0  0  0  0  0  0  0  0
    3.1842    1.1891    0.0000 C   0  0  0  0  0  0  0  0  0
    2.4697    1.6016    0.0000 C   0  0  0  0  0  0  0  0  0
    4.6131    1.1891    0.0000 C   0  0  0  0  0  0  0  0  0
    5.3276    1.6016    0.0000 C   0  0  0  0  0  0  0  0  0
    4.6131    0.3641    0.0000 C   0  0  0  0  0  0  0  0  0
    1.0408    1.6016    0.0000 C   0  0  0  0  0  0  0  0  0
    0.3263    1.1891    0.0000 C   0  0  0  0  0  0  0  0  0
  1  2  1  0  0  0  0
  2  3  1  0  0  0  0
  2  4  1  0  0  0  0
  2  5  1  0  0  0  0
  5  6  1  0  0  0  0
  6  7  4  0  0  0  0
  6 10  4  0  0  0  0
  7  8  4  0  0  0  0
  7 32  4  0  0  0  0
  8  9  4  0  0  0  0
  8 19  4  0  0  0  0
  9 10  4  0  0  0  0
 10 11  1  0  0  0  0
 11 12  2  0  0  0  0
 11 13  1  0  0  0  0
 13 14  1  0  0  0  0
 13 18  1  0  0  0  0
 14 15  1  0  0  0  0
 15 16  1  0  0  0  0
 16 17  1  0  0  0  0
 17 18  1  0  0  0  0
 19 20  4  0  0  0  0
 20 21  1  0  0  0  0
 20 31  4  0  0  0  0
 21 22  1  0  0  0  0
 22 23  1  0  0  0  0
 22 27  1  0  0  0  0
 23 24  1  0  0  0  0
 24 25  1  0  0  0  0
 25 26  1  0  0  0  0
 25 28  1  0  0  0  0
 26 27  1  0  0  0  0
 28 29  1  0  0  0  0
 28 30  1  0  0  0  0
 31 32  4  0  0  0  0
M  END
>  <Name_Molregno>
501913

>  <HISTAMINE H3>
8.52

$$$$
501914
  Marvin  02231216192D 0   1.00000     0.00000     0

 34 37  0  0  0  0  0  0  0  0999 V2000
    1.6121    2.8609    0.0000 F   0  0  0  0  0  0  0  0  0
    1.4688    2.0484    0.0000 C   0  0  0  0  0  0  0  0  0
    0.6936    2.3306    0.0000 F   0  0  0  0  0  0  0  0  0
    2.2938    2.0484    0.0000 C   0  0  0  0  0  0  0  0  0
    2.7063    1.3340    0.0000 C   0  0  0  0  0  0  0  0  0
    2.2938    0.6195    0.0000 N   0  0  0  0  0  0  0  0  0
    1.4688    0.6195    0.0000 C   0  0  0  0  0  0  0  0  0
    1.0563    1.3340    0.0000 C   0  0  0  0  0  0  0  0  0
    2.7063   -0.0950    0.0000 C   0  0  0  0  0  0  0  0  0
    2.2938   -0.8095    0.0000 O   0  0  0  0  0  0  0  0  0
    3.5313   -0.0950    0.0000 C   0  0  0  0  0  0  0  0  0
    4.0162   -0.7624    0.0000 N   0  0  0  0  0  0  0  0  0
    4.8009   -0.5075    0.0000 C   0  0  0  0  0  0  0  0  0
    4.8009    0.3175    0.0000 C   0  0  0  0  0  0  0  0  0
    4.0162    0.5725    0.0000 C   0  0  0  0  0  0  0  0  0
    5.5153    0.7300    0.0000 C   0  0  0  0  0  0  0  0  0
    6.2298    0.3175    0.0000 C   0  0  0  0  0  0  0  0  0
    6.9443    0.7300    0.0000 O   0  0  0  0  0  0  0  0  0
    7.6587    0.3175    0.0000 C   0  0  0  0  0  0  0  0  0
    8.3732    0.7300    0.0000 C   0  0  0  0  0  0  0  0  0
    9.0877    0.3175    0.0000 C   0  0  0  0  0  0  0  0  0
    9.0877   -0.5075    0.0000 N   0  0  0  0  0  0  0  0  0
    8.3732   -0.9200    0.0000 C   0  0  0  0  0  0  0  0  0
    7.6587   -0.5075    0.0000 C   0  0  0  0  0  0  0  0  0
    9.8022   -0.9200    0.0000 C   0  0  0  0  0  0  0  0  0
   10.5166   -0.5075    0.0000 C   0  0  0  0  0  0  0  0  0
    9.8022   -1.7450    0.0000 C   0  0  0  0  0  0  0  0  0
    6.2298   -0.5075    0.0000 C   0  0  0  0  0  0  0  0  0
    5.5153   -0.9200    0.0000 C   0  0  0  0  0  0  0  0  0
    3.7613   -1.5470    0.0000 C   0  0  0  0  0  0  0  0  0
    2.9543   -1.7186    0.0000 C   0  0  0  0  0  0  0  0  0
    2.7828   -0.9116    0.0000 F   0  0  0  0  0  0  0  0  0
    3.1259   -2.5255    0.0000 F   0  0  0  0  0  0  0  0  0
    2.1474   -1.8901    0.0000 F   0  0  0  0  0  0  0  0  0
  1  2  1  0  0  0  0
  2  3  1  0  0  0  0
  2  4  1  0  0  0  0
  2  8  1  0  0  0  0
  4  5  1  0  0  0  0
  5  6  1  0  0  0  0
  6  7  1  0  0  0  0
  6  9  1  0  0  0  0
  7  8  1  0  0  0  0
  9 10  2  0  0  0  0
  9 11  1  0  0  0  0
 11 12  4  0  0  0  0
 11 15  4  0  0  0  0
 12 13  4  0  0  0  0
 12 30  1  0  0  0  0
 13 14  4  0  0  0  0
 13 29  4  0  0  0  0
 14 15  4  0  0  0  0
 14 16  4  0  0  0  0
 16 17  4  0  0  0  0
 17 18  1  0  0  0  0
 17 28  4  0  0  0  0
 18 19  1  0  0  0  0
 19 20  1  0  0  0  0
 19 24  1  0  0  0  0
 20 21  1  0  0  0  0
 21 22  1  0  0  0  0
 22 23  1  0  0  0  0
 22 25  1  0  0  0  0
 23 24  1  0  0  0  0
 25 26  1  0  0  0  0
 25 27  1  0  0  0  0
 28 29  4  0  0  0  0
 30 31  1  0  0  0  0
 31 32  1  0  0  0  0
 31 33  1  0  0  0  0
 31 34  1  0  0  0  0
M  END
>  <Name_Molregno>
501914

>  <HISTAMINE H3>
8.52

$$$$
501915
  Marvin  02231216192D 0   1.00000     0.00000     0

 32 35  0  0  0  0  0  0  0  0999 V2000
    1.3347    2.6942    0.0000 F   0  0  0  0  0  0  0  0  0
    1.1914    1.8818    0.0000 C   0  0  0  0  0  0  0  0  0
    0.4162    2.1639    0.0000 F   0  0  0  0  0  0  0  0  0
    2.0164    1.8818    0.0000 C   0  0  0  0  0  0  0  0  0
    2.4289    1.1673    0.0000 C   0  0  0  0  0  0  0  0  0
    2.0164    0.4528    0.0000 N   0  0  0  0  0  0  0  0  0
    1.1914    0.4528    0.0000 C   0  0  0  0  0  0  0  0  0
    0.7789    1.1673    0.0000 C   0  0  0  0  0  0  0  0  0
    2.4289   -0.2616    0.0000 C   0  0  0  0  0  0  0  0  0
    2.0164   -0.9761    0.0000 O   0  0  0  0  0  0  0  0  0
    3.2539   -0.2616    0.0000 C   0  0  0  0  0  0  0  0  0
    3.7388   -0.9291    0.0000 N   0  0  0  0  0  0  0  0  0
    4.5235   -0.6741    0.0000 C   0  0  0  0  0  0  0  0  0
    4.5235    0.1509    0.0000 C   0  0  0  0  0  0  0  0  0
    3.7388    0.4058    0.0000 C   0  0  0  0  0  0  0  0  0
    5.2379    0.5634    0.0000 C   0  0  0  0  0  0  0  0  0
    5.9524    0.1509    0.0000 C   0  0  0  0  0  0  0  0  0
    6.6669    0.5634    0.0000 O   0  0  0  0  0  0  0  0  0
    7.3813    0.1509    0.0000 C   0  0  0  0  0  0  0  0  0
    8.0958    0.5634    0.0000 C   0  0  0  0  0  0  0  0  0
    8.8103    0.1509    0.0000 C   0  0  0  0  0  0  0  0  0
    8.8103   -0.6741    0.0000 N   0  0  0  0  0  0  0  0  0
    8.0958   -1.0866    0.0000 C   0  0  0  0  0  0  0  0  0
    7.3813   -0.6741    0.0000 C   0  0  0  0  0  0  0  0  0
    9.5247   -1.0866    0.0000 C   0  0  0  0  0  0  0  0  0
   10.2392   -0.6741    0.0000 C   0  0  0  0  0  0  0  0  0
    9.5247   -1.9116    0.0000 C   0  0  0  0  0  0  0  0  0
    5.9524   -0.6741    0.0000 C   0  0  0  0  0  0  0  0  0
    5.2379   -1.0866    0.0000 C   0  0  0  0  0  0  0  0  0
    3.4839   -1.7137    0.0000 C   0  0  0  0  0  0  0  0  0
    4.0359   -2.3268    0.0000 C   0  0  0  0  0  0  0  0  0
    2.6769   -1.8852    0.0000 C   0  0  0  0  0  0  0  0  0
  1  2  1  0  0  0  0
  2  3  1  0  0  0  0
  2  4  1  0  0  0  0
  2  8  1  0  0  0  0
  4  5  1  0  0  0  0
  5  6  1  0  0  0  0
  6  7  1  0  0  0  0
  6  9  1  0  0  0  0
  7  8  1  0  0  0  0
  9 10  2  0  0  0  0
  9 11  1  0  0  0  0
 11 12  4  0  0  0  0
 11 15  4  0  0  0  0
 12 13  4  0  0  0  0
 12 30  1  0  0  0  0
 13 14  4  0  0  0  0
 13 29  4  0  0  0  0
 14 15  4  0  0  0  0
 14 16  4  0  0  0  0
 16 17  4  0  0  0  0
 17 18  1  0  0  0  0
 17 28  4  0  0  0  0
 18 19  1  0  0  0  0
 19 20  1  0  0  0  0
 19 24  1  0  0  0  0
 20 21  1  0  0  0  0
 21 22  1  0  0  0  0
 22 23  1  0  0  0  0
 22 25  1  0  0  0  0
 23 24  1  0  0  0  0
 25 26  1  0  0  0  0
 25 27  1  0  0  0  0
 28 29  4  0  0  0  0
 30 31  1  0  0  0  0
 30 32  1  0  0  0  0
M  END
>  <Name_Molregno>
501915

>  <HISTAMINE H3>
8.15

$$$$
501981
  Marvin  02231216192D 0   1.00000     0.00000     0

 32 35  0  0  0  0  0  0  0  0999 V2000
    1.3347    2.6942    0.0000 F   0  0  0  0  0  0  0  0  0
    1.1914    1.8818    0.0000 C   0  0  0  0  0  0  0  0  0
    0.4162    2.1639    0.0000 F   0  0  0  0  0  0  0  0  0
    2.0164    1.8818    0.0000 C   0  0  0  0  0  0  0  0  0
    2.4289    1.1673    0.0000 C   0  0  0  0  0  0  0  0  0
    2.0164    0.4528    0.0000 N   0  0  0  0  0  0  0  0  0
    1.1914    0.4528    0.0000 C   0  0  0  0  0  0  0  0  0
    0.7789    1.1673    0.0000 C   0  0  0  0  0  0  0  0  0
    2.4289   -0.2616    0.0000 C   0  0  0  0  0  0  0  0  0
    2.0164   -0.9761    0.0000 O   0  0  0  0  0  0  0  0  0
    3.2539   -0.2616    0.0000 C   0  0  0  0  0  0  0  0  0
    3.7388   -0.9291    0.0000 N   0  0  0  0  0  0  0  0  0
    4.5235   -0.6741    0.0000 C   0  0  0  0  0  0  0  0  0
    4.5235    0.1509    0.0000 C   0  0  0  0  0  0  0  0  0
    3.7388    0.4058    0.0000 C   0  0  0  0  0  0  0  0  0
    5.2379    0.5634    0.0000 C   0  0  0  0  0  0  0  0  0
    5.9524    0.1509    0.0000 C   0  0  0  0  0  0  0  0  0
    6.6669    0.5634    0.0000 O   0  0  0  0  0  0  0  0  0
    7.3813    0.1509    0.0000 C   0  0  0  0  0  0  0  0  0
    8.0958    0.5634    0.0000 C   0  0  0  0  0  0  0  0  0
    8.8103    0.1509    0.0000 C   0  0  0  0  0  0  0  0  0
    8.8103   -0.6741    0.0000 N   0  0  0  0  0  0  0  0  0
    8.0958   -1.0866    0.0000 C   0  0  0  0  0  0  0  0  0
    7.3813   -0.6741    0.0000 C   0  0  0  0  0  0  0  0  0
    9.5247   -1.0866    0.0000 C   0  0  0  0  0  0  0  0  0
   10.2392   -0.6741    0.0000 C   0  0  0  0  0  0  0  0  0
    9.5247   -1.9116    0.0000 C   0  0  0  0  0  0  0  0  0
    5.9524   -0.6741    0.0000 C   0  0  0  0  0  0  0  0  0
    5.2379   -1.0866    0.0000 C   0  0  0  0  0  0  0  0  0
    3.4839   -1.7137    0.0000 C   0  0  0  0  0  0  0  0  0
    4.0359   -2.3268    0.0000 O   0  0  0  0  0  0  0  0  0
    2.6769   -1.8852    0.0000 C   0  0  0  0  0  0  0  0  0
  1  2  1  0  0  0  0
  2  3  1  0  0  0  0
  2  4  1  0  0  0  0
  2  8  1  0  0  0  0
  4  5  1  0  0  0  0
  5  6  1  0  0  0  0
  6  7  1  0  0  0  0
  6  9  1  0  0  0  0
  7  8  1  0  0  0  0
  9 10  2  0  0  0  0
  9 11  1  0  0  0  0
 11 12  4  0  0  0  0
 11 15  4  0  0  0  0
 12 13  4  0  0  0  0
 12 30  1  0  0  0  0
 13 14  4  0  0  0  0
 13 29  4  0  0  0  0
 14 15  4  0  0  0  0
 14 16  4  0  0  0  0
 16 17  4  0  0  0  0
 17 18  1  0  0  0  0
 17 28  4  0  0  0  0
 18 19  1  0  0  0  0
 19 20  1  0  0  0  0
 19 24  1  0  0  0  0
 20 21  1  0  0  0  0
 21 22  1  0  0  0  0
 22 23  1  0  0  0  0
 22 25  1  0  0  0  0
 23 24  1  0  0  0  0
 25 26  1  0  0  0  0
 25 27  1  0  0  0  0
 28 29  4  0  0  0  0
 30 31  2  0  0  0  0
 30 32  1  0  0  0  0
M  END
>  <Name_Molregno>
501981

>  <HISTAMINE H3>
7.89

$$$$
501982
  Marvin  02231216192D 0   1.00000     0.00000     0

 33 36  0  0  0  0  0  0  0  0999 V2000
   -0.2426    0.9073    0.0000 S   0  0  0  0  0  0  0  0  0
   -0.4976    0.1227    0.0000 O   0  0  0  0  0  0  0  0  0
   -1.0273    1.1623    0.0000 O   0  0  0  0  0  0  0  0  0
    0.0123    1.6920    0.0000 N   0  0  0  0  0  0  0  0  0
    0.7969    1.9469    0.0000 C   0  0  0  0  0  0  0  0  0
    0.7969    2.7719    0.0000 C   0  0  0  0  0  0  0  0  0
    0.0123    3.0268    0.0000 C   0  0  0  0  0  0  0  0  0
   -0.4726    2.3594    0.0000 C   0  0  0  0  0  0  0  0  0
   -1.2976    2.3594    0.0000 C   0  0  0  0  0  0  0  0  0
   -1.7101    3.0739    0.0000 O   0  0  0  0  0  0  0  0  0
   -1.7101    1.6449    0.0000 N   0  0  0  0  0  0  0  0  0
   -1.2976    0.9304    0.0000 C   0  0  0  0  0  0  0  0  0
   -1.7101    0.2160    0.0000 C   0  0  0  0  0  0  0  0  0
   -2.5351    0.2160    0.0000 C   0  0  0  0  0  0  0  0  0
   -2.3919   -0.5965    0.0000 F   0  0  0  0  0  0  0  0  0
   -3.3104   -0.0662    0.0000 F   0  0  0  0  0  0  0  0  0
   -2.9476    0.9304    0.0000 C   0  0  0  0  0  0  0  0  0
   -2.5351    1.6449    0.0000 C   0  0  0  0  0  0  0  0  0
    1.5114    3.1844    0.0000 C   0  0  0  0  0  0  0  0  0
    2.2259    2.7719    0.0000 C   0  0  0  0  0  0  0  0  0
    2.9403    3.1844    0.0000 O   0  0  0  0  0  0  0  0  0
    3.6548    2.7719    0.0000 C   0  0  0  0  0  0  0  0  0
    4.3693    3.1844    0.0000 C   0  0  0  0  0  0  0  0  0
    5.0837    2.7719    0.0000 C   0  0  0  0  0  0  0  0  0
    5.0837    1.9469    0.0000 N   0  0  0  0  0  0  0  0  0
    4.3693    1.5344    0.0000 C   0  0  0  0  0  0  0  0  0
    3.6548    1.9469    0.0000 C   0  0  0  0  0  0  0  0  0
    5.7982    1.5344    0.0000 C   0  0  0  0  0  0  0  0  0
    6.5127    1.9469    0.0000 C   0  0  0  0  0  0  0  0  0
    5.7982    0.7094    0.0000 C   0  0  0  0  0  0  0  0  0
    2.2259    1.9469    0.0000 C   0  0  0  0  0  0  0  0  0
    1.5114    1.5344    0.0000 C   0  0  0  0  0  0  0  0  0
    0.5420    0.6524    0.0000 C   0  0  0  0  0  0  0  0  0
  1  2  2  0  0  0  0
  1  3  2  0  0  0  0
  1  4  1  0  0  0  0
  1 33  1  0  0  0  0
  4  5  4  0  0  0  0
  4  8  4  0  0  0  0
  5  6  4  0  0  0  0
  5 32  4  0  0  0  0
  6  7  4  0  0  0  0
  6 19  4  0  0  0  0
  7  8  4  0  0  0  0
  8  9  1  0  0  0  0
  9 10  2  0  0  0  0
  9 11  1  0  0  0  0
 11 12  1  0  0  0  0
 11 18  1  0  0  0  0
 12 13  1  0  0  0  0
 13 14  1  0  0  0  0
 14 15  1  0  0  0  0
 14 16  1  0  0  0  0
 14 17  1  0  0  0  0
 17 18  1  0  0  0  0
 19 20  4  0  0  0  0
 20 21  1  0  0  0  0
 20 31  4  0  0  0  0
 21 22  1  0  0  0  0
 22 23  1  0  0  0  0
 22 27  1  0  0  0  0
 23 24  1  0  0  0  0
 24 25  1  0  0  0  0
 25 26  1  0  0  0  0
 25 28  1  0  0  0  0
 26 27  1  0  0  0  0
 28 29  1  0  0  0  0
 28 30  1  0  0  0  0
 31 32  4  0  0  0  0
M  END
>  <Name_Molregno>
501982

>  <HISTAMINE H3>
8.52

$$$$
501983
  Marvin  02231216192D 0   1.00000     0.00000     0

 39 43  0  0  0  0  0  0  0  0999 V2000
   -0.7939    0.6925    0.0000 S   0  0  0  0  0  0  0  0  0
   -1.0489   -0.0922    0.0000 O   0  0  0  0  0  0  0  0  0
   -1.5785    0.9474    0.0000 O   0  0  0  0  0  0  0  0  0
   -0.5390    1.4771    0.0000 N   0  0  0  0  0  0  0  0  0
    0.2456    1.7320    0.0000 C   0  0  0  0  0  0  0  0  0
    0.2456    2.5570    0.0000 C   0  0  0  0  0  0  0  0  0
   -0.5390    2.8120    0.0000 C   0  0  0  0  0  0  0  0  0
   -1.0239    2.1445    0.0000 C   0  0  0  0  0  0  0  0  0
   -1.8489    2.1445    0.0000 C   0  0  0  0  0  0  0  0  0
   -2.2614    2.8590    0.0000 O   0  0  0  0  0  0  0  0  0
   -2.2614    1.4301    0.0000 N   0  0  0  0  0  0  0  0  0
   -1.8489    0.7156    0.0000 C   0  0  0  0  0  0  0  0  0
   -2.2614    0.0011    0.0000 C   0  0  0  0  0  0  0  0  0
   -3.0864    0.0011    0.0000 C   0  0  0  0  0  0  0  0  0
   -2.9431   -0.8113    0.0000 F   0  0  0  0  0  0  0  0  0
   -3.8616   -0.2810    0.0000 F   0  0  0  0  0  0  0  0  0
   -3.4989    0.7156    0.0000 C   0  0  0  0  0  0  0  0  0
   -3.0864    1.4301    0.0000 C   0  0  0  0  0  0  0  0  0
    0.9601    2.9695    0.0000 C   0  0  0  0  0  0  0  0  0
    1.6746    2.5570    0.0000 C   0  0  0  0  0  0  0  0  0
    2.3891    2.9695    0.0000 O   0  0  0  0  0  0  0  0  0
    3.1035    2.5570    0.0000 C   0  0  0  0  0  0  0  0  0
    3.8180    2.9695    0.0000 C   0  0  0  0  0  0  0  0  0
    4.5325    2.5570    0.0000 C   0  0  0  0  0  0  0  0  0
    4.5325    1.7320    0.0000 N   0  0  0  0  0  0  0  0  0
    3.8180    1.3195    0.0000 C   0  0  0  0  0  0  0  0  0
    3.1035    1.7320    0.0000 C   0  0  0  0  0  0  0  0  0
    5.2469    1.3195    0.0000 C   0  0  0  0  0  0  0  0  0
    5.9614    1.7320    0.0000 C   0  0  0  0  0  0  0  0  0
    5.2469    0.4945    0.0000 C   0  0  0  0  0  0  0  0  0
    1.6746    1.7320    0.0000 C   0  0  0  0  0  0  0  0  0
    0.9601    1.3195    0.0000 C   0  0  0  0  0  0  0  0  0
   -0.0093    0.4375    0.0000 C   0  0  0  0  0  0  0  0  0
    0.6038    0.9896    0.0000 C   0  0  0  0  0  0  0  0  0
    1.3884    0.7346    0.0000 C   0  0  0  0  0  0  0  0  0
    1.5600   -0.0723    0.0000 C   0  0  0  0  0  0  0  0  0
    2.3446   -0.3273    0.0000 F   0  0  0  0  0  0  0  0  0
    0.9469   -0.6244    0.0000 C   0  0  0  0  0  0  0  0  0
    0.1622   -0.3694    0.0000 C   0  0  0  0  0  0  0  0  0
  1  2  2  0  0  0  0
  1  3  2  0  0  0  0
  1  4  1  0  0  0  0
  1 33  1  0  0  0  0
  4  5  4  0  0  0  0
  4  8  4  0  0  0  0
  5  6  4  0  0  0  0
  5 32  4  0  0  0  0
  6  7  4  0  0  0  0
  6 19  4  0  0  0  0
  7  8  4  0  0  0  0
  8  9  1  0  0  0  0
  9 10  2  0  0  0  0
  9 11  1  0  0  0  0
 11 12  1  0  0  0  0
 11 18  1  0  0  0  0
 12 13  1  0  0  0  0
 13 14  1  0  0  0  0
 14 15  1  0  0  0  0
 14 16  1  0  0  0  0
 14 17  1  0  0  0  0
 17 18  1  0  0  0  0
 19 20  4  0  0  0  0
 20 21  1  0  0  0  0
 20 31  4  0  0  0  0
 21 22  1  0  0  0  0
 22 23  1  0  0  0  0
 22 27  1  0  0  0  0
 23 24  1  0  0  0  0
 24 25  1  0  0  0  0
 25 26  1  0  0  0  0
 25 28  1  0  0  0  0
 26 27  1  0  0  0  0
 28 29  1  0  0  0  0
 28 30  1  0  0  0  0
 31 32  4  0  0  0  0
 33 34  4  0  0  0  0
 33 39  4  0  0  0  0
 34 35  4  0  0  0  0
 35 36  4  0  0  0  0
 36 37  1  0  0  0  0
 36 38  4  0  0  0  0
 38 39  4  0  0  0  0
M  END
>  <Name_Molregno>
501983

>  <HISTAMINE H3>
8.7

$$$$
501984
  Marvin  02231216192D 0   1.00000     0.00000     0

 32 35  0  0  0  0  0  0  0  0999 V2000
    1.4685    2.6697    0.0000 F   0  0  0  0  0  0  0  0  0
    1.3253    1.8572    0.0000 C   0  0  0  0  0  0  0  0  0
    0.5500    2.1394    0.0000 F   0  0  0  0  0  0  0  0  0
    2.1503    1.8572    0.0000 C   0  0  0  0  0  0  0  0  0
    2.5628    1.1427    0.0000 C   0  0  0  0  0  0  0  0  0
    2.1503    0.4283    0.0000 N   0  0  0  0  0  0  0  0  0
    1.3253    0.4283    0.0000 C   0  0  0  0  0  0  0  0  0
    0.9128    1.1427    0.0000 C   0  0  0  0  0  0  0  0  0
    2.5628   -0.2862    0.0000 C   0  0  0  0  0  0  0  0  0
    2.1503   -1.0007    0.0000 O   0  0  0  0  0  0  0  0  0
    3.3878   -0.2862    0.0000 C   0  0  0  0  0  0  0  0  0
    3.8727   -0.9537    0.0000 N   0  0  0  0  0  0  0  0  0
    4.6573   -0.6987    0.0000 C   0  0  0  0  0  0  0  0  0
    4.6573    0.1263    0.0000 C   0  0  0  0  0  0  0  0  0
    3.8727    0.3812    0.0000 C   0  0  0  0  0  0  0  0  0
    5.3718    0.5388    0.0000 C   0  0  0  0  0  0  0  0  0
    6.0863    0.1263    0.0000 C   0  0  0  0  0  0  0  0  0
    6.8007    0.5388    0.0000 O   0  0  0  0  0  0  0  0  0
    7.5152    0.1263    0.0000 C   0  0  0  0  0  0  0  0  0
    8.2297    0.5388    0.0000 C   0  0  0  0  0  0  0  0  0
    8.9441    0.1263    0.0000 C   0  0  0  0  0  0  0  0  0
    8.9441   -0.6987    0.0000 N   0  0  0  0  0  0  0  0  0
    8.2297   -1.1112    0.0000 C   0  0  0  0  0  0  0  0  0
    7.5152   -0.6987    0.0000 C   0  0  0  0  0  0  0  0  0
    9.6586   -1.1112    0.0000 C   0  0  0  0  0  0  0  0  0
   10.3731   -0.6987    0.0000 C   0  0  0  0  0  0  0  0  0
    9.6586   -1.9362    0.0000 C   0  0  0  0  0  0  0  0  0
    6.0863   -0.6987    0.0000 C   0  0  0  0  0  0  0  0  0
    5.3718   -1.1112    0.0000 C   0  0  0  0  0  0  0  0  0
    3.6178   -1.7383    0.0000 C   0  0  0  0  0  0  0  0  0
    2.8108   -1.9098    0.0000 C   0  0  0  0  0  0  0  0  0
    2.0038   -2.0813    0.0000 N   0  0  0  0  0  0  0  0  0
  1  2  1  0  0  0  0
  2  3  1  0  0  0  0
  2  4  1  0  0  0  0
  2  8  1  0  0  0  0
  4  5  1  0  0  0  0
  5  6  1  0  0  0  0
  6  7  1  0  0  0  0
  6  9  1  0  0  0  0
  7  8  1  0  0  0  0
  9 10  2  0  0  0  0
  9 11  1  0  0  0  0
 11 12  4  0  0  0  0
 11 15  4  0  0  0  0
 12 13  4  0  0  0  0
 12 30  1  0  0  0  0
 13 14  4  0  0  0  0
 13 29  4  0  0  0  0
 14 15  4  0  0  0  0
 14 16  4  0  0  0  0
 16 17  4  0  0  0  0
 17 18  1  0  0  0  0
 17 28  4  0  0  0  0
 18 19  1  0  0  0  0
 19 20  1  0  0  0  0
 19 24  1  0  0  0  0
 20 21  1  0  0  0  0
 21 22  1  0  0  0  0
 22 23  1  0  0  0  0
 22 25  1  0  0  0  0
 23 24  1  0  0  0  0
 25 26  1  0  0  0  0
 25 27  1  0  0  0  0
 28 29  4  0  0  0  0
 30 31  1  0  0  0  0
 31 32  3  0  0  0  0
M  END
>  <Name_Molregno>
501984

>  <HISTAMINE H3>
8.52

$$$$
512847
  Marvin  02231216192D 0   1.00000     0.00000     0

 24 25  0  0  0  0  0  0  0  0999 V2000
    3.0298    2.5774    0.0000 N   0  0  0  0  0  0  0  0  0
    3.7442    2.1649    0.0000 C   0  0  0  0  0  0  0  0  0
    3.7442    1.3399    0.0000 C   0  0  0  0  0  0  0  0  0
    4.4587    0.9274    0.0000 C   0  0  0  0  0  0  0  0  0
    4.4587    0.1024    0.0000 C   0  0  0  0  0  0  0  0  0
    3.7442   -0.3101    0.0000 C   0  0  0  0  0  0  0  0  0
    3.0298    0.1024    0.0000 C   0  0  0  0  0  0  0  0  0
    3.0298    0.9274    0.0000 C   0  0  0  0  0  0  0  0  0
    3.7442   -1.1351    0.0000 C   0  0  0  0  0  0  0  0  0
    4.4587   -1.5476    0.0000 C   0  0  0  0  0  0  0  0  0
    4.4587   -2.3726    0.0000 C   0  0  0  0  0  0  0  0  0
    3.7442   -2.7851    0.0000 C   0  0  0  0  0  0  0  0  0
    3.0298   -2.3726    0.0000 C   0  0  0  0  0  0  0  0  0
    3.0298   -1.5476    0.0000 C   0  0  0  0  0  0  0  0  0
    3.7442   -3.6101    0.0000 C   0  0  0  0  0  0  0  0  0
    3.0298   -4.0226    0.0000 N   0  0  0  0  0  0  0  0  0
    3.0298   -4.8476    0.0000 C   0  0  0  0  0  0  0  0  0
    2.3153   -5.2601    0.0000 C   0  0  0  0  0  0  0  0  0
    2.3153   -3.6101    0.0000 C   0  0  0  0  0  0  0  0  0
    1.6008   -4.0226    0.0000 C   0  0  0  0  0  0  0  0  0
    3.0298    3.4024    0.0000 C   0  0  0  0  0  0  0  0  0
    2.3153    3.8149    0.0000 C   0  0  0  0  0  0  0  0  0
    2.3153    2.1649    0.0000 C   0  0  0  0  0  0  0  0  0
    1.6008    2.5774    0.0000 C   0  0  0  0  0  0  0  0  0
  1  2  1  0  0  0  0
  1 21  1  0  0  0  0
  1 23  1  0  0  0  0
  2  3  1  0  0  0  0
  3  4  4  0  0  0  0
  3  8  4  0  0  0  0
  4  5  4  0  0  0  0
  5  6  4  0  0  0  0
  6  7  4  0  0  0  0
  6  9  1  0  0  0  0
  7  8  4  0  0  0  0
  9 10  4  0  0  0  0
  9 14  4  0  0  0  0
 10 11  4  0  0  0  0
 11 12  4  0  0  0  0
 12 13  4  0  0  0  0
 12 15  1  0  0  0  0
 13 14  4  0  0  0  0
 15 16  1  0  0  0  0
 16 17  1  0  0  0  0
 16 19  1  0  0  0  0
 17 18  1  0  0  0  0
 19 20  1  0  0  0  0
 21 22  1  0  0  0  0
 23 24  1  0  0  0  0
M  END
>  <Name_Molregno>
512847

>  <HISTAMINE H3>
8.55

$$$$
512919
  Marvin  02231216192D 0   1.00000     0.00000     0

 28 29  0  0  0  0  0  0  0  0999 V2000
    0.7192    1.5990    0.0000 N   0  0  0  0  0  0  0  0  0
    0.7192    0.7740    0.0000 C   0  0  0  0  0  0  0  0  0
    1.4337    0.3615    0.0000 C   0  0  0  0  0  0  0  0  0
    2.1481    0.7740    0.0000 C   0  0  0  0  0  0  0  0  0
    2.8626    0.3615    0.0000 C   0  0  0  0  0  0  0  0  0
    2.8626   -0.4635    0.0000 C   0  0  0  0  0  0  0  0  0
    2.1481   -0.8760    0.0000 C   0  0  0  0  0  0  0  0  0
    1.4337   -0.4635    0.0000 C   0  0  0  0  0  0  0  0  0
    3.5771   -0.8760    0.0000 C   0  0  0  0  0  0  0  0  0
    4.2915   -0.4635    0.0000 C   0  0  0  0  0  0  0  0  0
    5.0060   -0.8760    0.0000 C   0  0  0  0  0  0  0  0  0
    5.0060   -1.7010    0.0000 C   0  0  0  0  0  0  0  0  0
    4.2915   -2.1135    0.0000 C   0  0  0  0  0  0  0  0  0
    3.5771   -1.7010    0.0000 C   0  0  0  0  0  0  0  0  0
    5.7205   -2.1135    0.0000 C   0  0  0  0  0  0  0  0  0
    5.7205   -2.9385    0.0000 N   0  0  0  0  0  0  0  0  0
    6.4350   -3.3510    0.0000 C   0  0  0  0  0  0  0  0  0
    6.4350   -4.1760    0.0000 C   0  0  0  0  0  0  0  0  0
    7.1494   -4.5885    0.0000 C   0  0  0  0  0  0  0  0  0
    5.0060   -3.3510    0.0000 C   0  0  0  0  0  0  0  0  0
    5.0060   -4.1760    0.0000 C   0  0  0  0  0  0  0  0  0
    4.2915   -4.5885    0.0000 C   0  0  0  0  0  0  0  0  0
    0.0047    2.0115    0.0000 C   0  0  0  0  0  0  0  0  0
    0.0047    2.8365    0.0000 C   0  0  0  0  0  0  0  0  0
   -0.7098    3.2490    0.0000 C   0  0  0  0  0  0  0  0  0
    1.4337    2.0115    0.0000 C   0  0  0  0  0  0  0  0  0
    1.4337    2.8365    0.0000 C   0  0  0  0  0  0  0  0  0
    2.1481    3.2490    0.0000 C   0  0  0  0  0  0  0  0  0
  1  2  1  0  0  0  0
  1 23  1  0  0  0  0
  1 26  1  0  0  0  0
  2  3  1  0  0  0  0
  3  4  4  0  0  0  0
  3  8  4  0  0  0  0
  4  5  4  0  0  0  0
  5  6  4  0  0  0  0
  6  7  4  0  0  0  0
  6  9  1  0  0  0  0
  7  8  4  0  0  0  0
  9 10  4  0  0  0  0
  9 14  4  0  0  0  0
 10 11  4  0  0  0  0
 11 12  4  0  0  0  0
 12 13  4  0  0  0  0
 12 15  1  0  0  0  0
 13 14  4  0  0  0  0
 15 16  1  0  0  0  0
 16 17  1  0  0  0  0
 16 20  1  0  0  0  0
 17 18  1  0  0  0  0
 18 19  1  0  0  0  0
 20 21  1  0  0  0  0
 21 22  1  0  0  0  0
 23 24  1  0  0  0  0
 24 25  1  0  0  0  0
 26 27  1  0  0  0  0
 27 28  1  0  0  0  0
M  END
>  <Name_Molregno>
512919

>  <HISTAMINE H3>
8.03

$$$$
512996
  Marvin  02231216192D 0   1.00000     0.00000     0

 28 31  0  0  0  0  0  0  0  0999 V2000
   -2.9126    2.0198    0.0000 N   0  0  0  0  0  0  0  0  0
   -2.1981    1.6073    0.0000 C   0  0  0  0  0  0  0  0  0
   -2.1981    0.7823    0.0000 C   0  0  0  0  0  0  0  0  0
   -1.4837    0.3698    0.0000 C   0  0  0  0  0  0  0  0  0
   -1.4837   -0.4552    0.0000 C   0  0  0  0  0  0  0  0  0
   -2.1981   -0.8677    0.0000 C   0  0  0  0  0  0  0  0  0
   -2.9126   -0.4552    0.0000 C   0  0  0  0  0  0  0  0  0
   -2.9126    0.3698    0.0000 C   0  0  0  0  0  0  0  0  0
   -2.1981   -1.6927    0.0000 C   0  0  0  0  0  0  0  0  0
   -1.4837   -2.1052    0.0000 C   0  0  0  0  0  0  0  0  0
   -1.4837   -2.9302    0.0000 C   0  0  0  0  0  0  0  0  0
   -2.1981   -3.3427    0.0000 C   0  0  0  0  0  0  0  0  0
   -2.9126   -2.9302    0.0000 C   0  0  0  0  0  0  0  0  0
   -2.9126   -2.1052    0.0000 C   0  0  0  0  0  0  0  0  0
   -2.1981   -4.1677    0.0000 C   0  0  0  0  0  0  0  0  0
   -2.9126   -4.5802    0.0000 N   0  0  0  0  0  0  0  0  0
   -2.9126   -5.4052    0.0000 C   0  0  0  0  0  0  0  0  0
   -3.6271   -5.8177    0.0000 C   0  0  0  0  0  0  0  0  0
   -4.3416   -5.4052    0.0000 C   0  0  0  0  0  0  0  0  0
   -4.3416   -4.5802    0.0000 C   0  0  0  0  0  0  0  0  0
   -3.6271   -4.1677    0.0000 C   0  0  0  0  0  0  0  0  0
   -3.6271    1.6073    0.0000 C   0  0  0  0  0  0  0  0  0
   -2.9126    2.8448    0.0000 C   0  0  0  0  0  0  0  0  0
   -3.6271    3.2573    0.0000 C   0  0  0  0  0  0  0  0  0
   -3.6271    4.0823    0.0000 C   0  0  0  0  0  0  0  0  0
   -2.9126    4.4948    0.0000 C   0  0  0  0  0  0  0  0  0
   -2.1981    4.0823    0.0000 C   0  0  0  0  0  0  0  0  0
   -2.1981    3.2573    0.0000 C   0  0  0  0  0  0  0  0  0
  1  2  1  0  0  0  0
  1 22  1  0  0  0  0
  1 23  1  0  0  0  0
  2  3  1  0  0  0  0
  3  4  4  0  0  0  0
  3  8  4  0  0  0  0
  4  5  4  0  0  0  0
  5  6  4  0  0  0  0
  6  7  4  0  0  0  0
  6  9  1  0  0  0  0
  7  8  4  0  0  0  0
  9 10  4  0  0  0  0
  9 14  4  0  0  0  0
 10 11  4  0  0  0  0
 11 12  4  0  0  0  0
 12 13  4  0  0  0  0
 12 15  1  0  0  0  0
 13 14  4  0  0  0  0
 15 16  1  0  0  0  0
 16 17  1  0  0  0  0
 16 21  1  0  0  0  0
 17 18  1  0  0  0  0
 18 19  1  0  0  0  0
 19 20  1  0  0  0  0
 20 21  1  0  0  0  0
 23 24  1  0  0  0  0
 23 28  1  0  0  0  0
 24 25  1  0  0  0  0
 25 26  1  0  0  0  0
 26 27  1  0  0  0  0
 27 28  1  0  0  0  0
M  END
>  <Name_Molregno>
512996

>  <HISTAMINE H3>
8.56

$$$$
513060
  Marvin  02231216192D 0   1.00000     0.00000     0

 28 31  0  0  1  0  0  0  0  0999 V2000
    0.2986   -2.0073    0.0000 N   0  0  0  0  0  0  0  0  0
    1.0131   -2.4198    0.0000 C   0  0  0  0  0  0  0  0  0
    1.0131   -3.2448    0.0000 C   0  0  0  0  0  0  0  0  0
    0.2986   -3.6573    0.0000 C   0  0  0  0  0  0  0  0  0
   -0.4158   -3.2448    0.0000 C   0  0  0  0  0  0  0  0  0
   -0.4158   -2.4198    0.0000 C   0  0  0  0  0  0  0  0  0
   -1.1303   -3.6573    0.0000 C   0  0  0  0  0  0  0  0  0
    1.7276   -3.6573    0.0000 C   0  0  0  0  0  0  0  0  0
    0.2986   -1.1823    0.0000 C   0  0  0  0  0  0  0  0  0
    1.0131   -0.7698    0.0000 C   0  0  0  0  0  0  0  0  0
    1.0131    0.0552    0.0000 C   0  0  0  0  0  0  0  0  0
    1.7276    0.4677    0.0000 C   0  0  0  0  0  0  0  0  0
    2.4421    0.0552    0.0000 C   0  0  0  0  0  0  0  0  0
    2.4421   -0.7698    0.0000 C   0  0  0  0  0  0  0  0  0
    1.7276   -1.1823    0.0000 C   0  0  0  0  0  0  0  0  0
    3.1565    0.4677    0.0000 C   0  0  0  0  0  0  0  0  0
    3.1565    1.2927    0.0000 C   0  0  0  0  0  0  0  0  0
    3.8710    1.7052    0.0000 C   0  0  0  0  0  0  0  0  0
    4.5855    1.2927    0.0000 C   0  0  0  0  0  0  0  0  0
    4.5855    0.4677    0.0000 C   0  0  0  0  0  0  0  0  0
    3.8710    0.0552    0.0000 C   0  0  0  0  0  0  0  0  0
    5.2999    1.7052    0.0000 C   0  0  0  0  0  0  0  0  0
    6.0144    1.2927    0.0000 N   0  0  0  0  0  0  0  0  0
    6.7289    1.7052    0.0000 C   0  0  0  0  0  0  0  0  0
    7.4434    1.2927    0.0000 C   0  0  0  0  0  0  0  0  0
    7.4434    0.4677    0.0000 C   0  0  0  0  0  0  0  0  0
    6.7289    0.0552    0.0000 C   0  0  0  0  0  0  0  0  0
    6.0144    0.4677    0.0000 C   0  0  0  0  0  0  0  0  0
  1  2  1  0  0  0  0
  1  6  1  0  0  0  0
  1  9  1  0  0  0  0
  2  3  1  0  0  0  0
  3  4  1  0  0  0  0
  3  8  1  0  0  0  0
  4  5  1  0  0  0  0
  5  6  1  0  0  0  0
  5  7  1  0  0  0  0
  9 10  1  0  0  0  0
 10 11  4  0  0  0  0
 10 15  4  0  0  0  0
 11 12  4  0  0  0  0
 12 13  4  0  0  0  0
 13 14  4  0  0  0  0
 13 16  1  0  0  0  0
 14 15  4  0  0  0  0
 16 17  4  0  0  0  0
 16 21  4  0  0  0  0
 17 18  4  0  0  0  0
 18 19  4  0  0  0  0
 19 20  4  0  0  0  0
 19 22  1  0  0  0  0
 20 21  4  0  0  0  0
 22 23  1  0  0  0  0
 23 24  1  0  0  0  0
 23 28  1  0  0  0  0
 24 25  1  0  0  0  0
 25 26  1  0  0  0  0
 26 27  1  0  0  0  0
 27 28  1  0  0  0  0
M  END
>  <Name_Molregno>
513060

>  <HISTAMINE H3>
9.06

$$$$
513061
  Marvin  02231216192D 0   1.00000     0.00000     0

 26 29  0  0  0  0  0  0  0  0999 V2000
    1.6932   -3.5442    0.0000 O   0  0  0  0  0  0  0  0  0
    0.9787   -3.1317    0.0000 C   0  0  0  0  0  0  0  0  0
    0.9787   -2.3067    0.0000 C   0  0  0  0  0  0  0  0  0
    1.6932   -1.8942    0.0000 N   0  0  0  0  0  0  0  0  0
    2.4077   -2.3067    0.0000 C   0  0  0  0  0  0  0  0  0
    2.4077   -3.1317    0.0000 C   0  0  0  0  0  0  0  0  0
    1.6932   -1.0692    0.0000 C   0  0  0  0  0  0  0  0  0
    2.4077   -0.6567    0.0000 C   0  0  0  0  0  0  0  0  0
    2.4077    0.1683    0.0000 C   0  0  0  0  0  0  0  0  0
    3.1222    0.5808    0.0000 C   0  0  0  0  0  0  0  0  0
    3.8366    0.1683    0.0000 C   0  0  0  0  0  0  0  0  0
    3.8366   -0.6567    0.0000 C   0  0  0  0  0  0  0  0  0
    3.1222   -1.0692    0.0000 C   0  0  0  0  0  0  0  0  0
    4.5511    0.5808    0.0000 C   0  0  0  0  0  0  0  0  0
    4.5511    1.4058    0.0000 C   0  0  0  0  0  0  0  0  0
    5.2656    1.8183    0.0000 C   0  0  0  0  0  0  0  0  0
    5.9800    1.4058    0.0000 C   0  0  0  0  0  0  0  0  0
    5.9800    0.5808    0.0000 C   0  0  0  0  0  0  0  0  0
    5.2656    0.1683    0.0000 C   0  0  0  0  0  0  0  0  0
    6.6945    1.8183    0.0000 C   0  0  0  0  0  0  0  0  0
    7.4090    1.4058    0.0000 N   0  0  0  0  0  0  0  0  0
    8.1234    1.8183    0.0000 C   0  0  0  0  0  0  0  0  0
    8.8379    1.4058    0.0000 C   0  0  0  0  0  0  0  0  0
    8.8379    0.5808    0.0000 C   0  0  0  0  0  0  0  0  0
    8.1234    0.1683    0.0000 C   0  0  0  0  0  0  0  0  0
    7.4090    0.5808    0.0000 C   0  0  0  0  0  0  0  0  0
  1  2  1  0  0  0  0
  1  6  1  0  0  0  0
  2  3  1  0  0  0  0
  3  4  1  0  0  0  0
  4  5  1  0  0  0  0
  4  7  1  0  0  0  0
  5  6  1  0  0  0  0
  7  8  1  0  0  0  0
  8  9  4  0  0  0  0
  8 13  4  0  0  0  0
  9 10  4  0  0  0  0
 10 11  4  0  0  0  0
 11 12  4  0  0  0  0
 11 14  1  0  0  0  0
 12 13  4  0  0  0  0
 14 15  4  0  0  0  0
 14 19  4  0  0  0  0
 15 16  4  0  0  0  0
 16 17  4  0  0  0  0
 17 18  4  0  0  0  0
 17 20  1  0  0  0  0
 18 19  4  0  0  0  0
 20 21  1  0  0  0  0
 21 22  1  0  0  0  0
 21 26  1  0  0  0  0
 22 23  1  0  0  0  0
 23 24  1  0  0  0  0
 24 25  1  0  0  0  0
 25 26  1  0  0  0  0
M  END
>  <Name_Molregno>
513061

>  <HISTAMINE H3>
7.71

$$$$
513062
  Marvin  02231216192D 0   1.00000     0.00000     0

 29 32  0  0  0  0  0  0  0  0999 V2000
   -2.5787    1.6742    0.0000 O   0  0  0  0  0  0  0  0  0
   -1.8642    1.2617    0.0000 C   0  0  0  0  0  0  0  0  0
   -1.8642    0.4367    0.0000 C   0  0  0  0  0  0  0  0  0
   -1.1498    0.0242    0.0000 C   0  0  0  0  0  0  0  0  0
   -1.1498   -0.8008    0.0000 C   0  0  0  0  0  0  0  0  0
   -1.8642   -1.2133    0.0000 C   0  0  0  0  0  0  0  0  0
   -2.5787   -0.8008    0.0000 C   0  0  0  0  0  0  0  0  0
   -2.5787    0.0242    0.0000 C   0  0  0  0  0  0  0  0  0
   -1.8642   -2.0383    0.0000 C   0  0  0  0  0  0  0  0  0
   -1.1498   -2.4508    0.0000 C   0  0  0  0  0  0  0  0  0
   -1.1498   -3.2758    0.0000 C   0  0  0  0  0  0  0  0  0
   -1.8642   -3.6883    0.0000 C   0  0  0  0  0  0  0  0  0
   -2.5787   -3.2758    0.0000 C   0  0  0  0  0  0  0  0  0
   -2.5787   -2.4508    0.0000 C   0  0  0  0  0  0  0  0  0
   -1.8642   -4.5133    0.0000 C   0  0  0  0  0  0  0  0  0
   -2.5787   -4.9258    0.0000 N   0  0  0  0  0  0  0  0  0
   -2.5787   -5.7508    0.0000 C   0  0  0  0  0  0  0  0  0
   -3.2932   -6.1633    0.0000 C   0  0  0  0  0  0  0  0  0
   -4.0076   -5.7508    0.0000 C   0  0  0  0  0  0  0  0  0
   -4.0076   -4.9258    0.0000 C   0  0  0  0  0  0  0  0  0
   -3.2932   -4.5133    0.0000 C   0  0  0  0  0  0  0  0  0
   -2.5787    2.4992    0.0000 C   0  0  0  0  0  0  0  0  0
   -3.2932    2.9117    0.0000 C   0  0  0  0  0  0  0  0  0
   -3.2932    3.7367    0.0000 C   0  0  0  0  0  0  0  0  0
   -2.5787    4.1492    0.0000 C   0  0  0  0  0  0  0  0  0
   -1.8642    3.7367    0.0000 C   0  0  0  0  0  0  0  0  0
   -1.8642    2.9117    0.0000 C   0  0  0  0  0  0  0  0  0
   -2.5787    4.9742    0.0000 C   0  0  0  0  0  0  0  0  0
   -2.5787    5.7992    0.0000 N   0  0  0  0  0  0  0  0  0
  1  2  1  0  0  0  0
  1 22  1  0  0  0  0
  2  3  1  0  0  0  0
  3  4  4  0  0  0  0
  3  8  4  0  0  0  0
  4  5  4  0  0  0  0
  5  6  4  0  0  0  0
  6  7  4  0  0  0  0
  6  9  1  0  0  0  0
  7  8  4  0  0  0  0
  9 10  4  0  0  0  0
  9 14  4  0  0  0  0
 10 11  4  0  0  0  0
 11 12  4  0  0  0  0
 12 13  4  0  0  0  0
 12 15  1  0  0  0  0
 13 14  4  0  0  0  0
 15 16  1  0  0  0  0
 16 17  1  0  0  0  0
 16 21  1  0  0  0  0
 17 18  1  0  0  0  0
 18 19  1  0  0  0  0
 19 20  1  0  0  0  0
 20 21  1  0  0  0  0
 22 23  4  0  0  0  0
 22 27  4  0  0  0  0
 23 24  4  0  0  0  0
 24 25  4  0  0  0  0
 25 26  4  0  0  0  0
 25 28  1  0  0  0  0
 26 27  4  0  0  0  0
 28 29  3  0  0  0  0
M  END
>  <Name_Molregno>
513062

>  <HISTAMINE H3>
7.12

$$$$
513063
  Marvin  02231216192D 0   1.00000     0.00000     0

 23 25  0  0  0  0  0  0  0  0999 V2000
   -2.7560    2.8746    0.0000 N   0  0  0  0  0  0  0  0  0
   -3.4705    2.4621    0.0000 C   0  0  0  0  0  0  0  0  0
   -3.4705    1.6371    0.0000 C   0  0  0  0  0  0  0  0  0
   -2.7560    1.2246    0.0000 C   0  0  0  0  0  0  0  0  0
   -2.7560    0.3996    0.0000 C   0  0  0  0  0  0  0  0  0
   -3.4705   -0.0129    0.0000 C   0  0  0  0  0  0  0  0  0
   -4.1850    0.3996    0.0000 C   0  0  0  0  0  0  0  0  0
   -4.1850    1.2246    0.0000 C   0  0  0  0  0  0  0  0  0
   -3.4705   -0.8379    0.0000 C   0  0  0  0  0  0  0  0  0
   -2.7560   -1.2504    0.0000 C   0  0  0  0  0  0  0  0  0
   -2.7560   -2.0754    0.0000 C   0  0  0  0  0  0  0  0  0
   -3.4705   -2.4879    0.0000 C   0  0  0  0  0  0  0  0  0
   -4.1850   -2.0754    0.0000 C   0  0  0  0  0  0  0  0  0
   -4.1850   -1.2504    0.0000 C   0  0  0  0  0  0  0  0  0
   -3.4705   -3.3129    0.0000 C   0  0  0  0  0  0  0  0  0
   -4.1850   -3.7254    0.0000 N   0  0  0  0  0  0  0  0  0
   -4.1850   -4.5504    0.0000 C   0  0  0  0  0  0  0  0  0
   -4.8994   -4.9629    0.0000 C   0  0  0  0  0  0  0  0  0
   -5.6139   -4.5504    0.0000 C   0  0  0  0  0  0  0  0  0
   -5.6139   -3.7254    0.0000 C   0  0  0  0  0  0  0  0  0
   -4.8994   -3.3129    0.0000 C   0  0  0  0  0  0  0  0  0
   -2.7560    3.6996    0.0000 C   0  0  0  0  0  0  0  0  0
   -2.0415    2.4621    0.0000 C   0  0  0  0  0  0  0  0  0
  1  2  1  0  0  0  0
  1 22  1  0  0  0  0
  1 23  1  0  0  0  0
  2  3  1  0  0  0  0
  3  4  4  0  0  0  0
  3  8  4  0  0  0  0
  4  5  4  0  0  0  0
  5  6  4  0  0  0  0
  6  7  4  0  0  0  0
  6  9  1  0  0  0  0
  7  8  4  0  0  0  0
  9 10  4  0  0  0  0
  9 14  4  0  0  0  0
 10 11  4  0  0  0  0
 11 12  4  0  0  0  0
 12 13  4  0  0  0  0
 12 15  1  0  0  0  0
 13 14  4  0  0  0  0
 15 16  1  0  0  0  0
 16 17  1  0  0  0  0
 16 21  1  0  0  0  0
 17 18  1  0  0  0  0
 18 19  1  0  0  0  0
 19 20  1  0  0  0  0
 20 21  1  0  0  0  0
M  END
>  <Name_Molregno>
513063

>  <HISTAMINE H3>
8.66

$$$$
513064
  Marvin  02231216192D 0   1.00000     0.00000     0

 25 27  0  0  0  0  0  0  0  0999 V2000
   -3.4893    4.3001    0.0000 N   0  0  0  0  0  0  0  0  0
   -2.7748    3.8876    0.0000 C   0  0  0  0  0  0  0  0  0
   -2.7748    3.0626    0.0000 C   0  0  0  0  0  0  0  0  0
   -2.0604    2.6501    0.0000 C   0  0  0  0  0  0  0  0  0
   -2.0604    1.8251    0.0000 C   0  0  0  0  0  0  0  0  0
   -2.7748    1.4126    0.0000 C   0  0  0  0  0  0  0  0  0
   -3.4893    1.8251    0.0000 C   0  0  0  0  0  0  0  0  0
   -3.4893    2.6501    0.0000 C   0  0  0  0  0  0  0  0  0
   -2.7748    0.5876    0.0000 C   0  0  0  0  0  0  0  0  0
   -2.0604    0.1751    0.0000 C   0  0  0  0  0  0  0  0  0
   -2.0604   -0.6499    0.0000 C   0  0  0  0  0  0  0  0  0
   -2.7748   -1.0624    0.0000 C   0  0  0  0  0  0  0  0  0
   -3.4893   -0.6499    0.0000 C   0  0  0  0  0  0  0  0  0
   -3.4893    0.1751    0.0000 C   0  0  0  0  0  0  0  0  0
   -2.7748   -1.8874    0.0000 C   0  0  0  0  0  0  0  0  0
   -3.4893   -2.2999    0.0000 N   0  0  0  0  0  0  0  0  0
   -3.4893   -3.1249    0.0000 C   0  0  0  0  0  0  0  0  0
   -4.2038   -3.5374    0.0000 C   0  0  0  0  0  0  0  0  0
   -4.9183   -3.1249    0.0000 C   0  0  0  0  0  0  0  0  0
   -4.9183   -2.2999    0.0000 C   0  0  0  0  0  0  0  0  0
   -4.2038   -1.8874    0.0000 C   0  0  0  0  0  0  0  0  0
   -3.4893    5.1251    0.0000 C   0  0  0  0  0  0  0  0  0
   -4.2038    5.5376    0.0000 C   0  0  0  0  0  0  0  0  0
   -4.2038    3.8876    0.0000 C   0  0  0  0  0  0  0  0  0
   -4.9183    4.3001    0.0000 C   0  0  0  0  0  0  0  0  0
  1  2  1  0  0  0  0
  1 22  1  0  0  0  0
  1 24  1  0  0  0  0
  2  3  1  0  0  0  0
  3  4  4  0  0  0  0
  3  8  4  0  0  0  0
  4  5  4  0  0  0  0
  5  6  4  0  0  0  0
  6  7  4  0  0  0  0
  6  9  1  0  0  0  0
  7  8  4  0  0  0  0
  9 10  4  0  0  0  0
  9 14  4  0  0  0  0
 10 11  4  0  0  0  0
 11 12  4  0  0  0  0
 12 13  4  0  0  0  0
 12 15  1  0  0  0  0
 13 14  4  0  0  0  0
 15 16  1  0  0  0  0
 16 17  1  0  0  0  0
 16 21  1  0  0  0  0
 17 18  1  0  0  0  0
 18 19  1  0  0  0  0
 19 20  1  0  0  0  0
 20 21  1  0  0  0  0
 22 23  1  0  0  0  0
 24 25  1  0  0  0  0
M  END
>  <Name_Molregno>
513064

>  <HISTAMINE H3>
8.71

$$$$
513132
  Marvin  02231216192D 0   1.00000     0.00000     0

 27 29  0  0  0  0  0  0  0  0999 V2000
    0.6595    1.4105    0.0000 N   0  0  0  0  0  0  0  0  0
    0.6595    0.5855    0.0000 C   0  0  0  0  0  0  0  0  0
    1.3740    0.1730    0.0000 C   0  0  0  0  0  0  0  0  0
    2.0884    0.5855    0.0000 C   0  0  0  0  0  0  0  0  0
    2.8029    0.1730    0.0000 C   0  0  0  0  0  0  0  0  0
    2.8029   -0.6520    0.0000 C   0  0  0  0  0  0  0  0  0
    2.0884   -1.0645    0.0000 C   0  0  0  0  0  0  0  0  0
    1.3740   -0.6520    0.0000 C   0  0  0  0  0  0  0  0  0
    3.5174   -1.0645    0.0000 C   0  0  0  0  0  0  0  0  0
    4.2319   -0.6520    0.0000 C   0  0  0  0  0  0  0  0  0
    4.9463   -1.0645    0.0000 C   0  0  0  0  0  0  0  0  0
    4.9463   -1.8895    0.0000 C   0  0  0  0  0  0  0  0  0
    4.2319   -2.3020    0.0000 C   0  0  0  0  0  0  0  0  0
    3.5174   -1.8895    0.0000 C   0  0  0  0  0  0  0  0  0
    5.6608   -2.3020    0.0000 C   0  0  0  0  0  0  0  0  0
    5.6608   -3.1270    0.0000 N   0  0  0  0  0  0  0  0  0
    6.3753   -3.5395    0.0000 C   0  0  0  0  0  0  0  0  0
    6.3753   -4.3645    0.0000 C   0  0  0  0  0  0  0  0  0
    5.6608   -4.7770    0.0000 C   0  0  0  0  0  0  0  0  0
    4.9463   -4.3645    0.0000 C   0  0  0  0  0  0  0  0  0
    4.9463   -3.5395    0.0000 C   0  0  0  0  0  0  0  0  0
   -0.0550    1.8230    0.0000 C   0  0  0  0  0  0  0  0  0
   -0.0550    2.6480    0.0000 C   0  0  0  0  0  0  0  0  0
   -0.7694    3.0605    0.0000 C   0  0  0  0  0  0  0  0  0
    1.3740    1.8230    0.0000 C   0  0  0  0  0  0  0  0  0
    1.3740    2.6480    0.0000 C   0  0  0  0  0  0  0  0  0
    2.0884    3.0605    0.0000 C   0  0  0  0  0  0  0  0  0
  1  2  1  0  0  0  0
  1 22  1  0  0  0  0
  1 25  1  0  0  0  0
  2  3  1  0  0  0  0
  3  4  4  0  0  0  0
  3  8  4  0  0  0  0
  4  5  4  0  0  0  0
  5  6  4  0  0  0  0
  6  7  4  0  0  0  0
  6  9  1  0  0  0  0
  7  8  4  0  0  0  0
  9 10  4  0  0  0  0
  9 14  4  0  0  0  0
 10 11  4  0  0  0  0
 11 12  4  0  0  0  0
 12 13  4  0  0  0  0
 12 15  1  0  0  0  0
 13 14  4  0  0  0  0
 15 16  1  0  0  0  0
 16 17  1  0  0  0  0
 16 21  1  0  0  0  0
 17 18  1  0  0  0  0
 18 19  1  0  0  0  0
 19 20  1  0  0  0  0
 20 21  1  0  0  0  0
 22 23  1  0  0  0  0
 23 24  1  0  0  0  0
 25 26  1  0  0  0  0
 26 27  1  0  0  0  0
M  END
>  <Name_Molregno>
513132

>  <HISTAMINE H3>
8.76

$$$$
513133
  Marvin  02231216192D 0   1.00000     0.00000     0

 27 30  0  0  0  0  0  0  0  0999 V2000
    0.3199   -2.1618    0.0000 N   0  0  0  0  0  0  0  0  0
    1.0344   -2.5743    0.0000 C   0  0  0  0  0  0  0  0  0
    1.0344   -3.3993    0.0000 C   0  0  0  0  0  0  0  0  0
    0.3199   -3.8118    0.0000 C   0  0  0  0  0  0  0  0  0
   -0.3946   -3.3993    0.0000 C   0  0  0  0  0  0  0  0  0
   -0.3946   -2.5743    0.0000 C   0  0  0  0  0  0  0  0  0
    0.3199   -4.6368    0.0000 C   0  0  0  0  0  0  0  0  0
    0.3199   -1.3368    0.0000 C   0  0  0  0  0  0  0  0  0
    1.0344   -0.9243    0.0000 C   0  0  0  0  0  0  0  0  0
    1.0344   -0.0993    0.0000 C   0  0  0  0  0  0  0  0  0
    1.7488    0.3132    0.0000 C   0  0  0  0  0  0  0  0  0
    2.4633   -0.0993    0.0000 C   0  0  0  0  0  0  0  0  0
    2.4633   -0.9243    0.0000 C   0  0  0  0  0  0  0  0  0
    1.7488   -1.3368    0.0000 C   0  0  0  0  0  0  0  0  0
    3.1778    0.3132    0.0000 C   0  0  0  0  0  0  0  0  0
    3.1778    1.1382    0.0000 C   0  0  0  0  0  0  0  0  0
    3.8922    1.5507    0.0000 C   0  0  0  0  0  0  0  0  0
    4.6067    1.1382    0.0000 C   0  0  0  0  0  0  0  0  0
    4.6067    0.3132    0.0000 C   0  0  0  0  0  0  0  0  0
    3.8922   -0.0993    0.0000 C   0  0  0  0  0  0  0  0  0
    5.3212    1.5507    0.0000 C   0  0  0  0  0  0  0  0  0
    6.0356    1.1382    0.0000 N   0  0  0  0  0  0  0  0  0
    6.7501    1.5507    0.0000 C   0  0  0  0  0  0  0  0  0
    7.4646    1.1382    0.0000 C   0  0  0  0  0  0  0  0  0
    7.4646    0.3132    0.0000 C   0  0  0  0  0  0  0  0  0
    6.7501   -0.0993    0.0000 C   0  0  0  0  0  0  0  0  0
    6.0356    0.3132    0.0000 C   0  0  0  0  0  0  0  0  0
  1  2  1  0  0  0  0
  1  6  1  0  0  0  0
  1  8  1  0  0  0  0
  2  3  1  0  0  0  0
  3  4  1  0  0  0  0
  4  5  1  0  0  0  0
  4  7  1  0  0  0  0
  5  6  1  0  0  0  0
  8  9  1  0  0  0  0
  9 10  4  0  0  0  0
  9 14  4  0  0  0  0
 10 11  4  0  0  0  0
 11 12  4  0  0  0  0
 12 13  4  0  0  0  0
 12 15  1  0  0  0  0
 13 14  4  0  0  0  0
 15 16  4  0  0  0  0
 15 20  4  0  0  0  0
 16 17  4  0  0  0  0
 17 18  4  0  0  0  0
 18 19  4  0  0  0  0
 18 21  1  0  0  0  0
 19 20  4  0  0  0  0
 21 22  1  0  0  0  0
 22 23  1  0  0  0  0
 22 27  1  0  0  0  0
 23 24  1  0  0  0  0
 24 25  1  0  0  0  0
 25 26  1  0  0  0  0
 26 27  1  0  0  0  0
M  END
>  <Name_Molregno>
513133

>  <HISTAMINE H3>
8.62

$$$$
513134
  Marvin  02231216192D 0   1.00000     0.00000     0

 29 32  0  0  0  0  0  0  0  0999 V2000
    3.0902    2.2534    0.0000 N   0  0  0  0  0  0  0  0  0
    2.3757    1.8409    0.0000 C   0  0  0  0  0  0  0  0  0
    2.3757    1.0159    0.0000 C   0  0  0  0  0  0  0  0  0
    3.0902    0.6034    0.0000 C   0  0  0  0  0  0  0  0  0
    3.0902   -0.2216    0.0000 C   0  0  0  0  0  0  0  0  0
    2.3757   -0.6341    0.0000 C   0  0  0  0  0  0  0  0  0
    1.6613   -0.2216    0.0000 C   0  0  0  0  0  0  0  0  0
    1.6613    0.6034    0.0000 C   0  0  0  0  0  0  0  0  0
    2.3757   -1.4591    0.0000 C   0  0  0  0  0  0  0  0  0
    3.0902   -1.8716    0.0000 C   0  0  0  0  0  0  0  0  0
    3.0902   -2.6966    0.0000 C   0  0  0  0  0  0  0  0  0
    2.3757   -3.1091    0.0000 C   0  0  0  0  0  0  0  0  0
    1.6613   -2.6966    0.0000 C   0  0  0  0  0  0  0  0  0
    1.6613   -1.8716    0.0000 C   0  0  0  0  0  0  0  0  0
    2.3757   -3.9341    0.0000 C   0  0  0  0  0  0  0  0  0
    1.6613   -4.3466    0.0000 N   0  0  0  0  0  0  0  0  0
    1.6613   -5.1716    0.0000 C   0  0  0  0  0  0  0  0  0
    0.9468   -5.5841    0.0000 C   0  0  0  0  0  0  0  0  0
    0.2323   -5.1716    0.0000 C   0  0  0  0  0  0  0  0  0
    0.2323   -4.3466    0.0000 C   0  0  0  0  0  0  0  0  0
    0.9468   -3.9341    0.0000 C   0  0  0  0  0  0  0  0  0
    3.0902    3.0784    0.0000 C   0  0  0  0  0  0  0  0  0
    3.8047    3.4909    0.0000 C   0  0  0  0  0  0  0  0  0
    3.8047    4.3159    0.0000 C   0  0  0  0  0  0  0  0  0
    4.5192    4.7284    0.0000 C   0  0  0  0  0  0  0  0  0
    5.2336    4.3159    0.0000 C   0  0  0  0  0  0  0  0  0
    5.2336    3.4909    0.0000 C   0  0  0  0  0  0  0  0  0
    4.5192    3.0784    0.0000 C   0  0  0  0  0  0  0  0  0
    3.8047    1.8409    0.0000 C   0  0  0  0  0  0  0  0  0
  1  2  1  0  0  0  0
  1 22  1  0  0  0  0
  1 29  1  0  0  0  0
  2  3  1  0  0  0  0
  3  4  4  0  0  0  0
  3  8  4  0  0  0  0
  4  5  4  0  0  0  0
  5  6  4  0  0  0  0
  6  7  4  0  0  0  0
  6  9  1  0  0  0  0
  7  8  4  0  0  0  0
  9 10  4  0  0  0  0
  9 14  4  0  0  0  0
 10 11  4  0  0  0  0
 11 12  4  0  0  0  0
 12 13  4  0  0  0  0
 12 15  1  0  0  0  0
 13 14  4  0  0  0  0
 15 16  1  0  0  0  0
 16 17  1  0  0  0  0
 16 21  1  0  0  0  0
 17 18  1  0  0  0  0
 18 19  1  0  0  0  0
 19 20  1  0  0  0  0
 20 21  1  0  0  0  0
 22 23  1  0  0  0  0
 23 24  4  0  0  0  0
 23 28  4  0  0  0  0
 24 25  4  0  0  0  0
 25 26  4  0  0  0  0
 26 27  4  0  0  0  0
 27 28  4  0  0  0  0
M  END
>  <Name_Molregno>
513134

>  <HISTAMINE H3>
8.17

$$$$
513193
  Marvin  02231216192D 0   1.00000     0.00000     0

 22 23  0  0  0  0  0  0  0  0999 V2000
    3.5618    3.4207    0.0000 N   0  0  0  0  0  0  0  0  0
    3.5618    2.5957    0.0000 C   0  0  0  0  0  0  0  0  0
    4.2762    2.1832    0.0000 C   0  0  0  0  0  0  0  0  0
    4.2762    1.3582    0.0000 C   0  0  0  0  0  0  0  0  0
    4.9907    0.9457    0.0000 C   0  0  0  0  0  0  0  0  0
    4.9907    0.1207    0.0000 C   0  0  0  0  0  0  0  0  0
    4.2762   -0.2918    0.0000 C   0  0  0  0  0  0  0  0  0
    3.5618    0.1207    0.0000 C   0  0  0  0  0  0  0  0  0
    3.5618    0.9457    0.0000 C   0  0  0  0  0  0  0  0  0
    4.2762   -1.1168    0.0000 C   0  0  0  0  0  0  0  0  0
    4.9907   -1.5293    0.0000 C   0  0  0  0  0  0  0  0  0
    4.9907   -2.3543    0.0000 C   0  0  0  0  0  0  0  0  0
    4.2762   -2.7668    0.0000 C   0  0  0  0  0  0  0  0  0
    3.5618   -2.3543    0.0000 C   0  0  0  0  0  0  0  0  0
    3.5618   -1.5293    0.0000 C   0  0  0  0  0  0  0  0  0
    4.2762   -3.5918    0.0000 C   0  0  0  0  0  0  0  0  0
    3.5618   -4.0043    0.0000 C   0  0  0  0  0  0  0  0  0
    3.5618   -4.8293    0.0000 N   0  0  0  0  0  0  0  0  0
    2.8473   -5.2418    0.0000 C   0  0  0  0  0  0  0  0  0
    4.2762   -5.2418    0.0000 C   0  0  0  0  0  0  0  0  0
    2.8473    3.8332    0.0000 C   0  0  0  0  0  0  0  0  0
    4.2762    3.8332    0.0000 C   0  0  0  0  0  0  0  0  0
  1  2  1  0  0  0  0
  1 21  1  0  0  0  0
  1 22  1  0  0  0  0
  2  3  1  0  0  0  0
  3  4  1  0  0  0  0
  4  5  4  0  0  0  0
  4  9  4  0  0  0  0
  5  6  4  0  0  0  0
  6  7  4  0  0  0  0
  7  8  4  0  0  0  0
  7 10  1  0  0  0  0
  8  9  4  0  0  0  0
 10 11  4  0  0  0  0
 10 15  4  0  0  0  0
 11 12  4  0  0  0  0
 12 13  4  0  0  0  0
 13 14  4  0  0  0  0
 13 16  1  0  0  0  0
 14 15  4  0  0  0  0
 16 17  1  0  0  0  0
 17 18  1  0  0  0  0
 18 19  1  0  0  0  0
 18 20  1  0  0  0  0
M  END
>  <Name_Molregno>
513193

>  <HISTAMINE H3>
8.29

$$$$
513194
  Marvin  02231216192D 0   1.00000     0.00000     0

 30 33  0  0  0  0  0  0  0  0999 V2000
    4.7368   -4.7946    0.0000 N   0  0  0  0  0  0  0  0  0
    5.4513   -5.2071    0.0000 C   0  0  0  0  0  0  0  0  0
    5.4513   -6.0321    0.0000 C   0  0  0  0  0  0  0  0  0
    4.7368   -6.4446    0.0000 C   0  0  0  0  0  0  0  0  0
    4.0223   -6.0321    0.0000 C   0  0  0  0  0  0  0  0  0
    4.0223   -5.2071    0.0000 C   0  0  0  0  0  0  0  0  0
    4.7368   -7.2696    0.0000 C   0  0  0  0  0  0  0  0  0
    4.7368   -3.9696    0.0000 C   0  0  0  0  0  0  0  0  0
    4.0223   -3.5571    0.0000 C   0  0  0  0  0  0  0  0  0
    4.0223   -2.7321    0.0000 C   0  0  0  0  0  0  0  0  0
    3.3079   -2.3196    0.0000 C   0  0  0  0  0  0  0  0  0
    3.3079   -1.4946    0.0000 C   0  0  0  0  0  0  0  0  0
    4.0223   -1.0821    0.0000 C   0  0  0  0  0  0  0  0  0
    4.7368   -1.4946    0.0000 C   0  0  0  0  0  0  0  0  0
    4.7368   -2.3196    0.0000 C   0  0  0  0  0  0  0  0  0
    4.0223   -0.2571    0.0000 C   0  0  0  0  0  0  0  0  0
    3.3079    0.1554    0.0000 C   0  0  0  0  0  0  0  0  0
    3.3079    0.9804    0.0000 C   0  0  0  0  0  0  0  0  0
    4.0223    1.3929    0.0000 C   0  0  0  0  0  0  0  0  0
    4.7368    0.9804    0.0000 C   0  0  0  0  0  0  0  0  0
    4.7368    0.1554    0.0000 C   0  0  0  0  0  0  0  0  0
    4.0223    2.2179    0.0000 C   0  0  0  0  0  0  0  0  0
    3.3079    2.6304    0.0000 C   0  0  0  0  0  0  0  0  0
    3.3079    3.4554    0.0000 N   0  0  0  0  0  0  0  0  0
    2.5934    3.8679    0.0000 C   0  0  0  0  0  0  0  0  0
    2.5934    4.6929    0.0000 C   0  0  0  0  0  0  0  0  0
    3.3079    5.1054    0.0000 C   0  0  0  0  0  0  0  0  0
    4.0223    4.6929    0.0000 C   0  0  0  0  0  0  0  0  0
    4.0223    3.8679    0.0000 C   0  0  0  0  0  0  0  0  0
    3.3079    5.9304    0.0000 C   0  0  0  0  0  0  0  0  0
  1  2  1  0  0  0  0
  1  6  1  0  0  0  0
  1  8  1  0  0  0  0
  2  3  1  0  0  0  0
  3  4  1  0  0  0  0
  4  5  1  0  0  0  0
  4  7  1  0  0  0  0
  5  6  1  0  0  0  0
  8  9  1  0  0  0  0
  9 10  1  0  0  0  0
 10 11  4  0  0  0  0
 10 15  4  0  0  0  0
 11 12  4  0  0  0  0
 12 13  4  0  0  0  0
 13 14  4  0  0  0  0
 13 16  1  0  0  0  0
 14 15  4  0  0  0  0
 16 17  4  0  0  0  0
 16 21  4  0  0  0  0
 17 18  4  0  0  0  0
 18 19  4  0  0  0  0
 19 20  4  0  0  0  0
 19 22  1  0  0  0  0
 20 21  4  0  0  0  0
 22 23  1  0  0  0  0
 23 24  1  0  0  0  0
 24 25  1  0  0  0  0
 24 29  1  0  0  0  0
 25 26  1  0  0  0  0
 26 27  1  0  0  0  0
 27 28  1  0  0  0  0
 27 30  1  0  0  0  0
 28 29  1  0  0  0  0
M  END
>  <Name_Molregno>
513194

>  <HISTAMINE H3>
7.78

$$$$
513195
  Marvin  02231216192D 0   1.00000     0.00000     0

 27 30  0  0  0  0  0  0  0  0999 V2000
    0.6901   -1.7837    0.0000 N   0  0  0  0  0  0  0  0  0
    1.4046   -2.1962    0.0000 C   0  0  0  0  0  0  0  0  0
    1.4046   -3.0212    0.0000 C   0  0  0  0  0  0  0  0  0
    0.6901   -3.4337    0.0000 C   0  0  0  0  0  0  0  0  0
   -0.0244   -3.0212    0.0000 C   0  0  0  0  0  0  0  0  0
   -0.0244   -2.1962    0.0000 C   0  0  0  0  0  0  0  0  0
    0.6901   -0.9587    0.0000 C   0  0  0  0  0  0  0  0  0
    1.4046   -0.5462    0.0000 C   0  0  0  0  0  0  0  0  0
    1.4046    0.2788    0.0000 C   0  0  0  0  0  0  0  0  0
    2.1190    0.6913    0.0000 C   0  0  0  0  0  0  0  0  0
    2.8335    0.2788    0.0000 C   0  0  0  0  0  0  0  0  0
    2.8335   -0.5462    0.0000 C   0  0  0  0  0  0  0  0  0
    2.1190   -0.9587    0.0000 C   0  0  0  0  0  0  0  0  0
    3.5480    0.6913    0.0000 C   0  0  0  0  0  0  0  0  0
    3.5480    1.5163    0.0000 C   0  0  0  0  0  0  0  0  0
    4.2624    1.9288    0.0000 C   0  0  0  0  0  0  0  0  0
    4.9769    1.5163    0.0000 C   0  0  0  0  0  0  0  0  0
    4.9769    0.6913    0.0000 C   0  0  0  0  0  0  0  0  0
    4.2624    0.2788    0.0000 C   0  0  0  0  0  0  0  0  0
    5.6914    1.9288    0.0000 C   0  0  0  0  0  0  0  0  0
    5.6914    2.7538    0.0000 C   0  0  0  0  0  0  0  0  0
    6.4059    3.1663    0.0000 N   0  0  0  0  0  0  0  0  0
    6.4059    3.9913    0.0000 C   0  0  0  0  0  0  0  0  0
    7.1203    4.4038    0.0000 C   0  0  0  0  0  0  0  0  0
    7.8348    3.9913    0.0000 C   0  0  0  0  0  0  0  0  0
    7.8348    3.1663    0.0000 C   0  0  0  0  0  0  0  0  0
    7.1203    2.7538    0.0000 C   0  0  0  0  0  0  0  0  0
  1  2  1  0  0  0  0
  1  6  1  0  0  0  0
  1  7  1  0  0  0  0
  2  3  1  0  0  0  0
  3  4  1  0  0  0  0
  4  5  1  0  0  0  0
  5  6  1  0  0  0  0
  7  8  1  0  0  0  0
  8  9  4  0  0  0  0
  8 13  4  0  0  0  0
  9 10  4  0  0  0  0
 10 11  4  0  0  0  0
 11 12  4  0  0  0  0
 11 14  1  0  0  0  0
 12 13  4  0  0  0  0
 14 15  4  0  0  0  0
 14 19  4  0  0  0  0
 15 16  4  0  0  0  0
 16 17  4  0  0  0  0
 17 18  4  0  0  0  0
 17 20  1  0  0  0  0
 18 19  4  0  0  0  0
 20 21  1  0  0  0  0
 21 22  1  0  0  0  0
 22 23  1  0  0  0  0
 22 27  1  0  0  0  0
 23 24  1  0  0  0  0
 24 25  1  0  0  0  0
 25 26  1  0  0  0  0
 26 27  1  0  0  0  0
M  END
>  <Name_Molregno>
513195

>  <HISTAMINE H3>
8.7

$$$$
513309
  Marvin  02231216192D 0   1.00000     0.00000     0

 29 31  0  0  0  0  0  0  0  0999 V2000
    5.5157   -0.5397    0.0000 O   0  0  0  0  0  0  0  0  0
    5.5157   -1.3647    0.0000 C   0  0  0  0  0  0  0  0  0
    6.2302   -1.7772    0.0000 N   0  0  0  0  0  0  0  0  0
    6.9447   -1.3647    0.0000 C   0  0  0  0  0  0  0  0  0
    7.6592   -1.7772    0.0000 C   0  0  0  0  0  0  0  0  0
    7.6592   -2.6022    0.0000 C   0  0  0  0  0  0  0  0  0
    6.9447   -3.0147    0.0000 C   0  0  0  0  0  0  0  0  0
    6.2302   -2.6022    0.0000 C   0  0  0  0  0  0  0  0  0
    4.8013   -1.7772    0.0000 C   0  0  0  0  0  0  0  0  0
    4.0868   -1.3647    0.0000 C   0  0  0  0  0  0  0  0  0
    3.3723   -1.7772    0.0000 C   0  0  0  0  0  0  0  0  0
    2.6579   -1.3647    0.0000 C   0  0  0  0  0  0  0  0  0
    2.6579   -0.5397    0.0000 C   0  0  0  0  0  0  0  0  0
    3.3723   -0.1272    0.0000 C   0  0  0  0  0  0  0  0  0
    4.0868   -0.5397    0.0000 C   0  0  0  0  0  0  0  0  0
    1.9434   -0.1272    0.0000 C   0  0  0  0  0  0  0  0  0
    1.2289   -0.5397    0.0000 C   0  0  0  0  0  0  0  0  0
    0.5144   -0.1272    0.0000 C   0  0  0  0  0  0  0  0  0
    0.5144    0.6978    0.0000 C   0  0  0  0  0  0  0  0  0
    1.2289    1.1103    0.0000 C   0  0  0  0  0  0  0  0  0
    1.9434    0.6978    0.0000 C   0  0  0  0  0  0  0  0  0
   -0.2000    1.1103    0.0000 C   0  0  0  0  0  0  0  0  0
   -0.2000    1.9353    0.0000 N   0  0  0  0  0  0  0  0  0
   -0.9145    2.3478    0.0000 C   0  0  0  0  0  0  0  0  0
   -0.9145    3.1728    0.0000 C   0  0  0  0  0  0  0  0  0
   -1.6290    3.5853    0.0000 C   0  0  0  0  0  0  0  0  0
    0.5144    2.3478    0.0000 C   0  0  0  0  0  0  0  0  0
    0.5144    3.1728    0.0000 C   0  0  0  0  0  0  0  0  0
    1.2289    3.5853    0.0000 C   0  0  0  0  0  0  0  0  0
  1  2  2  0  0  0  0
  2  3  1  0  0  0  0
  2  9  1  0  0  0  0
  3  4  1  0  0  0  0
  3  8  1  0  0  0  0
  4  5  1  0  0  0  0
  5  6  1  0  0  0  0
  6  7  1  0  0  0  0
  7  8  1  0  0  0  0
  9 10  1  0  0  0  0
 10 11  4  0  0  0  0
 10 15  4  0  0  0  0
 11 12  4  0  0  0  0
 12 13  4  0  0  0  0
 13 14  4  0  0  0  0
 13 16  1  0  0  0  0
 14 15  4  0  0  0  0
 16 17  4  0  0  0  0
 16 21  4  0  0  0  0
 17 18  4  0  0  0  0
 18 19  4  0  0  0  0
 19 20  4  0  0  0  0
 19 22  1  0  0  0  0
 20 21  4  0  0  0  0
 22 23  1  0  0  0  0
 23 24  1  0  0  0  0
 23 27  1  0  0  0  0
 24 25  1  0  0  0  0
 25 26  1  0  0  0  0
 27 28  1  0  0  0  0
 28 29  1  0  0  0  0
M  END
>  <Name_Molregno>
513309

>  <HISTAMINE H3>
6.6

$$$$
513310
  Marvin  02231216192D 0   1.00000     0.00000     0

 29 31  0  0  0  0  0  0  0  0999 V2000
    0.3735   -1.6305    0.0000 O   0  0  0  0  0  0  0  0  0
   -0.0390   -0.9160    0.0000 C   0  0  0  0  0  0  0  0  0
   -0.8640   -0.9160    0.0000 N   0  0  0  0  0  0  0  0  0
   -1.2765   -1.6305    0.0000 C   0  0  0  0  0  0  0  0  0
   -2.1015   -1.6305    0.0000 C   0  0  0  0  0  0  0  0  0
   -2.5140   -2.3450    0.0000 C   0  0  0  0  0  0  0  0  0
   -1.2765   -0.2016    0.0000 C   0  0  0  0  0  0  0  0  0
   -2.1015   -0.2016    0.0000 C   0  0  0  0  0  0  0  0  0
   -2.5140    0.5129    0.0000 C   0  0  0  0  0  0  0  0  0
    0.3735   -0.2016    0.0000 C   0  0  0  0  0  0  0  0  0
    1.1985   -0.2016    0.0000 C   0  0  0  0  0  0  0  0  0
    1.6110    0.5129    0.0000 C   0  0  0  0  0  0  0  0  0
    2.4360    0.5129    0.0000 C   0  0  0  0  0  0  0  0  0
    2.8485   -0.2016    0.0000 C   0  0  0  0  0  0  0  0  0
    2.4360   -0.9160    0.0000 C   0  0  0  0  0  0  0  0  0
    1.6110   -0.9160    0.0000 C   0  0  0  0  0  0  0  0  0
    3.6735   -0.2016    0.0000 C   0  0  0  0  0  0  0  0  0
    4.0860    0.5129    0.0000 C   0  0  0  0  0  0  0  0  0
    4.9110    0.5129    0.0000 C   0  0  0  0  0  0  0  0  0
    5.3235   -0.2016    0.0000 C   0  0  0  0  0  0  0  0  0
    4.9110   -0.9160    0.0000 C   0  0  0  0  0  0  0  0  0
    4.0860   -0.9160    0.0000 C   0  0  0  0  0  0  0  0  0
    6.1485   -0.2016    0.0000 C   0  0  0  0  0  0  0  0  0
    6.5610    0.5129    0.0000 N   0  0  0  0  0  0  0  0  0
    6.1485    1.2274    0.0000 C   0  0  0  0  0  0  0  0  0
    6.5610    1.9418    0.0000 C   0  0  0  0  0  0  0  0  0
    7.3860    1.9418    0.0000 C   0  0  0  0  0  0  0  0  0
    7.7985    1.2274    0.0000 C   0  0  0  0  0  0  0  0  0
    7.3860    0.5129    0.0000 C   0  0  0  0  0  0  0  0  0
  1  2  2  0  0  0  0
  2  3  1  0  0  0  0
  2 10  1  0  0  0  0
  3  4  1  0  0  0  0
  3  7  1  0  0  0  0
  4  5  1  0  0  0  0
  5  6  1  0  0  0  0
  7  8  1  0  0  0  0
  8  9  1  0  0  0  0
 10 11  1  0  0  0  0
 11 12  4  0  0  0  0
 11 16  4  0  0  0  0
 12 13  4  0  0  0  0
 13 14  4  0  0  0  0
 14 15  4  0  0  0  0
 14 17  1  0  0  0  0
 15 16  4  0  0  0  0
 17 18  4  0  0  0  0
 17 22  4  0  0  0  0
 18 19  4  0  0  0  0
 19 20  4  0  0  0  0
 20 21  4  0  0  0  0
 20 23  1  0  0  0  0
 21 22  4  0  0  0  0
 23 24  1  0  0  0  0
 24 25  1  0  0  0  0
 24 29  1  0  0  0  0
 25 26  1  0  0  0  0
 26 27  1  0  0  0  0
 27 28  1  0  0  0  0
 28 29  1  0  0  0  0
M  END
>  <Name_Molregno>
513310

>  <HISTAMINE H3>
8.07

$$$$
513311
  Marvin  02231216192D 0   1.00000     0.00000     0

 28 30  0  0  0  0  0  0  0  0999 V2000
   -6.2480    1.5977    0.0000 N   0  0  0  0  0  0  0  0  0
   -6.2480    0.7727    0.0000 C   0  0  0  0  0  0  0  0  0
   -5.5335    0.3602    0.0000 C   0  0  0  0  0  0  0  0  0
   -4.8190    0.7727    0.0000 C   0  0  0  0  0  0  0  0  0
   -4.1046    0.3602    0.0000 C   0  0  0  0  0  0  0  0  0
   -4.1046   -0.4648    0.0000 C   0  0  0  0  0  0  0  0  0
   -4.8190   -0.8773    0.0000 C   0  0  0  0  0  0  0  0  0
   -5.5335   -0.4648    0.0000 C   0  0  0  0  0  0  0  0  0
   -3.3901   -0.8773    0.0000 C   0  0  0  0  0  0  0  0  0
   -2.6756   -0.4648    0.0000 C   0  0  0  0  0  0  0  0  0
   -1.9611   -0.8773    0.0000 C   0  0  0  0  0  0  0  0  0
   -1.9611   -1.7023    0.0000 C   0  0  0  0  0  0  0  0  0
   -2.6756   -2.1148    0.0000 C   0  0  0  0  0  0  0  0  0
   -3.3901   -1.7023    0.0000 C   0  0  0  0  0  0  0  0  0
   -1.2467   -2.1148    0.0000 C   0  0  0  0  0  0  0  0  0
   -1.2467   -2.9398    0.0000 C   0  0  0  0  0  0  0  0  0
   -0.5322   -3.3523    0.0000 N   0  0  0  0  0  0  0  0  0
    0.1823   -2.9398    0.0000 C   0  0  0  0  0  0  0  0  0
    0.8967   -3.3523    0.0000 C   0  0  0  0  0  0  0  0  0
    0.8967   -4.1773    0.0000 C   0  0  0  0  0  0  0  0  0
    0.1823   -4.5898    0.0000 C   0  0  0  0  0  0  0  0  0
   -0.5322   -4.1773    0.0000 C   0  0  0  0  0  0  0  0  0
   -6.9624    2.0102    0.0000 C   0  0  0  0  0  0  0  0  0
   -6.9624    2.8352    0.0000 C   0  0  0  0  0  0  0  0  0
   -7.6769    3.2477    0.0000 C   0  0  0  0  0  0  0  0  0
   -5.5335    2.0102    0.0000 C   0  0  0  0  0  0  0  0  0
   -5.5335    2.8352    0.0000 C   0  0  0  0  0  0  0  0  0
   -4.8190    3.2477    0.0000 C   0  0  0  0  0  0  0  0  0
  1  2  1  0  0  0  0
  1 23  1  0  0  0  0
  1 26  1  0  0  0  0
  2  3  1  0  0  0  0
  3  4  4  0  0  0  0
  3  8  4  0  0  0  0
  4  5  4  0  0  0  0
  5  6  4  0  0  0  0
  6  7  4  0  0  0  0
  6  9  1  0  0  0  0
  7  8  4  0  0  0  0
  9 10  4  0  0  0  0
  9 14  4  0  0  0  0
 10 11  4  0  0  0  0
 11 12  4  0  0  0  0
 12 13  4  0  0  0  0
 12 15  1  0  0  0  0
 13 14  4  0  0  0  0
 15 16  1  0  0  0  0
 16 17  1  0  0  0  0
 17 18  1  0  0  0  0
 17 22  1  0  0  0  0
 18 19  1  0  0  0  0
 19 20  1  0  0  0  0
 20 21  1  0  0  0  0
 21 22  1  0  0  0  0
 23 24  1  0  0  0  0
 24 25  1  0  0  0  0
 26 27  1  0  0  0  0
 27 28  1  0  0  0  0
M  END
>  <Name_Molregno>
513311

>  <HISTAMINE H3>
8.41

$$$$
513312
  Marvin  02231216192D 0   1.00000     0.00000     0

 21 22  0  0  0  0  0  0  0  0999 V2000
   -0.0929    0.2714    0.0000 N   0  0  0  0  0  0  0  0  0
   -0.0929   -0.5536    0.0000 C   0  0  0  0  0  0  0  0  0
   -0.8074   -0.9661    0.0000 C   0  0  0  0  0  0  0  0  0
   -1.5218   -0.5536    0.0000 C   0  0  0  0  0  0  0  0  0
   -1.5218    0.2714    0.0000 C   0  0  0  0  0  0  0  0  0
   -0.8074    0.6839    0.0000 C   0  0  0  0  0  0  0  0  0
    0.6216    0.6839    0.0000 C   0  0  0  0  0  0  0  0  0
    1.3361    0.2714    0.0000 C   0  0  0  0  0  0  0  0  0
    2.0505    0.6839    0.0000 C   0  0  0  0  0  0  0  0  0
    2.7650    0.2714    0.0000 C   0  0  0  0  0  0  0  0  0
    3.4795    0.6839    0.0000 C   0  0  0  0  0  0  0  0  0
    4.1939    0.2714    0.0000 C   0  0  0  0  0  0  0  0  0
    4.9084    0.6839    0.0000 C   0  0  0  0  0  0  0  0  0
    5.6229    0.2714    0.0000 C   0  0  0  0  0  0  0  0  0
    6.3373    0.6839    0.0000 C   0  0  0  0  0  0  0  0  0
    7.0518    0.2714    0.0000 N   0  0  0  0  0  0  0  0  0
    7.7663    0.6839    0.0000 C   0  0  0  0  0  0  0  0  0
    8.4808    0.2714    0.0000 C   0  0  0  0  0  0  0  0  0
    8.4808   -0.5536    0.0000 C   0  0  0  0  0  0  0  0  0
    7.7663   -0.9661    0.0000 C   0  0  0  0  0  0  0  0  0
    7.0518   -0.5536    0.0000 C   0  0  0  0  0  0  0  0  0
  1  2  1  0  0  0  0
  1  6  1  0  0  0  0
  1  7  1  0  0  0  0
  2  3  1  0  0  0  0
  3  4  1  0  0  0  0
  4  5  1  0  0  0  0
  5  6  1  0  0  0  0
  7  8  1  0  0  0  0
  8  9  1  0  0  0  0
  9 10  1  0  0  0  0
 10 11  1  0  0  0  0
 11 12  1  0  0  0  0
 12 13  1  0  0  0  0
 13 14  1  0  0  0  0
 14 15  1  0  0  0  0
 15 16  1  0  0  0  0
 16 17  1  0  0  0  0
 16 21  1  0  0  0  0
 17 18  1  0  0  0  0
 18 19  1  0  0  0  0
 19 20  1  0  0  0  0
 20 21  1  0  0  0  0
M  END
>  <Name_Molregno>
513312

>  <HISTAMINE H3>
8.35

$$$$
514035
  Marvin  02231216192D 0   1.00000     0.00000     0

 30 34  0  0  0  0  0  0  0  0999 V2000
   -3.1469    1.9338    0.0000 O   0  0  0  0  0  0  0  0  0
   -3.8613    1.5213    0.0000 C   0  0  0  0  0  0  0  0  0
   -3.8613    0.6963    0.0000 C   0  0  0  0  0  0  0  0  0
   -4.5758    0.2838    0.0000 C   0  0  0  0  0  0  0  0  0
   -5.2903    0.6963    0.0000 N   0  0  0  0  0  0  0  0  0
   -5.2903    1.5213    0.0000 C   0  0  0  0  0  0  0  0  0
   -4.5758    1.9338    0.0000 C   0  0  0  0  0  0  0  0  0
   -6.0048    0.2838    0.0000 C   0  0  0  0  0  0  0  0  0
   -6.2183   -0.5131    0.0000 C   0  0  0  0  0  0  0  0  0
   -7.0152   -0.2995    0.0000 C   0  0  0  0  0  0  0  0  0
   -6.8016    0.4974    0.0000 C   0  0  0  0  0  0  0  0  0
   -2.4324    1.5213    0.0000 C   0  0  0  0  0  0  0  0  0
   -1.7179    1.9338    0.0000 C   0  0  0  0  0  0  0  0  0
   -1.0035    1.5213    0.0000 C   0  0  0  0  0  0  0  0  0
   -1.0035    0.6963    0.0000 C   0  0  0  0  0  0  0  0  0
   -0.2890    0.2838    0.0000 N   0  0  0  0  0  0  0  0  0
   -0.2890   -0.5412    0.0000 C   0  0  0  0  0  0  0  0  0
    0.4255   -0.9537    0.0000 N   0  0  0  0  0  0  0  0  0
    1.1400   -0.5412    0.0000 C   0  0  0  0  0  0  0  0  0
    1.1400    0.2838    0.0000 C   0  0  0  0  0  0  0  0  0
    1.8544    0.6963    0.0000 C   0  0  0  0  0  0  0  0  0
    2.5689    0.2838    0.0000 C   0  0  0  0  0  0  0  0  0
    2.5689   -0.5412    0.0000 C   0  0  0  0  0  0  0  0  0
    1.8544   -0.9537    0.0000 C   0  0  0  0  0  0  0  0  0
    1.8544    1.5213    0.0000 C   0  0  0  0  0  0  0  0  0
    0.4255    0.6963    0.0000 C   0  0  0  0  0  0  0  0  0
    0.4255    1.5213    0.0000 O   0  0  0  0  0  0  0  0  0
   -1.0035   -0.9537    0.0000 C   0  0  0  0  0  0  0  0  0
   -1.7179    0.2838    0.0000 C   0  0  0  0  0  0  0  0  0
   -2.4324    0.6963    0.0000 C   0  0  0  0  0  0  0  0  0
  1  2  1  0  0  0  0
  1 12  1  0  0  0  0
  2  3  1  0  0  0  0
  2  7  1  0  0  0  0
  3  4  1  0  0  0  0
  4  5  1  0  0  0  0
  5  6  1  0  0  0  0
  5  8  1  0  0  0  0
  6  7  1  0  0  0  0
  8  9  1  0  0  0  0
  8 11  1  0  0  0  0
  9 10  1  0  0  0  0
 10 11  1  0  0  0  0
 12 13  4  0  0  0  0
 12 30  4  0  0  0  0
 13 14  4  0  0  0  0
 14 15  4  0  0  0  0
 15 16  1  0  0  0  0
 15 29  4  0  0  0  0
 16 17  1  0  0  0  0
 16 26  1  0  0  0  0
 17 18  2  0  0  0  0
 17 28  1  0  0  0  0
 18 19  1  0  0  0  0
 19 20  4  0  0  0  0
 19 24  4  0  0  0  0
 20 21  4  0  0  0  0
 20 26  1  0  0  0  0
 21 22  4  0  0  0  0
 21 25  1  0  0  0  0
 22 23  4  0  0  0  0
 23 24  4  0  0  0  0
 26 27  2  0  0  0  0
 29 30  4  0  0  0  0
M  END
>  <Name_Molregno>
514035

>  <HISTAMINE H3>
8.77

$$$$
514102
  Marvin  02231216192D 0   1.00000     0.00000     0

 33 37  0  0  0  0  0  0  0  0999 V2000
   -5.1079   -1.3788    0.0000 F   0  0  0  0  0  0  0  0  0
   -5.1079   -0.5538    0.0000 C   0  0  0  0  0  0  0  0  0
   -4.2829   -0.5538    0.0000 F   0  0  0  0  0  0  0  0  0
   -5.9329   -0.5538    0.0000 F   0  0  0  0  0  0  0  0  0
   -5.1079    0.2712    0.0000 C   0  0  0  0  0  0  0  0  0
   -4.3934    0.6837    0.0000 C   0  0  0  0  0  0  0  0  0
   -4.3934    1.5087    0.0000 C   0  0  0  0  0  0  0  0  0
   -3.6789    1.9212    0.0000 N   0  0  0  0  0  0  0  0  0
   -2.9645    1.5087    0.0000 C   0  0  0  0  0  0  0  0  0
   -2.9645    0.6837    0.0000 N   0  0  0  0  0  0  0  0  0
   -3.6789    0.2712    0.0000 C   0  0  0  0  0  0  0  0  0
   -3.6789   -0.5538    0.0000 O   0  0  0  0  0  0  0  0  0
   -2.2500    0.2712    0.0000 C   0  0  0  0  0  0  0  0  0
   -1.5355    0.6837    0.0000 C   0  0  0  0  0  0  0  0  0
   -0.8211    0.2712    0.0000 C   0  0  0  0  0  0  0  0  0
   -0.8211   -0.5538    0.0000 C   0  0  0  0  0  0  0  0  0
   -0.1066   -0.9663    0.0000 O   0  0  0  0  0  0  0  0  0
   -0.1066   -1.7913    0.0000 C   0  0  0  0  0  0  0  0  0
    0.6079   -2.2038    0.0000 C   0  0  0  0  0  0  0  0  0
    0.6079   -3.0288    0.0000 C   0  0  0  0  0  0  0  0  0
   -0.1066   -3.4413    0.0000 N   0  0  0  0  0  0  0  0  0
   -0.8211   -3.0288    0.0000 C   0  0  0  0  0  0  0  0  0
   -0.8211   -2.2038    0.0000 C   0  0  0  0  0  0  0  0  0
   -0.1066   -4.2663    0.0000 C   0  0  0  0  0  0  0  0  0
    0.4768   -4.8496    0.0000 C   0  0  0  0  0  0  0  0  0
   -0.1066   -5.4330    0.0000 C   0  0  0  0  0  0  0  0  0
   -0.6899   -4.8496    0.0000 C   0  0  0  0  0  0  0  0  0
   -1.5355   -0.9663    0.0000 C   0  0  0  0  0  0  0  0  0
   -2.2500   -0.5538    0.0000 C   0  0  0  0  0  0  0  0  0
   -2.2500    1.9212    0.0000 C   0  0  0  0  0  0  0  0  0
   -5.1079    1.9212    0.0000 C   0  0  0  0  0  0  0  0  0
   -5.8224    1.5087    0.0000 C   0  0  0  0  0  0  0  0  0
   -5.8224    0.6837    0.0000 C   0  0  0  0  0  0  0  0  0
  1  2  1  0  0  0  0
  2  3  1  0  0  0  0
  2  4  1  0  0  0  0
  2  5  1  0  0  0  0
  5  6  4  0  0  0  0
  5 33  4  0  0  0  0
  6  7  4  0  0  0  0
  6 11  1  0  0  0  0
  7  8  1  0  0  0  0
  7 31  4  0  0  0  0
  8  9  2  0  0  0  0
  9 10  1  0  0  0  0
  9 30  1  0  0  0  0
 10 11  1  0  0  0  0
 10 13  1  0  0  0  0
 11 12  2  0  0  0  0
 13 14  4  0  0  0  0
 13 29  4  0  0  0  0
 14 15  4  0  0  0  0
 15 16  4  0  0  0  0
 16 17  1  0  0  0  0
 16 28  4  0  0  0  0
 17 18  1  0  0  0  0
 18 19  1  0  0  0  0
 18 23  1  0  0  0  0
 19 20  1  0  0  0  0
 20 21  1  0  0  0  0
 21 22  1  0  0  0  0
 21 24  1  0  0  0  0
 22 23  1  0  0  0  0
 24 25  1  0  0  0  0
 24 27  1  0  0  0  0
 25 26  1  0  0  0  0
 26 27  1  0  0  0  0
 28 29  4  0  0  0  0
 31 32  4  0  0  0  0
 32 33  4  0  0  0  0
M  END
>  <Name_Molregno>
514102

>  <HISTAMINE H3>
8.44

$$$$
514805
  Marvin  02231216192D 0   1.00000     0.00000     0

 30 34  0  0  0  0  0  0  0  0999 V2000
   -6.4999   -0.6697    0.0000 F   0  0  0  0  0  0  0  0  0
   -6.4999    0.1553    0.0000 C   0  0  0  0  0  0  0  0  0
   -5.7854    0.5678    0.0000 C   0  0  0  0  0  0  0  0  0
   -5.7854    1.3928    0.0000 C   0  0  0  0  0  0  0  0  0
   -5.0710    1.8053    0.0000 N   0  0  0  0  0  0  0  0  0
   -4.3565    1.3928    0.0000 C   0  0  0  0  0  0  0  0  0
   -4.3565    0.5678    0.0000 N   0  0  0  0  0  0  0  0  0
   -5.0710    0.1553    0.0000 C   0  0  0  0  0  0  0  0  0
   -5.0710   -0.6697    0.0000 O   0  0  0  0  0  0  0  0  0
   -3.6420    0.1553    0.0000 C   0  0  0  0  0  0  0  0  0
   -2.9275    0.5678    0.0000 C   0  0  0  0  0  0  0  0  0
   -2.2131    0.1553    0.0000 C   0  0  0  0  0  0  0  0  0
   -2.2131   -0.6697    0.0000 C   0  0  0  0  0  0  0  0  0
   -1.4986   -1.0822    0.0000 O   0  0  0  0  0  0  0  0  0
   -1.4986   -1.9072    0.0000 C   0  0  0  0  0  0  0  0  0
   -0.7841   -2.3197    0.0000 C   0  0  0  0  0  0  0  0  0
   -0.7841   -3.1447    0.0000 C   0  0  0  0  0  0  0  0  0
   -1.4986   -3.5572    0.0000 N   0  0  0  0  0  0  0  0  0
   -2.2131   -3.1447    0.0000 C   0  0  0  0  0  0  0  0  0
   -2.2131   -2.3197    0.0000 C   0  0  0  0  0  0  0  0  0
   -1.4986   -4.3822    0.0000 C   0  0  0  0  0  0  0  0  0
   -0.9152   -4.9656    0.0000 C   0  0  0  0  0  0  0  0  0
   -1.4986   -5.5490    0.0000 C   0  0  0  0  0  0  0  0  0
   -2.0820   -4.9656    0.0000 C   0  0  0  0  0  0  0  0  0
   -2.9275   -1.0822    0.0000 C   0  0  0  0  0  0  0  0  0
   -3.6420   -0.6697    0.0000 C   0  0  0  0  0  0  0  0  0
   -3.6420    1.8053    0.0000 C   0  0  0  0  0  0  0  0  0
   -6.4999    1.8053    0.0000 C   0  0  0  0  0  0  0  0  0
   -7.2144    1.3928    0.0000 C   0  0  0  0  0  0  0  0  0
   -7.2144    0.5678    0.0000 C   0  0  0  0  0  0  0  0  0
  1  2  1  0  0  0  0
  2  3  4  0  0  0  0
  2 30  4  0  0  0  0
  3  4  4  0  0  0  0
  3  8  1  0  0  0  0
  4  5  1  0  0  0  0
  4 28  4  0  0  0  0
  5  6  2  0  0  0  0
  6  7  1  0  0  0  0
  6 27  1  0  0  0  0
  7  8  1  0  0  0  0
  7 10  1  0  0  0  0
  8  9  2  0  0  0  0
 10 11  4  0  0  0  0
 10 26  4  0  0  0  0
 11 12  4  0  0  0  0
 12 13  4  0  0  0  0
 13 14  1  0  0  0  0
 13 25  4  0  0  0  0
 14 15  1  0  0  0  0
 15 16  1  0  0  0  0
 15 20  1  0  0  0  0
 16 17  1  0  0  0  0
 17 18  1  0  0  0  0
 18 19  1  0  0  0  0
 18 21  1  0  0  0  0
 19 20  1  0  0  0  0
 21 22  1  0  0  0  0
 21 24  1  0  0  0  0
 22 23  1  0  0  0  0
 23 24  1  0  0  0  0
 25 26  4  0  0  0  0
 28 29  4  0  0  0  0
 29 30  4  0  0  0  0
M  END
>  <Name_Molregno>
514805

>  <HISTAMINE H3>
8.17

$$$$
515852
  Marvin  02231216192D 0   1.00000     0.00000     0

 24 28  0  0  1  0  0  0  0  0999 V2000
    3.5696   -0.3324    0.0000 O   0  0  0  0  0  0  0  0  0
    3.9434   -1.0678    0.0000 C   0  0  0  0  0  0  0  0  0
    3.3594   -1.6506    0.0000 C   0  0  0  0  0  0  0  0  0
    2.6247   -1.2753    0.0000 C   0  0  0  0  0  0  0  0  0
    2.7546   -0.4606    0.0000 C   0  0  0  0  0  0  0  0  0
    2.1140    0.0593    0.0000 C   0  0  0  0  0  0  0  0  0
    1.3435   -0.2355    0.0000 C   0  0  0  0  0  0  0  0  0
    1.2136   -1.0502    0.0000 C   0  0  0  0  0  0  0  0  0
    1.8542   -1.5701    0.0000 C   0  0  0  0  0  0  0  0  0
    1.7243   -2.3848    0.0000 N   0  0  0  0  0  0  0  0  0
    0.9537   -2.6797    0.0000 C   0  0  0  0  0  0  0  0  0
    0.3131   -2.1598    0.0000 N   0  0  0  0  0  0  0  0  0
    0.4431   -1.3451    0.0000 C   0  0  0  0  0  0  0  0  0
   -0.1975   -0.8252    0.0000 N   0  0  0  0  0  0  0  0  0
   -0.9680   -1.1201    0.0000 C   0  0  0  0  0  0  0  0  0
   -1.6086   -0.6002    0.0000 C   0  0  0  0  0  0  0  0  0
   -1.4787    0.2145    0.0000 N   0  0  0  0  0  0  0  0  0
   -0.7082    0.5094    0.0000 C   0  0  0  0  0  0  0  0  0
   -0.0676   -0.0105    0.0000 C   0  0  0  0  0  0  0  0  0
    0.8238   -3.4944    0.0000 N   0  0  0  0  0  0  0  0  0
    3.5721   -2.4477    0.0000 C   0  0  0  0  0  0  0  0  0
    4.3687   -2.6621    0.0000 C   0  0  0  0  0  0  0  0  0
    4.9527   -2.0793    0.0000 C   0  0  0  0  0  0  0  0  0
    4.7400   -1.2822    0.0000 C   0  0  0  0  0  0  0  0  0
  1  2  1  0  0  0  0
  1  5  1  0  0  0  0
  2  3  1  0  0  0  0
  2 24  1  0  0  0  0
  3  4  1  0  0  0  0
  3 21  1  0  0  0  0
  4  5  2  0  0  0  0
  4  9  1  0  0  0  0
  5  6  1  0  0  0  0
  6  7  1  0  0  0  0
  7  8  1  0  0  0  0
  8  9  4  0  0  0  0
  8 13  4  0  0  0  0
  9 10  4  0  0  0  0
 10 11  4  0  0  0  0
 11 12  4  0  0  0  0
 11 20  1  0  0  0  0
 12 13  4  0  0  0  0
 13 14  1  0  0  0  0
 14 15  1  0  0  0  0
 14 19  1  0  0  0  0
 15 16  1  0  0  0  0
 16 17  1  0  0  0  0
 17 18  1  0  0  0  0
 18 19  1  0  0  0  0
 21 22  1  0  0  0  0
 22 23  1  0  0  0  0
 23 24  1  0  0  0  0
M  END
>  <Name_Molregno>
515852

>  <5-HT1A>
9.18

>  <5-HT1B>
7.74

>  <5-HT2A>
8.89

>  <5-HT2C>
8.41

>  <5-HT3>
8.18

>  <5-HT5>
6.96

>  <5-HT6>
7.03

>  <5-HT7>
9.66

>  <Beta-1>
6.37

>  <Beta-2>
9.3

>  <DOPAMINE D1>
9.42

>  <DOPAMINE D2>
8.54

>  <DOPAMINE D3>
8.85

>  <DOPAMINE D5>
9.32

>  <Dopamine transporter>
8.05

>  <HISTAMINE H1>
7.05

>  <HISTAMINE H2>
5.91

>  <HISTAMINE H3>
6.03

>  <HISTAMINE H4>
8.24

>  <Muscarinic acetylcholine receptor M1>
7.6

>  <Muscarinic acetylcholine receptor M2>
7.44

>  <Muscarinic acetylcholine receptor M3>
9.38

>  <Muscarinic acetylcholine receptor M4>
9.18

>  <Muscarinic acetylcholine receptor M5>
9.38

>  <Norepinephrine transporter>
8.17

>  <Serotonin transporter>
8.49

$$$$
518973
  Marvin  02231216192D 0   1.00000     0.00000     0

 39 43  0  0  0  0  0  0  0  0999 V2000
   -4.2205    3.1345    0.0000 O   0  0  0  0  0  0  0  0  0
   -4.9349    3.5470    0.0000 C   0  0  0  0  0  0  0  0  0
   -4.9349    4.3720    0.0000 C   0  0  0  0  0  0  0  0  0
   -5.6494    4.7845    0.0000 C   0  0  0  0  0  0  0  0  0
   -5.6494    5.6095    0.0000 N   0  0  0  0  0  0  0  0  0
   -6.3639    6.0220    0.0000 C   0  0  0  0  0  0  0  0  0
   -6.3639    6.8470    0.0000 C   0  0  0  0  0  0  0  0  0
   -5.6494    7.2595    0.0000 C   0  0  0  0  0  0  0  0  0
   -4.9349    6.8470    0.0000 C   0  0  0  0  0  0  0  0  0
   -4.9349    6.0220    0.0000 C   0  0  0  0  0  0  0  0  0
   -4.2205    2.3095    0.0000 C   0  0  0  0  0  0  0  0  0
   -3.5060    1.8970    0.0000 C   0  0  0  0  0  0  0  0  0
   -3.5060    1.0720    0.0000 C   0  0  0  0  0  0  0  0  0
   -4.2205    0.6595    0.0000 C   0  0  0  0  0  0  0  0  0
   -4.9349    1.0720    0.0000 C   0  0  0  0  0  0  0  0  0
   -4.9349    1.8970    0.0000 C   0  0  0  0  0  0  0  0  0
   -4.2205   -0.1655    0.0000 C   0  0  0  0  0  0  0  0  0
   -3.5060   -0.5780    0.0000 C   0  0  0  0  0  0  0  0  0
   -2.7915   -0.1655    0.0000 O   0  0  0  0  0  0  0  0  0
   -3.5060   -1.4030    0.0000 N   0  0  0  0  0  0  0  0  0
   -2.7915   -1.8155    0.0000 C   0  0  0  0  0  0  0  0  0
   -2.7915   -2.6405    0.0000 C   0  0  0  0  0  0  0  0  0
   -2.0770   -3.0530    0.0000 C   0  0  0  0  0  0  0  0  0
   -2.0770   -3.8780    0.0000 C   0  0  0  0  0  0  0  0  0
   -1.3337   -4.2359    0.0000 C   0  0  0  0  0  0  0  0  0
   -1.1502   -5.0403    0.0000 C   0  0  0  0  0  0  0  0  0
   -1.6645   -5.6853    0.0000 C   0  0  0  0  0  0  0  0  0
   -2.4895   -5.6853    0.0000 C   0  0  0  0  0  0  0  0  0
   -3.0039   -5.0403    0.0000 C   0  0  0  0  0  0  0  0  0
   -2.8203   -4.2359    0.0000 C   0  0  0  0  0  0  0  0  0
   -3.4251   -3.6748    0.0000 C   0  0  0  0  0  0  0  0  0
   -4.2135   -3.9180    0.0000 C   0  0  0  0  0  0  0  0  0
   -4.3970   -4.7223    0.0000 C   0  0  0  0  0  0  0  0  0
   -3.7923   -5.2834    0.0000 C   0  0  0  0  0  0  0  0  0
   -0.3618   -5.2834    0.0000 C   0  0  0  0  0  0  0  0  0
    0.2430   -4.7223    0.0000 C   0  0  0  0  0  0  0  0  0
    0.0594   -3.9180    0.0000 C   0  0  0  0  0  0  0  0  0
   -0.7290   -3.6748    0.0000 C   0  0  0  0  0  0  0  0  0
   -4.2205   -1.8155    0.0000 C   0  0  0  0  0  0  0  0  0
  1  2  1  0  0  0  0
  1 11  1  0  0  0  0
  2  3  1  0  0  0  0
  3  4  1  0  0  0  0
  4  5  1  0  0  0  0
  5  6  1  0  0  0  0
  5 10  1  0  0  0  0
  6  7  1  0  0  0  0
  7  8  1  0  0  0  0
  8  9  1  0  0  0  0
  9 10  1  0  0  0  0
 11 12  4  0  0  0  0
 11 16  4  0  0  0  0
 12 13  4  0  0  0  0
 13 14  4  0  0  0  0
 14 15  4  0  0  0  0
 14 17  1  0  0  0  0
 15 16  4  0  0  0  0
 17 18  1  0  0  0  0
 18 19  2  0  0  0  0
 18 20  1  0  0  0  0
 20 21  1  0  0  0  0
 20 39  1  0  0  0  0
 21 22  1  0  0  0  0
 22 23  1  0  0  0  0
 23 24  2  0  0  0  0
 24 25  1  0  0  0  0
 24 30  1  0  0  0  0
 25 26  4  0  0  0  0
 25 38  4  0  0  0  0
 26 27  1  0  0  0  0
 26 35  4  0  0  0  0
 27 28  1  0  0  0  0
 28 29  1  0  0  0  0
 29 30  4  0  0  0  0
 29 34  4  0  0  0  0
 30 31  4  0  0  0  0
 31 32  4  0  0  0  0
 32 33  4  0  0  0  0
 33 34  4  0  0  0  0
 35 36  4  0  0  0  0
 36 37  4  0  0  0  0
 37 38  4  0  0  0  0
M  END
>  <Name_Molregno>
518973

>  <DOPAMINE D1>
6.06

>  <DOPAMINE D2>
6.04

>  <DOPAMINE D3>
6.49

>  <DOPAMINE D5>
6

>  <HISTAMINE H1>
6.25

>  <HISTAMINE H3>
8.31

$$$$
519116
  Marvin  02231216192D 0   1.00000     0.00000     0

 38 42  0  0  0  0  0  0  0  0999 V2000
   -1.0754    0.9920    0.0000 O   0  0  0  0  0  0  0  0  0
   -1.0754    1.8170    0.0000 C   0  0  0  0  0  0  0  0  0
   -0.3609    2.2295    0.0000 C   0  0  0  0  0  0  0  0  0
   -0.3609    3.0545    0.0000 C   0  0  0  0  0  0  0  0  0
    0.3536    3.4670    0.0000 N   0  0  0  0  0  0  0  0  0
    0.3536    4.2920    0.0000 C   0  0  0  0  0  0  0  0  0
    1.0680    4.7045    0.0000 C   0  0  0  0  0  0  0  0  0
    1.7825    4.2920    0.0000 C   0  0  0  0  0  0  0  0  0
    1.7825    3.4670    0.0000 C   0  0  0  0  0  0  0  0  0
    1.0680    3.0545    0.0000 C   0  0  0  0  0  0  0  0  0
   -1.7898    0.5795    0.0000 C   0  0  0  0  0  0  0  0  0
   -1.7898   -0.2455    0.0000 C   0  0  0  0  0  0  0  0  0
   -2.5043   -0.6580    0.0000 C   0  0  0  0  0  0  0  0  0
   -3.2188   -0.2455    0.0000 C   0  0  0  0  0  0  0  0  0
   -3.2188    0.5795    0.0000 C   0  0  0  0  0  0  0  0  0
   -2.5043    0.9920    0.0000 C   0  0  0  0  0  0  0  0  0
   -3.9333   -0.6580    0.0000 C   0  0  0  0  0  0  0  0  0
   -3.9333   -1.4830    0.0000 O   0  0  0  0  0  0  0  0  0
   -4.6477   -0.2455    0.0000 N   0  0  0  0  0  0  0  0  0
   -5.3622   -0.6580    0.0000 C   0  0  0  0  0  0  0  0  0
   -5.3622   -1.4830    0.0000 C   0  0  0  0  0  0  0  0  0
   -4.6477   -1.8955    0.0000 C   0  0  0  0  0  0  0  0  0
   -4.6477   -2.7205    0.0000 C   0  0  0  0  0  0  0  0  0
   -3.9044   -3.0785    0.0000 C   0  0  0  0  0  0  0  0  0
   -3.7208   -3.8828    0.0000 C   0  0  0  0  0  0  0  0  0
   -4.2352   -4.5278    0.0000 C   0  0  0  0  0  0  0  0  0
   -5.0602   -4.5278    0.0000 C   0  0  0  0  0  0  0  0  0
   -5.5746   -3.8828    0.0000 C   0  0  0  0  0  0  0  0  0
   -5.3910   -3.0785    0.0000 C   0  0  0  0  0  0  0  0  0
   -5.9958   -2.5174    0.0000 C   0  0  0  0  0  0  0  0  0
   -6.7841   -2.7605    0.0000 C   0  0  0  0  0  0  0  0  0
   -6.9677   -3.5648    0.0000 C   0  0  0  0  0  0  0  0  0
   -6.3630   -4.1260    0.0000 C   0  0  0  0  0  0  0  0  0
   -2.9325   -4.1260    0.0000 C   0  0  0  0  0  0  0  0  0
   -2.3277   -3.5648    0.0000 C   0  0  0  0  0  0  0  0  0
   -2.5113   -2.7605    0.0000 C   0  0  0  0  0  0  0  0  0
   -3.2997   -2.5174    0.0000 C   0  0  0  0  0  0  0  0  0
   -4.6477    0.5795    0.0000 C   0  0  0  0  0  0  0  0  0
  1  2  1  0  0  0  0
  1 11  1  0  0  0  0
  2  3  1  0  0  0  0
  3  4  1  0  0  0  0
  4  5  1  0  0  0  0
  5  6  1  0  0  0  0
  5 10  1  0  0  0  0
  6  7  1  0  0  0  0
  7  8  1  0  0  0  0
  8  9  1  0  0  0  0
  9 10  1  0  0  0  0
 11 12  4  0  0  0  0
 11 16  4  0  0  0  0
 12 13  4  0  0  0  0
 13 14  4  0  0  0  0
 14 15  4  0  0  0  0
 14 17  1  0  0  0  0
 15 16  4  0  0  0  0
 17 18  2  0  0  0  0
 17 19  1  0  0  0  0
 19 20  1  0  0  0  0
 19 38  1  0  0  0  0
 20 21  1  0  0  0  0
 21 22  1  0  0  0  0
 22 23  2  0  0  0  0
 23 24  1  0  0  0  0
 23 29  1  0  0  0  0
 24 25  4  0  0  0  0
 24 37  4  0  0  0  0
 25 26  1  0  0  0  0
 25 34  4  0  0  0  0
 26 27  1  0  0  0  0
 27 28  1  0  0  0  0
 28 29  4  0  0  0  0
 28 33  4  0  0  0  0
 29 30  4  0  0  0  0
 30 31  4  0  0  0  0
 31 32  4  0  0  0  0
 32 33  4  0  0  0  0
 34 35  4  0  0  0  0
 35 36  4  0  0  0  0
 36 37  4  0  0  0  0
M  END
>  <Name_Molregno>
519116

>  <DOPAMINE D1>
6

>  <DOPAMINE D2>
6

>  <DOPAMINE D3>
6.61

>  <DOPAMINE D5>
6

>  <HISTAMINE H1>
6.16

>  <HISTAMINE H3>
8.46

$$$$
519117
  Marvin  02231216192D 0   1.00000     0.00000     0

 37 41  0  0  0  0  0  0  0  0999 V2000
   -1.1059    1.0162    0.0000 O   0  0  0  0  0  0  0  0  0
   -1.1059    1.8412    0.0000 C   0  0  0  0  0  0  0  0  0
   -0.3914    2.2537    0.0000 C   0  0  0  0  0  0  0  0  0
   -0.3914    3.0787    0.0000 C   0  0  0  0  0  0  0  0  0
    0.3230    3.4912    0.0000 N   0  0  0  0  0  0  0  0  0
    0.3230    4.3162    0.0000 C   0  0  0  0  0  0  0  0  0
    1.0375    4.7287    0.0000 C   0  0  0  0  0  0  0  0  0
    1.7520    4.3162    0.0000 C   0  0  0  0  0  0  0  0  0
    1.7520    3.4912    0.0000 C   0  0  0  0  0  0  0  0  0
    1.0375    3.0787    0.0000 C   0  0  0  0  0  0  0  0  0
   -1.8204    0.6037    0.0000 C   0  0  0  0  0  0  0  0  0
   -1.8204   -0.2213    0.0000 C   0  0  0  0  0  0  0  0  0
   -2.5349   -0.6338    0.0000 C   0  0  0  0  0  0  0  0  0
   -3.2493   -0.2213    0.0000 C   0  0  0  0  0  0  0  0  0
   -3.2493    0.6037    0.0000 C   0  0  0  0  0  0  0  0  0
   -2.5349    1.0162    0.0000 C   0  0  0  0  0  0  0  0  0
   -3.9638   -0.6338    0.0000 C   0  0  0  0  0  0  0  0  0
   -4.6783   -0.2213    0.0000 N   0  0  0  0  0  0  0  0  0
   -5.3927   -0.6338    0.0000 C   0  0  0  0  0  0  0  0  0
   -5.3927   -1.4588    0.0000 C   0  0  0  0  0  0  0  0  0
   -4.6783   -1.8713    0.0000 C   0  0  0  0  0  0  0  0  0
   -4.6783   -2.6963    0.0000 C   0  0  0  0  0  0  0  0  0
   -3.9350   -3.0543    0.0000 C   0  0  0  0  0  0  0  0  0
   -3.7514   -3.8586    0.0000 C   0  0  0  0  0  0  0  0  0
   -4.2658   -4.5036    0.0000 C   0  0  0  0  0  0  0  0  0
   -5.0908   -4.5036    0.0000 C   0  0  0  0  0  0  0  0  0
   -5.6051   -3.8586    0.0000 C   0  0  0  0  0  0  0  0  0
   -5.4216   -3.0543    0.0000 C   0  0  0  0  0  0  0  0  0
   -6.0263   -2.4932    0.0000 C   0  0  0  0  0  0  0  0  0
   -6.8147   -2.7363    0.0000 C   0  0  0  0  0  0  0  0  0
   -6.9983   -3.5406    0.0000 C   0  0  0  0  0  0  0  0  0
   -6.3935   -4.1018    0.0000 C   0  0  0  0  0  0  0  0  0
   -2.9630   -4.1018    0.0000 C   0  0  0  0  0  0  0  0  0
   -2.3583   -3.5406    0.0000 C   0  0  0  0  0  0  0  0  0
   -2.5418   -2.7363    0.0000 C   0  0  0  0  0  0  0  0  0
   -3.3302   -2.4932    0.0000 C   0  0  0  0  0  0  0  0  0
   -4.6783    0.6037    0.0000 C   0  0  0  0  0  0  0  0  0
  1  2  1  0  0  0  0
  1 11  1  0  0  0  0
  2  3  1  0  0  0  0
  3  4  1  0  0  0  0
  4  5  1  0  0  0  0
  5  6  1  0  0  0  0
  5 10  1  0  0  0  0
  6  7  1  0  0  0  0
  7  8  1  0  0  0  0
  8  9  1  0  0  0  0
  9 10  1  0  0  0  0
 11 12  4  0  0  0  0
 11 16  4  0  0  0  0
 12 13  4  0  0  0  0
 13 14  4  0  0  0  0
 14 15  4  0  0  0  0
 14 17  1  0  0  0  0
 15 16  4  0  0  0  0
 17 18  1  0  0  0  0
 18 19  1  0  0  0  0
 18 37  1  0  0  0  0
 19 20  1  0  0  0  0
 20 21  1  0  0  0  0
 21 22  2  0  0  0  0
 22 23  1  0  0  0  0
 22 28  1  0  0  0  0
 23 24  4  0  0  0  0
 23 36  4  0  0  0  0
 24 25  1  0  0  0  0
 24 33  4  0  0  0  0
 25 26  1  0  0  0  0
 26 27  1  0  0  0  0
 27 28  4  0  0  0  0
 27 32  4  0  0  0  0
 28 29  4  0  0  0  0
 29 30  4  0  0  0  0
 30 31  4  0  0  0  0
 31 32  4  0  0  0  0
 33 34  4  0  0  0  0
 34 35  4  0  0  0  0
 35 36  4  0  0  0  0
M  END
>  <Name_Molregno>
519117

>  <DOPAMINE D1>
6.52

>  <DOPAMINE D2>
7

>  <DOPAMINE D3>
7.17

>  <DOPAMINE D5>
6.56

>  <HISTAMINE H1>
7.1

>  <HISTAMINE H3>
9.57

$$$$
519118
  Marvin  02231216192D 0   1.00000     0.00000     0

 38 43  0  0  0  0  0  0  0  0999 V2000
   -1.1994   -3.5598    0.0000 O   0  0  0  0  0  0  0  0  0
   -0.4829   -3.1509    0.0000 C   0  0  0  0  0  0  0  0  0
    0.2295   -3.5669    0.0000 C   0  0  0  0  0  0  0  0  0
    0.9460   -3.1579    0.0000 C   0  0  0  0  0  0  0  0  0
    1.6584   -3.5740    0.0000 N   0  0  0  0  0  0  0  0  0
    2.3749   -3.1650    0.0000 C   0  0  0  0  0  0  0  0  0
    3.0873   -3.5810    0.0000 C   0  0  0  0  0  0  0  0  0
    3.0833   -4.4060    0.0000 C   0  0  0  0  0  0  0  0  0
    2.3668   -4.8150    0.0000 C   0  0  0  0  0  0  0  0  0
    1.6543   -4.3990    0.0000 C   0  0  0  0  0  0  0  0  0
   -1.9119   -3.1438    0.0000 C   0  0  0  0  0  0  0  0  0
   -2.6284   -3.5528    0.0000 C   0  0  0  0  0  0  0  0  0
   -3.3408   -3.1368    0.0000 C   0  0  0  0  0  0  0  0  0
   -3.3367   -2.3118    0.0000 C   0  0  0  0  0  0  0  0  0
   -2.6202   -1.9028    0.0000 C   0  0  0  0  0  0  0  0  0
   -1.9078   -2.3188    0.0000 C   0  0  0  0  0  0  0  0  0
   -4.0491   -1.8958    0.0000 C   0  0  0  0  0  0  0  0  0
   -4.0451   -1.0708    0.0000 N   0  0  0  0  0  0  0  0  0
   -4.7575   -0.6547    0.0000 C   0  0  0  0  0  0  0  0  0
   -4.7534    0.1702    0.0000 C   0  0  0  0  0  0  0  0  0
   -5.4658    0.5863    0.0000 C   0  0  0  0  0  0  0  0  0
   -5.4618    1.4113    0.0000 C   0  0  0  0  0  0  0  0  0
   -5.3221    2.4499    0.0000 C   0  0  0  0  0  0  0  0  0
   -5.5668    3.0558    0.0000 C   0  0  0  0  0  0  0  0  0
   -5.6045    2.1597    0.0000 C   0  0  0  0  0  0  0  0  0
   -4.8659    1.8274    0.0000 C   0  0  0  0  0  0  0  0  0
   -4.7041    1.0184    0.0000 C   0  0  0  0  0  0  0  0  0
   -3.9226    0.7540    0.0000 C   0  0  0  0  0  0  0  0  0
   -3.3029    1.2986    0.0000 C   0  0  0  0  0  0  0  0  0
   -3.4647    2.1076    0.0000 C   0  0  0  0  0  0  0  0  0
   -4.2462    2.3720    0.0000 C   0  0  0  0  0  0  0  0  0
   -6.4083    1.8078    0.0000 C   0  0  0  0  0  0  0  0  0
   -6.2923    0.9909    0.0000 C   0  0  0  0  0  0  0  0  0
   -6.9418    0.4822    0.0000 C   0  0  0  0  0  0  0  0  0
   -7.7071    0.7902    0.0000 C   0  0  0  0  0  0  0  0  0
   -7.8230    1.6070    0.0000 C   0  0  0  0  0  0  0  0  0
   -7.1736    2.1158    0.0000 C   0  0  0  0  0  0  0  0  0
   -3.3286   -0.6618    0.0000 C   0  0  0  0  0  0  0  0  0
  1  2  1  0  0  0  0
  1 11  1  0  0  0  0
  2  3  1  0  0  0  0
  3  4  1  0  0  0  0
  4  5  1  0  0  0  0
  5  6  1  0  0  0  0
  5 10  1  0  0  0  0
  6  7  1  0  0  0  0
  7  8  1  0  0  0  0
  8  9  1  0  0  0  0
  9 10  1  0  0  0  0
 11 12  4  0  0  0  0
 11 16  4  0  0  0  0
 12 13  4  0  0  0  0
 13 14  4  0  0  0  0
 14 15  4  0  0  0  0
 14 17  1  0  0  0  0
 15 16  4  0  0  0  0
 17 18  1  0  0  0  0
 18 19  1  0  0  0  0
 18 38  1  0  0  0  0
 19 20  1  0  0  0  0
 20 21  1  0  0  0  0
 21 22  1  0  0  0  0
 22 23  1  0  0  0  0
 22 27  1  0  0  0  0
 22 33  1  0  0  0  0
 23 24  1  0  0  0  0
 24 25  1  0  0  0  0
 25 26  1  0  0  0  0
 25 32  1  0  0  0  0
 26 27  4  0  0  0  0
 26 31  4  0  0  0  0
 27 28  4  0  0  0  0
 28 29  4  0  0  0  0
 29 30  4  0  0  0  0
 30 31  4  0  0  0  0
 32 33  4  0  0  0  0
 32 37  4  0  0  0  0
 33 34  4  0  0  0  0
 34 35  4  0  0  0  0
 35 36  4  0  0  0  0
 36 37  4  0  0  0  0
M  END
>  <Name_Molregno>
519118

>  <DOPAMINE D1>
6.69

>  <DOPAMINE D2>
6.84

>  <DOPAMINE D3>
6.83

>  <DOPAMINE D5>
6.58

>  <HISTAMINE H1>
7.4

>  <HISTAMINE H3>
9.45

$$$$
519173
  Marvin  02231216192D 0   1.00000     0.00000     0

 37 41  0  0  0  0  0  0  0  0999 V2000
    4.8594    1.8159    0.0000 Cl  0  0  0  0  0  0  0  0  0
    5.5739    2.2284    0.0000 C   0  0  0  0  0  0  0  0  0
    6.2884    1.8159    0.0000 C   0  0  0  0  0  0  0  0  0
    7.0029    2.2284    0.0000 C   0  0  0  0  0  0  0  0  0
    7.7173    1.8159    0.0000 N   0  0  0  0  0  0  0  0  0
    8.4318    2.2284    0.0000 C   0  0  0  0  0  0  0  0  0
    8.4318    3.0534    0.0000 C   0  0  0  0  0  0  0  0  0
    7.7173    3.4659    0.0000 S   0  0  0  0  0  0  0  0  0
    7.0029    3.0534    0.0000 C   0  0  0  0  0  0  0  0  0
    6.2884    3.4659    0.0000 C   0  0  0  0  0  0  0  0  0
    5.5739    3.0534    0.0000 C   0  0  0  0  0  0  0  0  0
    9.1463    3.4659    0.0000 C   0  0  0  0  0  0  0  0  0
    9.8607    3.0534    0.0000 C   0  0  0  0  0  0  0  0  0
    9.8607    2.2284    0.0000 C   0  0  0  0  0  0  0  0  0
    9.1463    1.8159    0.0000 C   0  0  0  0  0  0  0  0  0
    7.7173    0.9909    0.0000 C   0  0  0  0  0  0  0  0  0
    7.0029    0.5784    0.0000 C   0  0  0  0  0  0  0  0  0
    7.0029   -0.2466    0.0000 C   0  0  0  0  0  0  0  0  0
    6.2884   -0.6591    0.0000 N   0  0  0  0  0  0  0  0  0
    6.2884   -1.4841    0.0000 C   0  0  0  0  0  0  0  0  0
    5.5739   -1.8966    0.0000 C   0  0  0  0  0  0  0  0  0
    5.5739   -2.7216    0.0000 C   0  0  0  0  0  0  0  0  0
    4.8594   -3.1341    0.0000 C   0  0  0  0  0  0  0  0  0
    4.1450   -2.7216    0.0000 C   0  0  0  0  0  0  0  0  0
    3.4305   -3.1341    0.0000 O   0  0  0  0  0  0  0  0  0
    3.4305   -3.9591    0.0000 C   0  0  0  0  0  0  0  0  0
    2.7160   -4.3716    0.0000 C   0  0  0  0  0  0  0  0  0
    2.7160   -5.1966    0.0000 C   0  0  0  0  0  0  0  0  0
    2.0016   -5.6091    0.0000 N   0  0  0  0  0  0  0  0  0
    2.0016   -6.4341    0.0000 C   0  0  0  0  0  0  0  0  0
    1.2871   -6.8466    0.0000 C   0  0  0  0  0  0  0  0  0
    0.5726   -6.4341    0.0000 C   0  0  0  0  0  0  0  0  0
    0.5726   -5.6091    0.0000 C   0  0  0  0  0  0  0  0  0
    1.2871   -5.1966    0.0000 C   0  0  0  0  0  0  0  0  0
    4.1450   -1.8966    0.0000 C   0  0  0  0  0  0  0  0  0
    4.8594   -1.4841    0.0000 C   0  0  0  0  0  0  0  0  0
    5.5739   -0.2466    0.0000 C   0  0  0  0  0  0  0  0  0
  1  2  1  0  0  0  0
  2  3  4  0  0  0  0
  2 11  4  0  0  0  0
  3  4  4  0  0  0  0
  4  5  1  0  0  0  0
  4  9  4  0  0  0  0
  5  6  1  0  0  0  0
  5 16  1  0  0  0  0
  6  7  4  0  0  0  0
  6 15  4  0  0  0  0
  7  8  1  0  0  0  0
  7 12  4  0  0  0  0
  8  9  1  0  0  0  0
  9 10  4  0  0  0  0
 10 11  4  0  0  0  0
 12 13  4  0  0  0  0
 13 14  4  0  0  0  0
 14 15  4  0  0  0  0
 16 17  1  0  0  0  0
 17 18  1  0  0  0  0
 18 19  1  0  0  0  0
 19 20  1  0  0  0  0
 19 37  1  0  0  0  0
 20 21  1  0  0  0  0
 21 22  4  0  0  0  0
 21 36  4  0  0  0  0
 22 23  4  0  0  0  0
 23 24  4  0  0  0  0
 24 25  1  0  0  0  0
 24 35  4  0  0  0  0
 25 26  1  0  0  0  0
 26 27  1  0  0  0  0
 27 28  1  0  0  0  0
 28 29  1  0  0  0  0
 29 30  1  0  0  0  0
 29 34  1  0  0  0  0
 30 31  1  0  0  0  0
 31 32  1  0  0  0  0
 32 33  1  0  0  0  0
 33 34  1  0  0  0  0
 35 36  4  0  0  0  0
M  END
>  <Name_Molregno>
519173

>  <DOPAMINE D1>
6.63

>  <DOPAMINE D2>
7.39

>  <DOPAMINE D3>
7.3

>  <DOPAMINE D5>
6.82

>  <HISTAMINE H1>
6.69

>  <HISTAMINE H3>
8.92

$$$$
519174
  Marvin  02231216192D 0   1.00000     0.00000     0

 37 41  0  0  0  0  0  0  0  0999 V2000
   -0.4896    2.3975    0.0000 Cl  0  0  0  0  0  0  0  0  0
   -1.2040    2.8100    0.0000 C   0  0  0  0  0  0  0  0  0
   -1.9185    2.3975    0.0000 C   0  0  0  0  0  0  0  0  0
   -2.6330    2.8100    0.0000 C   0  0  0  0  0  0  0  0  0
   -2.6330    3.6350    0.0000 C   0  0  0  0  0  0  0  0  0
   -3.3475    4.0475    0.0000 S   0  0  0  0  0  0  0  0  0
   -4.0619    3.6350    0.0000 C   0  0  0  0  0  0  0  0  0
   -4.0619    2.8100    0.0000 C   0  0  0  0  0  0  0  0  0
   -4.7764    2.3975    0.0000 C   0  0  0  0  0  0  0  0  0
   -5.4909    2.8100    0.0000 C   0  0  0  0  0  0  0  0  0
   -5.4909    3.6350    0.0000 C   0  0  0  0  0  0  0  0  0
   -4.7764    4.0475    0.0000 C   0  0  0  0  0  0  0  0  0
   -3.3475    2.3975    0.0000 C   0  0  0  0  0  0  0  0  0
   -3.3475    1.5725    0.0000 C   0  0  0  0  0  0  0  0  0
   -4.0619    1.1600    0.0000 C   0  0  0  0  0  0  0  0  0
   -4.0619    0.3350    0.0000 C   0  0  0  0  0  0  0  0  0
   -4.7764   -0.0775    0.0000 N   0  0  0  0  0  0  0  0  0
   -4.7764   -0.9025    0.0000 C   0  0  0  0  0  0  0  0  0
   -5.4909   -1.3150    0.0000 C   0  0  0  0  0  0  0  0  0
   -5.4909   -2.1400    0.0000 C   0  0  0  0  0  0  0  0  0
   -6.2053   -2.5525    0.0000 C   0  0  0  0  0  0  0  0  0
   -6.9198   -2.1400    0.0000 C   0  0  0  0  0  0  0  0  0
   -7.6343   -2.5525    0.0000 O   0  0  0  0  0  0  0  0  0
   -7.6343   -3.3775    0.0000 C   0  0  0  0  0  0  0  0  0
   -8.3488   -3.7900    0.0000 C   0  0  0  0  0  0  0  0  0
   -8.3488   -4.6150    0.0000 C   0  0  0  0  0  0  0  0  0
   -9.0632   -5.0275    0.0000 N   0  0  0  0  0  0  0  0  0
   -9.0632   -5.8525    0.0000 C   0  0  0  0  0  0  0  0  0
   -9.7777   -6.2650    0.0000 C   0  0  0  0  0  0  0  0  0
  -10.4922   -5.8525    0.0000 C   0  0  0  0  0  0  0  0  0
  -10.4922   -5.0275    0.0000 C   0  0  0  0  0  0  0  0  0
   -9.7777   -4.6150    0.0000 C   0  0  0  0  0  0  0  0  0
   -6.9198   -1.3150    0.0000 C   0  0  0  0  0  0  0  0  0
   -6.2053   -0.9025    0.0000 C   0  0  0  0  0  0  0  0  0
   -5.4909    0.3350    0.0000 C   0  0  0  0  0  0  0  0  0
   -1.9185    4.0475    0.0000 C   0  0  0  0  0  0  0  0  0
   -1.2040    3.6350    0.0000 C   0  0  0  0  0  0  0  0  0
  1  2  1  0  0  0  0
  2  3  4  0  0  0  0
  2 37  4  0  0  0  0
  3  4  4  0  0  0  0
  4  5  4  0  0  0  0
  4 13  1  0  0  0  0
  5  6  1  0  0  0  0
  5 36  4  0  0  0  0
  6  7  1  0  0  0  0
  7  8  4  0  0  0  0
  7 12  4  0  0  0  0
  8  9  4  0  0  0  0
  8 13  1  0  0  0  0
  9 10  4  0  0  0  0
 10 11  4  0  0  0  0
 11 12  4  0  0  0  0
 13 14  2  0  0  0  0
 14 15  1  0  0  0  0
 15 16  1  0  0  0  0
 16 17  1  0  0  0  0
 17 18  1  0  0  0  0
 17 35  1  0  0  0  0
 18 19  1  0  0  0  0
 19 20  4  0  0  0  0
 19 34  4  0  0  0  0
 20 21  4  0  0  0  0
 21 22  4  0  0  0  0
 22 23  1  0  0  0  0
 22 33  4  0  0  0  0
 23 24  1  0  0  0  0
 24 25  1  0  0  0  0
 25 26  1  0  0  0  0
 26 27  1  0  0  0  0
 27 28  1  0  0  0  0
 27 32  1  0  0  0  0
 28 29  1  0  0  0  0
 29 30  1  0  0  0  0
 30 31  1  0  0  0  0
 31 32  1  0  0  0  0
 33 34  4  0  0  0  0
 36 37  4  0  0  0  0
M  END
>  <Name_Molregno>
519174

>  <DOPAMINE D1>
6.61

>  <DOPAMINE D2>
7.28

>  <DOPAMINE D3>
7.3

>  <DOPAMINE D5>
6.53

>  <HISTAMINE H1>
6.53

>  <HISTAMINE H3>
8.81

$$$$
519223
  Marvin  02231216192D 0   1.00000     0.00000     0

 39 44  0  0  0  0  0  0  0  0999 V2000
   -1.5718   -4.2946    0.0000 Cl  0  0  0  0  0  0  0  0  0
   -0.7834   -4.5378    0.0000 C   0  0  0  0  0  0  0  0  0
   -0.1787   -3.9766    0.0000 C   0  0  0  0  0  0  0  0  0
    0.6097   -4.2198    0.0000 C   0  0  0  0  0  0  0  0  0
    1.1241   -3.5748    0.0000 N   0  0  0  0  0  0  0  0  0
    1.9491   -3.5748    0.0000 C   0  0  0  0  0  0  0  0  0
    2.3070   -2.8315    0.0000 N   0  0  0  0  0  0  0  0  0
    1.8423   -2.1499    0.0000 C   0  0  0  0  0  0  0  0  0
    2.2002   -1.4066    0.0000 C   0  0  0  0  0  0  0  0  0
    3.0229   -1.3449    0.0000 N   0  0  0  0  0  0  0  0  0
    3.4877   -2.0265    0.0000 C   0  0  0  0  0  0  0  0  0
    3.1297   -2.7698    0.0000 C   0  0  0  0  0  0  0  0  0
    3.3809   -0.6016    0.0000 C   0  0  0  0  0  0  0  0  0
    4.2036   -0.5399    0.0000 C   0  0  0  0  0  0  0  0  0
    4.5615    0.2034    0.0000 C   0  0  0  0  0  0  0  0  0
    5.3842    0.2650    0.0000 C   0  0  0  0  0  0  0  0  0
    5.8490   -0.4166    0.0000 C   0  0  0  0  0  0  0  0  0
    6.6717   -0.3550    0.0000 O   0  0  0  0  0  0  0  0  0
    7.0296    0.3883    0.0000 C   0  0  0  0  0  0  0  0  0
    7.8523    0.4500    0.0000 C   0  0  0  0  0  0  0  0  0
    8.2103    1.1933    0.0000 C   0  0  0  0  0  0  0  0  0
    9.0329    1.2549    0.0000 N   0  0  0  0  0  0  0  0  0
    9.3909    1.9982    0.0000 C   0  0  0  0  0  0  0  0  0
   10.2136    2.0599    0.0000 C   0  0  0  0  0  0  0  0  0
   10.6783    1.3782    0.0000 C   0  0  0  0  0  0  0  0  0
   10.3204    0.6349    0.0000 C   0  0  0  0  0  0  0  0  0
    9.4977    0.5733    0.0000 C   0  0  0  0  0  0  0  0  0
    5.4910   -1.1599    0.0000 C   0  0  0  0  0  0  0  0  0
    4.6683   -1.2216    0.0000 C   0  0  0  0  0  0  0  0  0
    2.4634   -4.2198    0.0000 C   0  0  0  0  0  0  0  0  0
    2.2799   -5.0241    0.0000 C   0  0  0  0  0  0  0  0  0
    1.5366   -5.3821    0.0000 N   0  0  0  0  0  0  0  0  0
    0.7933   -5.0241    0.0000 C   0  0  0  0  0  0  0  0  0
    0.1885   -5.5853    0.0000 C   0  0  0  0  0  0  0  0  0
   -0.5998   -5.3421    0.0000 C   0  0  0  0  0  0  0  0  0
    2.8846   -5.5853    0.0000 C   0  0  0  0  0  0  0  0  0
    3.6730   -5.3421    0.0000 C   0  0  0  0  0  0  0  0  0
    3.8566   -4.5378    0.0000 C   0  0  0  0  0  0  0  0  0
    3.2518   -3.9766    0.0000 C   0  0  0  0  0  0  0  0  0
  1  2  1  0  0  0  0
  2  3  4  0  0  0  0
  2 35  4  0  0  0  0
  3  4  4  0  0  0  0
  4  5  1  0  0  0  0
  4 33  4  0  0  0  0
  5  6  2  0  0  0  0
  6  7  1  0  0  0  0
  6 30  1  0  0  0  0
  7  8  1  0  0  0  0
  7 12  1  0  0  0  0
  8  9  1  0  0  0  0
  9 10  1  0  0  0  0
 10 11  1  0  0  0  0
 10 13  1  0  0  0  0
 11 12  1  0  0  0  0
 13 14  1  0  0  0  0
 14 15  4  0  0  0  0
 14 29  4  0  0  0  0
 15 16  4  0  0  0  0
 16 17  4  0  0  0  0
 17 18  1  0  0  0  0
 17 28  4  0  0  0  0
 18 19  1  0  0  0  0
 19 20  1  0  0  0  0
 20 21  1  0  0  0  0
 21 22  1  0  0  0  0
 22 23  1  0  0  0  0
 22 27  1  0  0  0  0
 23 24  1  0  0  0  0
 24 25  1  0  0  0  0
 25 26  1  0  0  0  0
 26 27  1  0  0  0  0
 28 29  4  0  0  0  0
 30 31  4  0  0  0  0
 30 39  4  0  0  0  0
 31 32  1  0  0  0  0
 31 36  4  0  0  0  0
 32 33  1  0  0  0  0
 33 34  4  0  0  0  0
 34 35  4  0  0  0  0
 36 37  4  0  0  0  0
 37 38  4  0  0  0  0
 38 39  4  0  0  0  0
M  END
>  <Name_Molregno>
519223

>  <DOPAMINE D1>
6.06

>  <DOPAMINE D2>
6.55

>  <DOPAMINE D3>
6.65

>  <DOPAMINE D5>
6.04

>  <HISTAMINE H1>
6.72

>  <HISTAMINE H3>
8.49

$$$$
519224
  Marvin  02231216192D 0   1.00000     0.00000     0

 48 53  0  0  0  0  0  0  0  0999 V2000
    8.7754   -5.1467    0.0000 S   0  0  0  0  0  0  0  0  0
    9.4898   -4.7342    0.0000 C   0  0  0  0  0  0  0  0  0
    9.4898   -3.9092    0.0000 C   0  0  0  0  0  0  0  0  0
    8.7754   -3.4967    0.0000 N   0  0  0  0  0  0  0  0  0
    8.0609   -3.9092    0.0000 C   0  0  0  0  0  0  0  0  0
    8.0609   -4.7342    0.0000 C   0  0  0  0  0  0  0  0  0
    7.3464   -5.1467    0.0000 C   0  0  0  0  0  0  0  0  0
    6.6319   -4.7342    0.0000 C   0  0  0  0  0  0  0  0  0
    6.6319   -3.9092    0.0000 C   0  0  0  0  0  0  0  0  0
    7.3464   -3.4967    0.0000 C   0  0  0  0  0  0  0  0  0
    8.7754   -2.6717    0.0000 C   0  0  0  0  0  0  0  0  0
    8.0609   -2.2592    0.0000 C   0  0  0  0  0  0  0  0  0
    8.0609   -1.4342    0.0000 C   0  0  0  0  0  0  0  0  0
    7.3464   -1.0217    0.0000 N   0  0  0  0  0  0  0  0  0
    6.6319   -1.4342    0.0000 C   0  0  0  0  0  0  0  0  0
    5.9175   -1.0217    0.0000 C   0  0  0  0  0  0  0  0  0
    5.9175   -0.1967    0.0000 N   0  0  0  0  0  0  0  0  0
    6.6319    0.2158    0.0000 C   0  0  0  0  0  0  0  0  0
    7.3464   -0.1967    0.0000 C   0  0  0  0  0  0  0  0  0
    5.2030    0.2158    0.0000 C   0  0  0  0  0  0  0  0  0
    5.2030    1.0408    0.0000 C   0  0  0  0  0  0  0  0  0
    4.4885    1.4533    0.0000 O   0  0  0  0  0  0  0  0  0
    4.4885    2.2783    0.0000 C   0  0  0  0  0  0  0  0  0
    5.2030    2.6908    0.0000 O   0  0  0  0  0  0  0  0  0
    3.7741    2.6908    0.0000 C   0  0  0  0  0  0  0  0  0
    3.0596    2.2783    0.0000 C   0  0  0  0  0  0  0  0  0
    2.3451    2.6908    0.0000 C   0  0  0  0  0  0  0  0  0
    2.3451    3.5158    0.0000 C   0  0  0  0  0  0  0  0  0
    1.6307    3.9283    0.0000 O   0  0  0  0  0  0  0  0  0
    1.6307    4.7533    0.0000 C   0  0  0  0  0  0  0  0  0
    0.9162    5.1658    0.0000 C   0  0  0  0  0  0  0  0  0
    0.9162    5.9908    0.0000 C   0  0  0  0  0  0  0  0  0
    0.2017    6.4033    0.0000 N   0  0  0  0  0  0  0  0  0
   -0.5128    5.9908    0.0000 C   0  0  0  0  0  0  0  0  0
   -1.2272    6.4033    0.0000 C   0  0  0  0  0  0  0  0  0
   -1.2272    7.2283    0.0000 C   0  0  0  0  0  0  0  0  0
   -0.5128    7.6408    0.0000 C   0  0  0  0  0  0  0  0  0
    0.2017    7.2283    0.0000 C   0  0  0  0  0  0  0  0  0
    3.0596    3.9283    0.0000 C   0  0  0  0  0  0  0  0  0
    3.7741    3.5158    0.0000 C   0  0  0  0  0  0  0  0  0
   10.2043   -3.4967    0.0000 C   0  0  0  0  0  0  0  0  0
   10.9188   -3.9092    0.0000 C   0  0  0  0  0  0  0  0  0
   10.9188   -4.7342    0.0000 C   0  0  0  0  0  0  0  0  0
   10.2043   -5.1467    0.0000 C   0  0  0  0  0  0  0  0  0
   11.6332   -3.4967    0.0000 C   0  0  0  0  0  0  0  0  0
   12.3477   -3.0842    0.0000 F   0  0  0  0  0  0  0  0  0
   12.0457   -4.2112    0.0000 F   0  0  0  0  0  0  0  0  0
   11.2207   -2.7822    0.0000 F   0  0  0  0  0  0  0  0  0
  1  2  1  0  0  0  0
  1  6  1  0  0  0  0
  2  3  4  0  0  0  0
  2 44  4  0  0  0  0
  3  4  1  0  0  0  0
  3 41  4  0  0  0  0
  4  5  1  0  0  0  0
  4 11  1  0  0  0  0
  5  6  4  0  0  0  0
  5 10  4  0  0  0  0
  6  7  4  0  0  0  0
  7  8  4  0  0  0  0
  8  9  4  0  0  0  0
  9 10  4  0  0  0  0
 11 12  1  0  0  0  0
 12 13  1  0  0  0  0
 13 14  1  0  0  0  0
 14 15  1  0  0  0  0
 14 19  1  0  0  0  0
 15 16  1  0  0  0  0
 16 17  1  0  0  0  0
 17 18  1  0  0  0  0
 17 20  1  0  0  0  0
 18 19  1  0  0  0  0
 20 21  1  0  0  0  0
 21 22  1  0  0  0  0
 22 23  1  0  0  0  0
 23 24  2  0  0  0  0
 23 25  1  0  0  0  0
 25 26  4  0  0  0  0
 25 40  4  0  0  0  0
 26 27  4  0  0  0  0
 27 28  4  0  0  0  0
 28 29  1  0  0  0  0
 28 39  4  0  0  0  0
 29 30  1  0  0  0  0
 30 31  1  0  0  0  0
 31 32  1  0  0  0  0
 32 33  1  0  0  0  0
 33 34  1  0  0  0  0
 33 38  1  0  0  0  0
 34 35  1  0  0  0  0
 35 36  1  0  0  0  0
 36 37  1  0  0  0  0
 37 38  1  0  0  0  0
 39 40  4  0  0  0  0
 41 42  4  0  0  0  0
 42 43  4  0  0  0  0
 42 45  1  0  0  0  0
 43 44  4  0  0  0  0
 45 46  1  0  0  0  0
 45 47  1  0  0  0  0
 45 48  1  0  0  0  0
M  END
>  <Name_Molregno>
519224

>  <DOPAMINE D1>
6.69

>  <DOPAMINE D2>
7.33

>  <DOPAMINE D3>
7.82

>  <DOPAMINE D5>
6.58

>  <HISTAMINE H1>
6.41

>  <HISTAMINE H3>
10.38

$$$$
521393
  Marvin  02231216192D 0   1.00000     0.00000     0

 24 26  0  0  0  0  0  0  0  0999 V2000
   -0.1317   -0.8362    0.0000 F   0  0  0  0  0  0  0  0  0
    0.5827   -0.4237    0.0000 C   0  0  0  0  0  0  0  0  0
    0.5827    0.4013    0.0000 C   0  0  0  0  0  0  0  0  0
    1.2972    0.8138    0.0000 C   0  0  0  0  0  0  0  0  0
    2.0117    0.4013    0.0000 N   0  0  0  0  0  0  0  0  0
    2.0117   -0.4237    0.0000 C   0  0  0  0  0  0  0  0  0
    1.2972   -0.8362    0.0000 C   0  0  0  0  0  0  0  0  0
    2.7261    0.8138    0.0000 C   0  0  0  0  0  0  0  0  0
    3.4406    0.4013    0.0000 C   0  0  0  0  0  0  0  0  0
    4.1551    0.8138    0.0000 C   0  0  0  0  0  0  0  0  0
    4.8696    0.4013    0.0000 C   0  0  0  0  0  0  0  0  0
    4.8696   -0.4237    0.0000 C   0  0  0  0  0  0  0  0  0
    5.5840   -0.8362    0.0000 O   0  0  0  0  0  0  0  0  0
    6.2985   -0.4237    0.0000 C   0  0  0  0  0  0  0  0  0
    7.0130   -0.8362    0.0000 C   0  0  0  0  0  0  0  0  0
    7.7274   -0.4237    0.0000 C   0  0  0  0  0  0  0  0  0
    8.4419   -0.8362    0.0000 N   0  0  0  0  0  0  0  0  0
    9.1564   -0.4237    0.0000 C   0  0  0  0  0  0  0  0  0
    9.8709   -0.8362    0.0000 C   0  0  0  0  0  0  0  0  0
    9.8709   -1.6612    0.0000 C   0  0  0  0  0  0  0  0  0
    9.1564   -2.0737    0.0000 C   0  0  0  0  0  0  0  0  0
    8.4419   -1.6612    0.0000 C   0  0  0  0  0  0  0  0  0
    4.1551   -0.8362    0.0000 C   0  0  0  0  0  0  0  0  0
    3.4406   -0.4237    0.0000 C   0  0  0  0  0  0  0  0  0
  1  2  1  0  0  0  0
  2  3  1  0  0  0  0
  2  7  1  0  0  0  0
  3  4  1  0  0  0  0
  4  5  1  0  0  0  0
  5  6  1  0  0  0  0
  5  8  1  0  0  0  0
  6  7  1  0  0  0  0
  8  9  1  0  0  0  0
  9 10  4  0  0  0  0
  9 24  4  0  0  0  0
 10 11  4  0  0  0  0
 11 12  4  0  0  0  0
 12 13  1  0  0  0  0
 12 23  4  0  0  0  0
 13 14  1  0  0  0  0
 14 15  1  0  0  0  0
 15 16  1  0  0  0  0
 16 17  1  0  0  0  0
 17 18  1  0  0  0  0
 17 22  1  0  0  0  0
 18 19  1  0  0  0  0
 19 20  1  0  0  0  0
 20 21  1  0  0  0  0
 21 22  1  0  0  0  0
 23 24  4  0  0  0  0
M  END
>  <Name_Molregno>
521393

>  <HISTAMINE H3>
10.03

$$$$
521467
  Marvin  02231216192D 0   1.00000     0.00000     0

 20 21  0  0  0  0  0  0  0  0999 V2000
    0.4259    2.8812    0.0000 F   0  0  0  0  0  0  0  0  0
    0.7081    2.1059    0.0000 C   0  0  0  0  0  0  0  0  0
   -0.1044    1.9627    0.0000 F   0  0  0  0  0  0  0  0  0
    1.4225    2.5184    0.0000 C   0  0  0  0  0  0  0  0  0
    2.1370    2.1059    0.0000 C   0  0  0  0  0  0  0  0  0
    2.1370    1.2809    0.0000 N   0  0  0  0  0  0  0  0  0
    1.4225    0.8684    0.0000 C   0  0  0  0  0  0  0  0  0
    0.7081    1.2809    0.0000 C   0  0  0  0  0  0  0  0  0
    2.8515    0.8684    0.0000 C   0  0  0  0  0  0  0  0  0
    3.5659    1.2809    0.0000 C   0  0  0  0  0  0  0  0  0
    4.2804    0.8684    0.0000 C   0  0  0  0  0  0  0  0  0
    4.9949    1.2809    0.0000 O   0  0  0  0  0  0  0  0  0
    5.7094    0.8684    0.0000 C   0  0  0  0  0  0  0  0  0
    6.4238    1.2809    0.0000 C   0  0  0  0  0  0  0  0  0
    7.1383    0.8684    0.0000 C   0  0  0  0  0  0  0  0  0
    7.1383    0.0434    0.0000 C   0  0  0  0  0  0  0  0  0
    6.4238   -0.3691    0.0000 C   0  0  0  0  0  0  0  0  0
    5.7094    0.0434    0.0000 C   0  0  0  0  0  0  0  0  0
    7.8528   -0.3691    0.0000 C   0  0  0  0  0  0  0  0  0
    8.5672   -0.7816    0.0000 N   0  0  0  0  0  0  0  0  0
  1  2  1  0  0  0  0
  2  3  1  0  0  0  0
  2  4  1  0  0  0  0
  2  8  1  0  0  0  0
  4  5  1  0  0  0  0
  5  6  1  0  0  0  0
  6  7  1  0  0  0  0
  6  9  1  0  0  0  0
  7  8  1  0  0  0  0
  9 10  1  0  0  0  0
 10 11  1  0  0  0  0
 11 12  1  0  0  0  0
 12 13  1  0  0  0  0
 13 14  4  0  0  0  0
 13 18  4  0  0  0  0
 14 15  4  0  0  0  0
 15 16  4  0  0  0  0
 16 17  4  0  0  0  0
 16 19  1  0  0  0  0
 17 18  4  0  0  0  0
 19 20  3  0  0  0  0
M  END
>  <Name_Molregno>
521467

>  <HISTAMINE H3>
6

$$$$
521468
  Marvin  02231216192D 0   1.00000     0.00000     0

 18 19  0  0  0  0  0  0  0  0999 V2000
   -0.2188    2.1751    0.0000 F   0  0  0  0  0  0  0  0  0
    0.4957    2.5876    0.0000 C   0  0  0  0  0  0  0  0  0
    1.2102    2.1751    0.0000 C   0  0  0  0  0  0  0  0  0
    1.9247    2.5876    0.0000 C   0  0  0  0  0  0  0  0  0
    2.6391    2.1751    0.0000 C   0  0  0  0  0  0  0  0  0
    2.6391    1.3501    0.0000 C   0  0  0  0  0  0  0  0  0
    3.3536    0.9376    0.0000 O   0  0  0  0  0  0  0  0  0
    4.0681    1.3501    0.0000 C   0  0  0  0  0  0  0  0  0
    4.7825    0.9376    0.0000 C   0  0  0  0  0  0  0  0  0
    5.4970    1.3501    0.0000 C   0  0  0  0  0  0  0  0  0
    6.2115    0.9376    0.0000 N   0  0  0  0  0  0  0  0  0
    6.9260    1.3501    0.0000 C   0  0  0  0  0  0  0  0  0
    7.6404    0.9376    0.0000 C   0  0  0  0  0  0  0  0  0
    7.6404    0.1126    0.0000 C   0  0  0  0  0  0  0  0  0
    6.9260   -0.2999    0.0000 C   0  0  0  0  0  0  0  0  0
    6.2115    0.1126    0.0000 C   0  0  0  0  0  0  0  0  0
    1.9247    0.9376    0.0000 C   0  0  0  0  0  0  0  0  0
    1.2102    1.3501    0.0000 C   0  0  0  0  0  0  0  0  0
  1  2  1  0  0  0  0
  2  3  1  0  0  0  0
  3  4  4  0  0  0  0
  3 18  4  0  0  0  0
  4  5  4  0  0  0  0
  5  6  4  0  0  0  0
  6  7  1  0  0  0  0
  6 17  4  0  0  0  0
  7  8  1  0  0  0  0
  8  9  1  0  0  0  0
  9 10  1  0  0  0  0
 10 11  1  0  0  0  0
 11 12  1  0  0  0  0
 11 16  1  0  0  0  0
 12 13  1  0  0  0  0
 13 14  1  0  0  0  0
 14 15  1  0  0  0  0
 15 16  1  0  0  0  0
 17 18  4  0  0  0  0
M  END
>  <Name_Molregno>
521468

>  <HISTAMINE H3>
7.76

$$$$
521469
  Marvin  02231216192D 0   1.00000     0.00000     0

 19 20  0  0  0  0  0  0  0  0999 V2000
    0.0283    1.5420    0.0000 F   0  0  0  0  0  0  0  0  0
    0.7428    1.1295    0.0000 C   0  0  0  0  0  0  0  0  0
    1.4573    1.5420    0.0000 C   0  0  0  0  0  0  0  0  0
    2.1718    1.1295    0.0000 C   0  0  0  0  0  0  0  0  0
    2.8862    1.5420    0.0000 C   0  0  0  0  0  0  0  0  0
    3.6007    1.1295    0.0000 C   0  0  0  0  0  0  0  0  0
    3.6007    0.3045    0.0000 C   0  0  0  0  0  0  0  0  0
    4.3152   -0.1080    0.0000 O   0  0  0  0  0  0  0  0  0
    5.0296    0.3045    0.0000 C   0  0  0  0  0  0  0  0  0
    5.7441   -0.1080    0.0000 C   0  0  0  0  0  0  0  0  0
    6.4586    0.3045    0.0000 C   0  0  0  0  0  0  0  0  0
    7.1731   -0.1080    0.0000 N   0  0  0  0  0  0  0  0  0
    7.8875    0.3045    0.0000 C   0  0  0  0  0  0  0  0  0
    8.6020   -0.1080    0.0000 C   0  0  0  0  0  0  0  0  0
    8.6020   -0.9330    0.0000 C   0  0  0  0  0  0  0  0  0
    7.8875   -1.3455    0.0000 C   0  0  0  0  0  0  0  0  0
    7.1731   -0.9330    0.0000 C   0  0  0  0  0  0  0  0  0
    2.8862   -0.1080    0.0000 C   0  0  0  0  0  0  0  0  0
    2.1718    0.3045    0.0000 C   0  0  0  0  0  0  0  0  0
  1  2  1  0  0  0  0
  2  3  1  0  0  0  0
  3  4  1  0  0  0  0
  4  5  4  0  0  0  0
  4 19  4  0  0  0  0
  5  6  4  0  0  0  0
  6  7  4  0  0  0  0
  7  8  1  0  0  0  0
  7 18  4  0  0  0  0
  8  9  1  0  0  0  0
  9 10  1  0  0  0  0
 10 11  1  0  0  0  0
 11 12  1  0  0  0  0
 12 13  1  0  0  0  0
 12 17  1  0  0  0  0
 13 14  1  0  0  0  0
 14 15  1  0  0  0  0
 15 16  1  0  0  0  0
 16 17  1  0  0  0  0
 18 19  4  0  0  0  0
M  END
>  <Name_Molregno>
521469

>  <HISTAMINE H3>
7.37

$$$$
521470
  Marvin  02231216192D 0   1.00000     0.00000     0

 23 25  0  0  1  0  0  0  0  0999 V2000
    0.7477   -0.5820    0.0000 F   0  0  0  0  0  0  0  0  0
    1.0833    0.1717    0.0000 C   0  0  0  0  0  0  0  0  0
    0.6708    0.8861    0.0000 C   0  0  0  0  0  0  0  0  0
    1.2228    1.4992    0.0000 C   0  0  0  0  0  0  0  0  0
    1.9765    1.1637    0.0000 N   0  0  0  0  0  0  0  0  0
    1.8902    0.3432    0.0000 C   0  0  0  0  0  0  0  0  0
    2.6910    1.5762    0.0000 C   0  0  0  0  0  0  0  0  0
    3.4054    1.1637    0.0000 C   0  0  0  0  0  0  0  0  0
    4.1199    1.5762    0.0000 C   0  0  0  0  0  0  0  0  0
    4.8344    1.1637    0.0000 C   0  0  0  0  0  0  0  0  0
    4.8344    0.3387    0.0000 C   0  0  0  0  0  0  0  0  0
    5.5488   -0.0738    0.0000 O   0  0  0  0  0  0  0  0  0
    6.2633    0.3387    0.0000 C   0  0  0  0  0  0  0  0  0
    6.9778   -0.0738    0.0000 C   0  0  0  0  0  0  0  0  0
    7.6922    0.3387    0.0000 C   0  0  0  0  0  0  0  0  0
    8.4067   -0.0738    0.0000 N   0  0  0  0  0  0  0  0  0
    9.1212    0.3387    0.0000 C   0  0  0  0  0  0  0  0  0
    9.8357   -0.0738    0.0000 C   0  0  0  0  0  0  0  0  0
    9.8357   -0.8988    0.0000 C   0  0  0  0  0  0  0  0  0
    9.1212   -1.3113    0.0000 C   0  0  0  0  0  0  0  0  0
    8.4067   -0.8988    0.0000 C   0  0  0  0  0  0  0  0  0
    4.1199   -0.0738    0.0000 C   0  0  0  0  0  0  0  0  0
    3.4054    0.3387    0.0000 C   0  0  0  0  0  0  0  0  0
  1  2  1  0  0  0  0
  2  3  1  0  0  0  0
  2  6  1  0  0  0  0
  3  4  1  0  0  0  0
  4  5  1  0  0  0  0
  5  6  1  0  0  0  0
  5  7  1  0  0  0  0
  7  8  1  0  0  0  0
  8  9  4  0  0  0  0
  8 23  4  0  0  0  0
  9 10  4  0  0  0  0
 10 11  4  0  0  0  0
 11 12  1  0  0  0  0
 11 22  4  0  0  0  0
 12 13  1  0  0  0  0
 13 14  1  0  0  0  0
 14 15  1  0  0  0  0
 15 16  1  0  0  0  0
 16 17  1  0  0  0  0
 16 21  1  0  0  0  0
 17 18  1  0  0  0  0
 18 19  1  0  0  0  0
 19 20  1  0  0  0  0
 20 21  1  0  0  0  0
 22 23  4  0  0  0  0
M  END
>  <Name_Molregno>
521470

>  <HISTAMINE H3>
9.55

$$$$
521544
  Marvin  02231216192D 0   1.00000     0.00000     0

 23 25  0  0  0  0  0  0  0  0999 V2000
   -0.1222   -0.0363    0.0000 F   0  0  0  0  0  0  0  0  0
    0.5923    0.3762    0.0000 C   0  0  0  0  0  0  0  0  0
    0.5923    1.2012    0.0000 C   0  0  0  0  0  0  0  0  0
    1.3068    1.6137    0.0000 C   0  0  0  0  0  0  0  0  0
    2.0213    1.2012    0.0000 N   0  0  0  0  0  0  0  0  0
    2.0213    0.3762    0.0000 C   0  0  0  0  0  0  0  0  0
    1.3068   -0.0363    0.0000 C   0  0  0  0  0  0  0  0  0
    2.7357    1.6137    0.0000 C   0  0  0  0  0  0  0  0  0
    3.4502    1.2012    0.0000 C   0  0  0  0  0  0  0  0  0
    4.1647    1.6137    0.0000 C   0  0  0  0  0  0  0  0  0
    4.8791    1.2012    0.0000 C   0  0  0  0  0  0  0  0  0
    4.8791    0.3762    0.0000 C   0  0  0  0  0  0  0  0  0
    5.5936   -0.0363    0.0000 O   0  0  0  0  0  0  0  0  0
    6.3081    0.3762    0.0000 C   0  0  0  0  0  0  0  0  0
    7.0226   -0.0363    0.0000 C   0  0  0  0  0  0  0  0  0
    7.7370    0.3762    0.0000 C   0  0  0  0  0  0  0  0  0
    8.4515   -0.0363    0.0000 N   0  0  0  0  0  0  0  0  0
    9.2052    0.2992    0.0000 C   0  0  0  0  0  0  0  0  0
    9.7572   -0.3139    0.0000 C   0  0  0  0  0  0  0  0  0
    9.3447   -1.0283    0.0000 C   0  0  0  0  0  0  0  0  0
    8.5377   -0.8568    0.0000 C   0  0  0  0  0  0  0  0  0
    4.1647   -0.0363    0.0000 C   0  0  0  0  0  0  0  0  0
    3.4502    0.3762    0.0000 C   0  0  0  0  0  0  0  0  0
  1  2  1  0  0  0  0
  2  3  1  0  0  0  0
  2  7  1  0  0  0  0
  3  4  1  0  0  0  0
  4  5  1  0  0  0  0
  5  6  1  0  0  0  0
  5  8  1  0  0  0  0
  6  7  1  0  0  0  0
  8  9  1  0  0  0  0
  9 10  4  0  0  0  0
  9 23  4  0  0  0  0
 10 11  4  0  0  0  0
 11 12  4  0  0  0  0
 12 13  1  0  0  0  0
 12 22  4  0  0  0  0
 13 14  1  0  0  0  0
 14 15  1  0  0  0  0
 15 16  1  0  0  0  0
 16 17  1  0  0  0  0
 17 18  1  0  0  0  0
 17 21  1  0  0  0  0
 18 19  1  0  0  0  0
 19 20  1  0  0  0  0
 20 21  1  0  0  0  0
 22 23  4  0  0  0  0
M  END
>  <Name_Molregno>
521544

>  <HISTAMINE H3>
9.59

$$$$
521545
  Marvin  02231216192D 0   1.00000     0.00000     0

 22 24  0  0  1  0  0  0  0  0999 V2000
    0.7479   -0.6552    0.0000 F   0  0  0  0  0  0  0  0  0
    1.0835    0.0984    0.0000 C   0  0  0  0  0  0  0  0  0
    0.6710    0.8129    0.0000 C   0  0  0  0  0  0  0  0  0
    1.2230    1.4260    0.0000 C   0  0  0  0  0  0  0  0  0
    1.9767    1.0904    0.0000 N   0  0  0  0  0  0  0  0  0
    1.8904    0.2700    0.0000 C   0  0  0  0  0  0  0  0  0
    2.6911    1.5029    0.0000 C   0  0  0  0  0  0  0  0  0
    3.4056    1.0904    0.0000 C   0  0  0  0  0  0  0  0  0
    4.1201    1.5029    0.0000 C   0  0  0  0  0  0  0  0  0
    4.8346    1.0904    0.0000 C   0  0  0  0  0  0  0  0  0
    4.8346    0.2654    0.0000 C   0  0  0  0  0  0  0  0  0
    5.5490   -0.1471    0.0000 O   0  0  0  0  0  0  0  0  0
    6.2635    0.2654    0.0000 C   0  0  0  0  0  0  0  0  0
    6.9780   -0.1471    0.0000 C   0  0  0  0  0  0  0  0  0
    7.6924    0.2654    0.0000 C   0  0  0  0  0  0  0  0  0
    8.4069   -0.1471    0.0000 N   0  0  0  0  0  0  0  0  0
    9.1606    0.1885    0.0000 C   0  0  0  0  0  0  0  0  0
    9.7126   -0.4246    0.0000 C   0  0  0  0  0  0  0  0  0
    9.3001   -1.1391    0.0000 C   0  0  0  0  0  0  0  0  0
    8.4932   -0.9675    0.0000 C   0  0  0  0  0  0  0  0  0
    4.1201   -0.1471    0.0000 C   0  0  0  0  0  0  0  0  0
    3.4056    0.2654    0.0000 C   0  0  0  0  0  0  0  0  0
  1  2  1  0  0  0  0
  2  3  1  0  0  0  0
  2  6  1  0  0  0  0
  3  4  1  0  0  0  0
  4  5  1  0  0  0  0
  5  6  1  0  0  0  0
  5  7  1  0  0  0  0
  7  8  1  0  0  0  0
  8  9  4  0  0  0  0
  8 22  4  0  0  0  0
  9 10  4  0  0  0  0
 10 11  4  0  0  0  0
 11 12  1  0  0  0  0
 11 21  4  0  0  0  0
 12 13  1  0  0  0  0
 13 14  1  0  0  0  0
 14 15  1  0  0  0  0
 15 16  1  0  0  0  0
 16 17  1  0  0  0  0
 16 20  1  0  0  0  0
 17 18  1  0  0  0  0
 18 19  1  0  0  0  0
 19 20  1  0  0  0  0
 21 22  4  0  0  0  0
M  END
>  <Name_Molregno>
521545

>  <HISTAMINE H3>
9.51

$$$$
521546
  Marvin  02231216192D 0   1.00000     0.00000     0

 23 25  0  0  0  0  0  0  0  0999 V2000
    0.3555    1.4643    0.0000 F   0  0  0  0  0  0  0  0  0
    1.0699    1.0518    0.0000 C   0  0  0  0  0  0  0  0  0
    1.7844    1.4643    0.0000 C   0  0  0  0  0  0  0  0  0
    2.4989    1.0518    0.0000 C   0  0  0  0  0  0  0  0  0
    2.4989    0.2268    0.0000 N   0  0  0  0  0  0  0  0  0
    1.7844   -0.1857    0.0000 C   0  0  0  0  0  0  0  0  0
    1.0699    0.2268    0.0000 C   0  0  0  0  0  0  0  0  0
    3.2134   -0.1857    0.0000 C   0  0  0  0  0  0  0  0  0
    3.9278    0.2268    0.0000 C   0  0  0  0  0  0  0  0  0
    4.6423   -0.1857    0.0000 C   0  0  0  0  0  0  0  0  0
    5.3568    0.2268    0.0000 O   0  0  0  0  0  0  0  0  0
    6.0712   -0.1857    0.0000 C   0  0  0  0  0  0  0  0  0
    6.7857    0.2268    0.0000 C   0  0  0  0  0  0  0  0  0
    7.5002   -0.1857    0.0000 C   0  0  0  0  0  0  0  0  0
    7.5002   -1.0107    0.0000 C   0  0  0  0  0  0  0  0  0
    6.7857   -1.4232    0.0000 C   0  0  0  0  0  0  0  0  0
    6.0712   -1.0107    0.0000 C   0  0  0  0  0  0  0  0  0
    8.2146   -1.4232    0.0000 C   0  0  0  0  0  0  0  0  0
    8.2146   -2.2482    0.0000 N   0  0  0  0  0  0  0  0  0
    8.8821   -2.7331    0.0000 C   0  0  0  0  0  0  0  0  0
    8.6271   -3.5177    0.0000 C   0  0  0  0  0  0  0  0  0
    7.8021   -3.5177    0.0000 C   0  0  0  0  0  0  0  0  0
    7.5472   -2.7331    0.0000 C   0  0  0  0  0  0  0  0  0
  1  2  1  0  0  0  0
  2  3  1  0  0  0  0
  2  7  1  0  0  0  0
  3  4  1  0  0  0  0
  4  5  1  0  0  0  0
  5  6  1  0  0  0  0
  5  8  1  0  0  0  0
  6  7  1  0  0  0  0
  8  9  1  0  0  0  0
  9 10  1  0  0  0  0
 10 11  1  0  0  0  0
 11 12  1  0  0  0  0
 12 13  4  0  0  0  0
 12 17  4  0  0  0  0
 13 14  4  0  0  0  0
 14 15  4  0  0  0  0
 15 16  4  0  0  0  0
 15 18  1  0  0  0  0
 16 17  4  0  0  0  0
 18 19  1  0  0  0  0
 19 20  1  0  0  0  0
 19 23  1  0  0  0  0
 20 21  1  0  0  0  0
 21 22  1  0  0  0  0
 22 23  1  0  0  0  0
M  END
>  <Name_Molregno>
521546

>  <HISTAMINE H3>
9

$$$$
521547
  Marvin  02231216192D 0   1.00000     0.00000     0

 25 27  0  0  0  0  0  0  0  0999 V2000
   -0.5264   -0.5548    0.0000 F   0  0  0  0  0  0  0  0  0
    0.2861   -0.6981    0.0000 C   0  0  0  0  0  0  0  0  0
    0.0039   -1.4734    0.0000 F   0  0  0  0  0  0  0  0  0
    0.2861    0.1269    0.0000 C   0  0  0  0  0  0  0  0  0
    1.0005    0.5394    0.0000 C   0  0  0  0  0  0  0  0  0
    1.7150    0.1269    0.0000 N   0  0  0  0  0  0  0  0  0
    1.7150   -0.6981    0.0000 C   0  0  0  0  0  0  0  0  0
    1.0005   -1.1106    0.0000 C   0  0  0  0  0  0  0  0  0
    2.4295    0.5394    0.0000 C   0  0  0  0  0  0  0  0  0
    3.1440    0.1269    0.0000 C   0  0  0  0  0  0  0  0  0
    3.8584    0.5394    0.0000 C   0  0  0  0  0  0  0  0  0
    4.5729    0.1269    0.0000 C   0  0  0  0  0  0  0  0  0
    4.5729   -0.6981    0.0000 C   0  0  0  0  0  0  0  0  0
    5.2874   -1.1106    0.0000 O   0  0  0  0  0  0  0  0  0
    6.0018   -0.6981    0.0000 C   0  0  0  0  0  0  0  0  0
    6.7163   -1.1106    0.0000 C   0  0  0  0  0  0  0  0  0
    7.4308   -0.6981    0.0000 C   0  0  0  0  0  0  0  0  0
    8.1452   -1.1106    0.0000 N   0  0  0  0  0  0  0  0  0
    8.8597   -0.6981    0.0000 C   0  0  0  0  0  0  0  0  0
    9.5742   -1.1106    0.0000 C   0  0  0  0  0  0  0  0  0
    9.5742   -1.9356    0.0000 C   0  0  0  0  0  0  0  0  0
    8.8597   -2.3481    0.0000 C   0  0  0  0  0  0  0  0  0
    8.1452   -1.9356    0.0000 C   0  0  0  0  0  0  0  0  0
    3.8584   -1.1106    0.0000 C   0  0  0  0  0  0  0  0  0
    3.1440   -0.6981    0.0000 C   0  0  0  0  0  0  0  0  0
  1  2  1  0  0  0  0
  2  3  1  0  0  0  0
  2  4  1  0  0  0  0
  2  8  1  0  0  0  0
  4  5  1  0  0  0  0
  5  6  1  0  0  0  0
  6  7  1  0  0  0  0
  6  9  1  0  0  0  0
  7  8  1  0  0  0  0
  9 10  1  0  0  0  0
 10 11  4  0  0  0  0
 10 25  4  0  0  0  0
 11 12  4  0  0  0  0
 12 13  4  0  0  0  0
 13 14  1  0  0  0  0
 13 24  4  0  0  0  0
 14 15  1  0  0  0  0
 15 16  1  0  0  0  0
 16 17  1  0  0  0  0
 17 18  1  0  0  0  0
 18 19  1  0  0  0  0
 18 23  1  0  0  0  0
 19 20  1  0  0  0  0
 20 21  1  0  0  0  0
 21 22  1  0  0  0  0
 22 23  1  0  0  0  0
 24 25  4  0  0  0  0
M  END
>  <Name_Molregno>
521547

>  <HISTAMINE H3>
9.62

$$$$
521548
  Marvin  02231216192D 0   1.00000     0.00000     0

 24 26  0  0  0  0  0  0  0  0999 V2000
   -0.1317   -0.8362    0.0000 Br  0  0  0  0  0  0  0  0  0
    0.5827   -0.4237    0.0000 C   0  0  0  0  0  0  0  0  0
    0.5827    0.4013    0.0000 C   0  0  0  0  0  0  0  0  0
    1.2972    0.8138    0.0000 C   0  0  0  0  0  0  0  0  0
    2.0117    0.4013    0.0000 N   0  0  0  0  0  0  0  0  0
    2.0117   -0.4237    0.0000 C   0  0  0  0  0  0  0  0  0
    1.2972   -0.8362    0.0000 C   0  0  0  0  0  0  0  0  0
    2.7261    0.8138    0.0000 C   0  0  0  0  0  0  0  0  0
    3.4406    0.4013    0.0000 C   0  0  0  0  0  0  0  0  0
    4.1551    0.8138    0.0000 C   0  0  0  0  0  0  0  0  0
    4.8696    0.4013    0.0000 C   0  0  0  0  0  0  0  0  0
    4.8696   -0.4237    0.0000 C   0  0  0  0  0  0  0  0  0
    5.5840   -0.8362    0.0000 O   0  0  0  0  0  0  0  0  0
    6.2985   -0.4237    0.0000 C   0  0  0  0  0  0  0  0  0
    7.0130   -0.8362    0.0000 C   0  0  0  0  0  0  0  0  0
    7.7274   -0.4237    0.0000 C   0  0  0  0  0  0  0  0  0
    8.4419   -0.8362    0.0000 N   0  0  0  0  0  0  0  0  0
    9.1564   -0.4237    0.0000 C   0  0  0  0  0  0  0  0  0
    9.8709   -0.8362    0.0000 C   0  0  0  0  0  0  0  0  0
    9.8709   -1.6612    0.0000 C   0  0  0  0  0  0  0  0  0
    9.1564   -2.0737    0.0000 C   0  0  0  0  0  0  0  0  0
    8.4419   -1.6612    0.0000 C   0  0  0  0  0  0  0  0  0
    4.1551   -0.8362    0.0000 C   0  0  0  0  0  0  0  0  0
    3.4406   -0.4237    0.0000 C   0  0  0  0  0  0  0  0  0
  1  2  1  0  0  0  0
  2  3  1  0  0  0  0
  2  7  1  0  0  0  0
  3  4  1  0  0  0  0
  4  5  1  0  0  0  0
  5  6  1  0  0  0  0
  5  8  1  0  0  0  0
  6  7  1  0  0  0  0
  8  9  1  0  0  0  0
  9 10  4  0  0  0  0
  9 24  4  0  0  0  0
 10 11  4  0  0  0  0
 11 12  4  0  0  0  0
 12 13  1  0  0  0  0
 12 23  4  0  0  0  0
 13 14  1  0  0  0  0
 14 15  1  0  0  0  0
 15 16  1  0  0  0  0
 16 17  1  0  0  0  0
 17 18  1  0  0  0  0
 17 22  1  0  0  0  0
 18 19  1  0  0  0  0
 19 20  1  0  0  0  0
 20 21  1  0  0  0  0
 21 22  1  0  0  0  0
 23 24  4  0  0  0  0
M  END
>  <Name_Molregno>
521548

>  <HISTAMINE H3>
9.7

$$$$
521626
  Marvin  02231216192D 0   1.00000     0.00000     0

 24 26  0  0  0  0  0  0  0  0999 V2000
   -0.1317   -0.8362    0.0000 Cl  0  0  0  0  0  0  0  0  0
    0.5827   -0.4237    0.0000 C   0  0  0  0  0  0  0  0  0
    0.5827    0.4013    0.0000 C   0  0  0  0  0  0  0  0  0
    1.2972    0.8138    0.0000 C   0  0  0  0  0  0  0  0  0
    2.0117    0.4013    0.0000 N   0  0  0  0  0  0  0  0  0
    2.0117   -0.4237    0.0000 C   0  0  0  0  0  0  0  0  0
    1.2972   -0.8362    0.0000 C   0  0  0  0  0  0  0  0  0
    2.7261    0.8138    0.0000 C   0  0  0  0  0  0  0  0  0
    3.4406    0.4013    0.0000 C   0  0  0  0  0  0  0  0  0
    4.1551    0.8138    0.0000 C   0  0  0  0  0  0  0  0  0
    4.8696    0.4013    0.0000 C   0  0  0  0  0  0  0  0  0
    4.8696   -0.4237    0.0000 C   0  0  0  0  0  0  0  0  0
    5.5840   -0.8362    0.0000 O   0  0  0  0  0  0  0  0  0
    6.2985   -0.4237    0.0000 C   0  0  0  0  0  0  0  0  0
    7.0130   -0.8362    0.0000 C   0  0  0  0  0  0  0  0  0
    7.7274   -0.4237    0.0000 C   0  0  0  0  0  0  0  0  0
    8.4419   -0.8362    0.0000 N   0  0  0  0  0  0  0  0  0
    9.1564   -0.4237    0.0000 C   0  0  0  0  0  0  0  0  0
    9.8709   -0.8362    0.0000 C   0  0  0  0  0  0  0  0  0
    9.8709   -1.6612    0.0000 C   0  0  0  0  0  0  0  0  0
    9.1564   -2.0737    0.0000 C   0  0  0  0  0  0  0  0  0
    8.4419   -1.6612    0.0000 C   0  0  0  0  0  0  0  0  0
    4.1551   -0.8362    0.0000 C   0  0  0  0  0  0  0  0  0
    3.4406   -0.4237    0.0000 C   0  0  0  0  0  0  0  0  0
  1  2  1  0  0  0  0
  2  3  1  0  0  0  0
  2  7  1  0  0  0  0
  3  4  1  0  0  0  0
  4  5  1  0  0  0  0
  5  6  1  0  0  0  0
  5  8  1  0  0  0  0
  6  7  1  0  0  0  0
  8  9  1  0  0  0  0
  9 10  4  0  0  0  0
  9 24  4  0  0  0  0
 10 11  4  0  0  0  0
 11 12  4  0  0  0  0
 12 13  1  0  0  0  0
 12 23  4  0  0  0  0
 13 14  1  0  0  0  0
 14 15  1  0  0  0  0
 15 16  1  0  0  0  0
 16 17  1  0  0  0  0
 17 18  1  0  0  0  0
 17 22  1  0  0  0  0
 18 19  1  0  0  0  0
 19 20  1  0  0  0  0
 20 21  1  0  0  0  0
 21 22  1  0  0  0  0
 23 24  4  0  0  0  0
M  END
>  <Name_Molregno>
521626

>  <HISTAMINE H3>
10.17

$$$$
521627
  Marvin  02231216192D 0   1.00000     0.00000     0

 28 30  0  0  0  0  0  0  0  0999 V2000
    1.9148   -3.5171    0.0000 S   0  0  0  0  0  0  0  0  0
    2.6292   -3.1046    0.0000 O   0  0  0  0  0  0  0  0  0
    2.6292   -2.2796    0.0000 C   0  0  0  0  0  0  0  0  0
    1.9148   -1.8671    0.0000 C   0  0  0  0  0  0  0  0  0
    1.9148   -1.0421    0.0000 C   0  0  0  0  0  0  0  0  0
    2.6292   -0.6296    0.0000 N   0  0  0  0  0  0  0  0  0
    3.3437   -1.0421    0.0000 C   0  0  0  0  0  0  0  0  0
    3.3437   -1.8671    0.0000 C   0  0  0  0  0  0  0  0  0
    2.6292    0.1954    0.0000 C   0  0  0  0  0  0  0  0  0
    3.3437    0.6079    0.0000 C   0  0  0  0  0  0  0  0  0
    3.3437    1.4329    0.0000 C   0  0  0  0  0  0  0  0  0
    4.0582    1.8454    0.0000 C   0  0  0  0  0  0  0  0  0
    4.7726    1.4329    0.0000 C   0  0  0  0  0  0  0  0  0
    5.4871    1.8454    0.0000 O   0  0  0  0  0  0  0  0  0
    6.2016    1.4329    0.0000 C   0  0  0  0  0  0  0  0  0
    6.9160    1.8454    0.0000 C   0  0  0  0  0  0  0  0  0
    7.6305    1.4329    0.0000 C   0  0  0  0  0  0  0  0  0
    8.3450    1.8454    0.0000 N   0  0  0  0  0  0  0  0  0
    8.3450    2.6704    0.0000 C   0  0  0  0  0  0  0  0  0
    9.0595    3.0829    0.0000 C   0  0  0  0  0  0  0  0  0
    9.7739    2.6704    0.0000 C   0  0  0  0  0  0  0  0  0
    9.7739    1.8454    0.0000 C   0  0  0  0  0  0  0  0  0
    9.0595    1.4329    0.0000 C   0  0  0  0  0  0  0  0  0
    4.7726    0.6079    0.0000 C   0  0  0  0  0  0  0  0  0
    4.0582    0.1954    0.0000 C   0  0  0  0  0  0  0  0  0
    1.2003   -3.9296    0.0000 O   0  0  0  0  0  0  0  0  0
    1.5023   -2.8026    0.0000 O   0  0  0  0  0  0  0  0  0
    2.3273   -4.2315    0.0000 C   0  0  0  0  0  0  0  0  0
  1  2  1  0  0  0  0
  1 26  2  0  0  0  0
  1 27  2  0  0  0  0
  1 28  1  0  0  0  0
  2  3  1  0  0  0  0
  3  4  1  0  0  0  0
  3  8  1  0  0  0  0
  4  5  1  0  0  0  0
  5  6  1  0  0  0  0
  6  7  1  0  0  0  0
  6  9  1  0  0  0  0
  7  8  1  0  0  0  0
  9 10  1  0  0  0  0
 10 11  4  0  0  0  0
 10 25  4  0  0  0  0
 11 12  4  0  0  0  0
 12 13  4  0  0  0  0
 13 14  1  0  0  0  0
 13 24  4  0  0  0  0
 14 15  1  0  0  0  0
 15 16  1  0  0  0  0
 16 17  1  0  0  0  0
 17 18  1  0  0  0  0
 18 19  1  0  0  0  0
 18 23  1  0  0  0  0
 19 20  1  0  0  0  0
 20 21  1  0  0  0  0
 21 22  1  0  0  0  0
 22 23  1  0  0  0  0
 24 25  4  0  0  0  0
M  END
>  <Name_Molregno>
521627

>  <HISTAMINE H3>
9.08

$$$$
549495
  Marvin  02231216192D 0   1.00000     0.00000     0

 10  9  0  0  0  0  0  0  0  0999 V2000
    2.1160    0.4045    0.0000 S   0  0  0  0  0  0  0  0  0
    1.4016   -0.0080    0.0000 C   0  0  0  0  0  0  0  0  0
    0.6871    0.4045    0.0000 C   0  0  0  0  0  0  0  0  0
   -0.0274   -0.0080    0.0000 N   0  0  0  0  0  0  0  0  0
   -0.7419    0.4045    0.0000 C   0  0  0  0  0  0  0  0  0
   -1.4563   -0.0080    0.0000 N   0  0  0  0  0  0  0  0  0
   -0.7419    1.2295    0.0000 N   0  0  0  0  0  0  0  0  0
    2.8305   -0.0080    0.0000 C   0  0  0  0  0  0  0  0  0
    3.5450    0.4045    0.0000 N   0  0  0  0  0  0  0  0  0
    2.8305   -0.8330    0.0000 N   0  0  0  0  0  0  0  0  0
  1  2  1  0  0  0  0
  1  8  1  0  0  0  0
  2  3  1  0  0  0  0
  3  4  1  0  0  0  0
  4  5  1  0  0  0  0
  5  6  1  0  0  0  0
  5  7  2  0  0  0  0
  8  9  1  0  0  0  0
  8 10  2  0  0  0  0
M  END
>  <Name_Molregno>
549495

>  <HISTAMINE H3>
6

>  <HISTAMINE H4>
7.5

$$$$
549520
  Marvin  02231216192D 0   1.00000     0.00000     0

  8  8  0  0  0  0  0  0  0  0999 V2000
    0.8354   -1.4766    0.0000 N   0  0  0  0  0  0  0  0  0
    0.5805   -0.6920    0.0000 C   0  0  0  0  0  0  0  0  0
    1.2479   -0.2071    0.0000 C   0  0  0  0  0  0  0  0  0
    1.9154   -0.6920    0.0000 N   0  0  0  0  0  0  0  0  0
    1.6604   -1.4766    0.0000 C   0  0  0  0  0  0  0  0  0
    1.2479    0.6179    0.0000 C   0  0  0  0  0  0  0  0  0
    1.9624    1.0304    0.0000 C   0  0  0  0  0  0  0  0  0
    1.9624    1.8554    0.0000 N   0  0  0  0  0  0  0  0  0
  1  2  4  0  0  0  0
  1  5  4  0  0  0  0
  2  3  4  0  0  0  0
  3  4  4  0  0  0  0
  3  6  1  0  0  0  0
  4  5  4  0  0  0  0
  6  7  1  0  0  0  0
  7  8  1  0  0  0  0
M  STY  1   1 DAT
M  SAL   1  1   1
M  SDT   1 MRV_IMPLICIT_H                                        
M  SDD   1     0.0000    0.0000    DR    ALL  0       0  
M  SED   1 IMPL_H1
M  END
>  <Name_Molregno>
549520

>  <HISTAMINE H1>
4.1

>  <HISTAMINE H3>
8.28

>  <HISTAMINE H4>
7.82

$$$$
549798
  Marvin  02231216192D 0   1.00000     0.00000     0

 32 35  0  0  0  0  0  0  0  0999 V2000
   -2.3149   -2.3553    0.0000 O   0  0  0  0  0  0  0  0  0
   -1.6004   -2.7678    0.0000 C   0  0  0  0  0  0  0  0  0
   -1.6004   -3.5928    0.0000 C   0  0  0  0  0  0  0  0  0
   -0.8860   -4.0053    0.0000 C   0  0  0  0  0  0  0  0  0
   -0.8860   -4.8303    0.0000 N   0  0  0  0  0  0  0  0  0
   -0.1715   -5.2428    0.0000 C   0  0  0  0  0  0  0  0  0
   -0.1715   -6.0678    0.0000 C   0  0  0  0  0  0  0  0  0
   -0.8860   -6.4803    0.0000 C   0  0  0  0  0  0  0  0  0
   -1.6004   -6.0678    0.0000 C   0  0  0  0  0  0  0  0  0
   -1.6004   -5.2428    0.0000 C   0  0  0  0  0  0  0  0  0
   -2.3149   -1.5303    0.0000 C   0  0  0  0  0  0  0  0  0
   -3.0294   -1.1178    0.0000 C   0  0  0  0  0  0  0  0  0
   -3.0294   -0.2928    0.0000 C   0  0  0  0  0  0  0  0  0
   -2.3149    0.1197    0.0000 C   0  0  0  0  0  0  0  0  0
   -2.3149    0.9447    0.0000 N   0  0  0  0  0  0  0  0  0
   -3.0294    1.3572    0.0000 C   0  0  0  0  0  0  0  0  0
   -3.0294    2.1822    0.0000 C   0  0  0  0  0  0  0  0  0
   -2.3149    2.5947    0.0000 N   0  0  0  0  0  0  0  0  0
   -1.6004    2.1822    0.0000 C   0  0  0  0  0  0  0  0  0
   -1.6004    1.3572    0.0000 C   0  0  0  0  0  0  0  0  0
   -0.8860    0.9447    0.0000 O   0  0  0  0  0  0  0  0  0
   -2.3149    3.4197    0.0000 C   0  0  0  0  0  0  0  0  0
   -1.6004    3.8322    0.0000 O   0  0  0  0  0  0  0  0  0
   -3.0294    3.8322    0.0000 C   0  0  0  0  0  0  0  0  0
   -3.7438    3.4197    0.0000 C   0  0  0  0  0  0  0  0  0
   -4.4583    3.8322    0.0000 C   0  0  0  0  0  0  0  0  0
   -4.4583    4.6572    0.0000 C   0  0  0  0  0  0  0  0  0
   -3.7438    5.0697    0.0000 C   0  0  0  0  0  0  0  0  0
   -3.0294    4.6572    0.0000 C   0  0  0  0  0  0  0  0  0
   -5.1728    5.0697    0.0000 C   0  0  0  0  0  0  0  0  0
   -1.6004   -0.2928    0.0000 C   0  0  0  0  0  0  0  0  0
   -1.6004   -1.1178    0.0000 C   0  0  0  0  0  0  0  0  0
  1  2  1  0  0  0  0
  1 11  1  0  0  0  0
  2  3  1  0  0  0  0
  3  4  1  0  0  0  0
  4  5  1  0  0  0  0
  5  6  1  0  0  0  0
  5 10  1  0  0  0  0
  6  7  1  0  0  0  0
  7  8  1  0  0  0  0
  8  9  1  0  0  0  0
  9 10  1  0  0  0  0
 11 12  4  0  0  0  0
 11 32  4  0  0  0  0
 12 13  4  0  0  0  0
 13 14  4  0  0  0  0
 14 15  1  0  0  0  0
 14 31  4  0  0  0  0
 15 16  1  0  0  0  0
 15 20  1  0  0  0  0
 16 17  1  0  0  0  0
 17 18  1  0  0  0  0
 18 19  1  0  0  0  0
 18 22  1  0  0  0  0
 19 20  1  0  0  0  0
 20 21  2  0  0  0  0
 22 23  2  0  0  0  0
 22 24  1  0  0  0  0
 24 25  4  0  0  0  0
 24 29  4  0  0  0  0
 25 26  4  0  0  0  0
 26 27  4  0  0  0  0
 27 28  4  0  0  0  0
 27 30  1  0  0  0  0
 28 29  4  0  0  0  0
 31 32  4  0  0  0  0
M  END
>  <Name_Molregno>
549798

>  <Alpha-1A>
5.6

>  <Alpha-1B>
5.8

>  <HISTAMINE H1>
5.7

>  <HISTAMINE H3>
9.1

$$$$
549799
  Marvin  02231216192D 0   1.00000     0.00000     0

 29 31  0  0  0  0  0  0  0  0999 V2000
   -0.3825   -1.6405    0.0000 O   0  0  0  0  0  0  0  0  0
    0.3320   -1.2280    0.0000 C   0  0  0  0  0  0  0  0  0
    1.0465   -1.6405    0.0000 C   0  0  0  0  0  0  0  0  0
    1.7609   -1.2280    0.0000 C   0  0  0  0  0  0  0  0  0
    2.4754   -1.6405    0.0000 N   0  0  0  0  0  0  0  0  0
    3.1899   -1.2280    0.0000 C   0  0  0  0  0  0  0  0  0
    3.9043   -1.6405    0.0000 C   0  0  0  0  0  0  0  0  0
    3.9043   -2.4655    0.0000 C   0  0  0  0  0  0  0  0  0
    3.1899   -2.8780    0.0000 C   0  0  0  0  0  0  0  0  0
    2.4754   -2.4655    0.0000 C   0  0  0  0  0  0  0  0  0
   -1.0970   -1.2280    0.0000 C   0  0  0  0  0  0  0  0  0
   -1.8114   -1.6405    0.0000 C   0  0  0  0  0  0  0  0  0
   -2.5259   -1.2280    0.0000 C   0  0  0  0  0  0  0  0  0
   -2.5259   -0.4030    0.0000 C   0  0  0  0  0  0  0  0  0
   -3.2404    0.0095    0.0000 N   0  0  0  0  0  0  0  0  0
   -3.9548   -0.4030    0.0000 C   0  0  0  0  0  0  0  0  0
   -4.6693    0.0095    0.0000 C   0  0  0  0  0  0  0  0  0
   -4.6693    0.8345    0.0000 N   0  0  0  0  0  0  0  0  0
   -3.9548    1.2470    0.0000 C   0  0  0  0  0  0  0  0  0
   -3.2404    0.8345    0.0000 C   0  0  0  0  0  0  0  0  0
   -2.5259    1.2470    0.0000 O   0  0  0  0  0  0  0  0  0
   -5.3838    1.2470    0.0000 C   0  0  0  0  0  0  0  0  0
   -5.3838    2.0720    0.0000 O   0  0  0  0  0  0  0  0  0
   -6.0982    0.8345    0.0000 C   0  0  0  0  0  0  0  0  0
   -6.8127    0.4220    0.0000 C   0  0  0  0  0  0  0  0  0
   -6.5107    1.5489    0.0000 C   0  0  0  0  0  0  0  0  0
   -5.6857    0.1200    0.0000 C   0  0  0  0  0  0  0  0  0
   -1.8114    0.0095    0.0000 C   0  0  0  0  0  0  0  0  0
   -1.0970   -0.4030    0.0000 C   0  0  0  0  0  0  0  0  0
  1  2  1  0  0  0  0
  1 11  1  0  0  0  0
  2  3  1  0  0  0  0
  3  4  1  0  0  0  0
  4  5  1  0  0  0  0
  5  6  1  0  0  0  0
  5 10  1  0  0  0  0
  6  7  1  0  0  0  0
  7  8  1  0  0  0  0
  8  9  1  0  0  0  0
  9 10  1  0  0  0  0
 11 12  4  0  0  0  0
 11 29  4  0  0  0  0
 12 13  4  0  0  0  0
 13 14  4  0  0  0  0
 14 15  1  0  0  0  0
 14 28  4  0  0  0  0
 15 16  1  0  0  0  0
 15 20  1  0  0  0  0
 16 17  1  0  0  0  0
 17 18  1  0  0  0  0
 18 19  1  0  0  0  0
 18 22  1  0  0  0  0
 19 20  1  0  0  0  0
 20 21  2  0  0  0  0
 22 23  2  0  0  0  0
 22 24  1  0  0  0  0
 24 25  1  0  0  0  0
 24 26  1  0  0  0  0
 24 27  1  0  0  0  0
 28 29  4  0  0  0  0
M  END
>  <Name_Molregno>
549799

>  <Alpha-1A>
5.4

>  <Alpha-1B>
5.6

>  <HISTAMINE H1>
5.7

>  <HISTAMINE H3>
8.5

$$$$
549800
  Marvin  02231216192D 0   1.00000     0.00000     0

 33 37  0  0  0  0  0  0  0  0999 V2000
   -5.2125   -1.3071    0.0000 O   0  0  0  0  0  0  0  0  0
   -5.2125   -2.1321    0.0000 C   0  0  0  0  0  0  0  0  0
   -4.4980   -2.5446    0.0000 C   0  0  0  0  0  0  0  0  0
   -4.4980   -3.3696    0.0000 C   0  0  0  0  0  0  0  0  0
   -5.2125   -3.7821    0.0000 N   0  0  0  0  0  0  0  0  0
   -5.9269   -3.3696    0.0000 C   0  0  0  0  0  0  0  0  0
   -5.9269   -2.5446    0.0000 C   0  0  0  0  0  0  0  0  0
   -5.2125   -4.6071    0.0000 C   0  0  0  0  0  0  0  0  0
   -4.6291   -5.1904    0.0000 C   0  0  0  0  0  0  0  0  0
   -5.2125   -5.7738    0.0000 C   0  0  0  0  0  0  0  0  0
   -5.7958   -5.1904    0.0000 C   0  0  0  0  0  0  0  0  0
   -4.4980   -0.8946    0.0000 C   0  0  0  0  0  0  0  0  0
   -4.4980   -0.0696    0.0000 C   0  0  0  0  0  0  0  0  0
   -3.7835    0.3429    0.0000 C   0  0  0  0  0  0  0  0  0
   -3.0691   -0.0696    0.0000 C   0  0  0  0  0  0  0  0  0
   -2.3546    0.3429    0.0000 N   0  0  0  0  0  0  0  0  0
   -2.3546    1.1679    0.0000 C   0  0  0  0  0  0  0  0  0
   -1.6401    1.5804    0.0000 C   0  0  0  0  0  0  0  0  0
   -0.9257    1.1679    0.0000 N   0  0  0  0  0  0  0  0  0
   -0.9257    0.3429    0.0000 C   0  0  0  0  0  0  0  0  0
   -1.6401   -0.0696    0.0000 C   0  0  0  0  0  0  0  0  0
   -1.6401   -0.8946    0.0000 O   0  0  0  0  0  0  0  0  0
   -0.2112    1.5804    0.0000 C   0  0  0  0  0  0  0  0  0
   -0.2112    2.4054    0.0000 O   0  0  0  0  0  0  0  0  0
    0.5033    1.1679    0.0000 C   0  0  0  0  0  0  0  0  0
    1.2178    1.5804    0.0000 C   0  0  0  0  0  0  0  0  0
    1.9322    1.1679    0.0000 C   0  0  0  0  0  0  0  0  0
    1.9322    0.3429    0.0000 C   0  0  0  0  0  0  0  0  0
    1.2178   -0.0696    0.0000 C   0  0  0  0  0  0  0  0  0
    0.5033    0.3429    0.0000 C   0  0  0  0  0  0  0  0  0
    2.6467   -0.0696    0.0000 C   0  0  0  0  0  0  0  0  0
   -3.0691   -0.8946    0.0000 C   0  0  0  0  0  0  0  0  0
   -3.7835   -1.3071    0.0000 C   0  0  0  0  0  0  0  0  0
  1  2  1  0  0  0  0
  1 12  1  0  0  0  0
  2  3  1  0  0  0  0
  2  7  1  0  0  0  0
  3  4  1  0  0  0  0
  4  5  1  0  0  0  0
  5  6  1  0  0  0  0
  5  8  1  0  0  0  0
  6  7  1  0  0  0  0
  8  9  1  0  0  0  0
  8 11  1  0  0  0  0
  9 10  1  0  0  0  0
 10 11  1  0  0  0  0
 12 13  4  0  0  0  0
 12 33  4  0  0  0  0
 13 14  4  0  0  0  0
 14 15  4  0  0  0  0
 15 16  1  0  0  0  0
 15 32  4  0  0  0  0
 16 17  1  0  0  0  0
 16 21  1  0  0  0  0
 17 18  1  0  0  0  0
 18 19  1  0  0  0  0
 19 20  1  0  0  0  0
 19 23  1  0  0  0  0
 20 21  1  0  0  0  0
 21 22  2  0  0  0  0
 23 24  2  0  0  0  0
 23 25  1  0  0  0  0
 25 26  4  0  0  0  0
 25 30  4  0  0  0  0
 26 27  4  0  0  0  0
 27 28  4  0  0  0  0
 28 29  4  0  0  0  0
 28 31  1  0  0  0  0
 29 30  4  0  0  0  0
 32 33  4  0  0  0  0
M  END
>  <Name_Molregno>
549800

>  <Alpha-1A>
5.4

>  <Alpha-1B>
5.7

>  <HISTAMINE H1>
5.7

>  <HISTAMINE H3>
9

$$$$
549801
  Marvin  02231216192D 0   1.00000     0.00000     0

 33 37  0  0  0  0  0  0  0  0999 V2000
   -8.3495   -3.2048    0.0000 F   0  0  0  0  0  0  0  0  0
   -7.6350   -2.7923    0.0000 C   0  0  0  0  0  0  0  0  0
   -7.6350   -1.9673    0.0000 C   0  0  0  0  0  0  0  0  0
   -6.9205   -1.5548    0.0000 C   0  0  0  0  0  0  0  0  0
   -6.2060   -1.9673    0.0000 C   0  0  0  0  0  0  0  0  0
   -6.2060   -2.7923    0.0000 C   0  0  0  0  0  0  0  0  0
   -6.9205   -3.2048    0.0000 C   0  0  0  0  0  0  0  0  0
   -5.4916   -1.5548    0.0000 C   0  0  0  0  0  0  0  0  0
   -5.4916   -0.7298    0.0000 O   0  0  0  0  0  0  0  0  0
   -4.7771   -1.9673    0.0000 N   0  0  0  0  0  0  0  0  0
   -4.0626   -1.5548    0.0000 C   0  0  0  0  0  0  0  0  0
   -3.3482   -1.9673    0.0000 C   0  0  0  0  0  0  0  0  0
   -2.6337   -1.5548    0.0000 O   0  0  0  0  0  0  0  0  0
   -3.3482   -2.7923    0.0000 N   0  0  0  0  0  0  0  0  0
   -4.0626   -3.2048    0.0000 C   0  0  0  0  0  0  0  0  0
   -4.7771   -2.7923    0.0000 C   0  0  0  0  0  0  0  0  0
   -2.6337   -3.2048    0.0000 C   0  0  0  0  0  0  0  0  0
   -1.9192   -2.7923    0.0000 C   0  0  0  0  0  0  0  0  0
   -1.2047   -3.2048    0.0000 C   0  0  0  0  0  0  0  0  0
   -1.2047   -4.0298    0.0000 C   0  0  0  0  0  0  0  0  0
   -0.4903   -4.4423    0.0000 O   0  0  0  0  0  0  0  0  0
   -0.4903   -5.2673    0.0000 C   0  0  0  0  0  0  0  0  0
    0.2242   -5.6798    0.0000 C   0  0  0  0  0  0  0  0  0
    0.2242   -6.5048    0.0000 C   0  0  0  0  0  0  0  0  0
   -0.4903   -6.9173    0.0000 N   0  0  0  0  0  0  0  0  0
   -1.2047   -6.5048    0.0000 C   0  0  0  0  0  0  0  0  0
   -1.2047   -5.6798    0.0000 C   0  0  0  0  0  0  0  0  0
   -0.4903   -7.7423    0.0000 C   0  0  0  0  0  0  0  0  0
    0.0931   -8.3256    0.0000 C   0  0  0  0  0  0  0  0  0
   -0.4903   -8.9090    0.0000 C   0  0  0  0  0  0  0  0  0
   -1.0736   -8.3256    0.0000 C   0  0  0  0  0  0  0  0  0
   -1.9192   -4.4423    0.0000 C   0  0  0  0  0  0  0  0  0
   -2.6337   -4.0298    0.0000 C   0  0  0  0  0  0  0  0  0
  1  2  1  0  0  0  0
  2  3  4  0  0  0  0
  2  7  4  0  0  0  0
  3  4  4  0  0  0  0
  4  5  4  0  0  0  0
  5  6  4  0  0  0  0
  5  8  1  0  0  0  0
  6  7  4  0  0  0  0
  8  9  2  0  0  0  0
  8 10  1  0  0  0  0
 10 11  1  0  0  0  0
 10 16  1  0  0  0  0
 11 12  1  0  0  0  0
 12 13  2  0  0  0  0
 12 14  1  0  0  0  0
 14 15  1  0  0  0  0
 14 17  1  0  0  0  0
 15 16  1  0  0  0  0
 17 18  4  0  0  0  0
 17 33  4  0  0  0  0
 18 19  4  0  0  0  0
 19 20  4  0  0  0  0
 20 21  1  0  0  0  0
 20 32  4  0  0  0  0
 21 22  1  0  0  0  0
 22 23  1  0  0  0  0
 22 27  1  0  0  0  0
 23 24  1  0  0  0  0
 24 25  1  0  0  0  0
 25 26  1  0  0  0  0
 25 28  1  0  0  0  0
 26 27  1  0  0  0  0
 28 29  1  0  0  0  0
 28 31  1  0  0  0  0
 29 30  1  0  0  0  0
 30 31  1  0  0  0  0
 32 33  4  0  0  0  0
M  END
>  <Name_Molregno>
549801

>  <Alpha-1A>
5.5

>  <Alpha-1B>
5.5

>  <HISTAMINE H1>
5.6

>  <HISTAMINE H3>
9.2

$$$$
549819
  Marvin  02231216192D 0   1.00000     0.00000     0

 32 35  0  0  0  0  0  0  0  0999 V2000
   -2.7718    5.0725    0.0000 Cl  0  0  0  0  0  0  0  0  0
   -2.7718    4.2475    0.0000 C   0  0  0  0  0  0  0  0  0
   -2.0573    3.8350    0.0000 C   0  0  0  0  0  0  0  0  0
   -2.0573    3.0100    0.0000 C   0  0  0  0  0  0  0  0  0
   -2.7718    2.5975    0.0000 C   0  0  0  0  0  0  0  0  0
   -3.4863    3.0100    0.0000 C   0  0  0  0  0  0  0  0  0
   -3.4863    3.8350    0.0000 C   0  0  0  0  0  0  0  0  0
   -2.7718    1.7725    0.0000 C   0  0  0  0  0  0  0  0  0
   -2.0573    1.3600    0.0000 O   0  0  0  0  0  0  0  0  0
   -3.4863    1.3600    0.0000 N   0  0  0  0  0  0  0  0  0
   -3.4863    0.5350    0.0000 C   0  0  0  0  0  0  0  0  0
   -4.2008    0.1225    0.0000 C   0  0  0  0  0  0  0  0  0
   -4.2008   -0.7025    0.0000 O   0  0  0  0  0  0  0  0  0
   -4.9152    0.5350    0.0000 N   0  0  0  0  0  0  0  0  0
   -4.9152    1.3600    0.0000 C   0  0  0  0  0  0  0  0  0
   -4.2008    1.7725    0.0000 C   0  0  0  0  0  0  0  0  0
   -5.6297    0.1225    0.0000 C   0  0  0  0  0  0  0  0  0
   -5.6297   -0.7025    0.0000 C   0  0  0  0  0  0  0  0  0
   -6.3442   -1.1150    0.0000 C   0  0  0  0  0  0  0  0  0
   -7.0586   -0.7025    0.0000 C   0  0  0  0  0  0  0  0  0
   -7.7731   -1.1150    0.0000 O   0  0  0  0  0  0  0  0  0
   -7.7731   -1.9400    0.0000 C   0  0  0  0  0  0  0  0  0
   -8.4876   -2.3525    0.0000 C   0  0  0  0  0  0  0  0  0
   -8.4876   -3.1775    0.0000 C   0  0  0  0  0  0  0  0  0
   -9.2021   -3.5900    0.0000 N   0  0  0  0  0  0  0  0  0
   -9.2021   -4.4150    0.0000 C   0  0  0  0  0  0  0  0  0
   -9.9165   -4.8275    0.0000 C   0  0  0  0  0  0  0  0  0
  -10.6310   -4.4150    0.0000 C   0  0  0  0  0  0  0  0  0
  -10.6310   -3.5900    0.0000 C   0  0  0  0  0  0  0  0  0
   -9.9165   -3.1775    0.0000 C   0  0  0  0  0  0  0  0  0
   -7.0586    0.1225    0.0000 C   0  0  0  0  0  0  0  0  0
   -6.3442    0.5350    0.0000 C   0  0  0  0  0  0  0  0  0
  1  2  1  0  0  0  0
  2  3  4  0  0  0  0
  2  7  4  0  0  0  0
  3  4  4  0  0  0  0
  4  5  4  0  0  0  0
  5  6  4  0  0  0  0
  5  8  1  0  0  0  0
  6  7  4  0  0  0  0
  8  9  2  0  0  0  0
  8 10  1  0  0  0  0
 10 11  1  0  0  0  0
 10 16  1  0  0  0  0
 11 12  1  0  0  0  0
 12 13  2  0  0  0  0
 12 14  1  0  0  0  0
 14 15  1  0  0  0  0
 14 17  1  0  0  0  0
 15 16  1  0  0  0  0
 17 18  4  0  0  0  0
 17 32  4  0  0  0  0
 18 19  4  0  0  0  0
 19 20  4  0  0  0  0
 20 21  1  0  0  0  0
 20 31  4  0  0  0  0
 21 22  1  0  0  0  0
 22 23  1  0  0  0  0
 23 24  1  0  0  0  0
 24 25  1  0  0  0  0
 25 26  1  0  0  0  0
 25 30  1  0  0  0  0
 26 27  1  0  0  0  0
 27 28  1  0  0  0  0
 28 29  1  0  0  0  0
 29 30  1  0  0  0  0
 31 32  4  0  0  0  0
M  END
>  <Name_Molregno>
549819

>  <HISTAMINE H1>
5.7

>  <HISTAMINE H3>
8.7

$$$$
549824
  Marvin  02231216192D 0   1.00000     0.00000     0

 28 31  0  0  0  0  0  0  0  0999 V2000
   -2.7483    0.8509    0.0000 O   0  0  0  0  0  0  0  0  0
   -3.4628    0.4384    0.0000 C   0  0  0  0  0  0  0  0  0
   -4.1772    0.8509    0.0000 C   0  0  0  0  0  0  0  0  0
   -4.8917    0.4384    0.0000 C   0  0  0  0  0  0  0  0  0
   -5.6062    0.8509    0.0000 N   0  0  0  0  0  0  0  0  0
   -6.3206    0.4384    0.0000 C   0  0  0  0  0  0  0  0  0
   -7.0351    0.8509    0.0000 C   0  0  0  0  0  0  0  0  0
   -7.0351    1.6759    0.0000 C   0  0  0  0  0  0  0  0  0
   -6.3206    2.0884    0.0000 C   0  0  0  0  0  0  0  0  0
   -5.6062    1.6759    0.0000 C   0  0  0  0  0  0  0  0  0
   -2.0338    0.4384    0.0000 C   0  0  0  0  0  0  0  0  0
   -1.3193    0.8509    0.0000 C   0  0  0  0  0  0  0  0  0
   -0.6049    0.4384    0.0000 C   0  0  0  0  0  0  0  0  0
   -0.6049   -0.3866    0.0000 C   0  0  0  0  0  0  0  0  0
    0.1096   -0.7991    0.0000 N   0  0  0  0  0  0  0  0  0
    0.8241   -0.3866    0.0000 C   0  0  0  0  0  0  0  0  0
    1.5385   -0.7991    0.0000 C   0  0  0  0  0  0  0  0  0
    1.5385   -1.6241    0.0000 N   0  0  0  0  0  0  0  0  0
    0.8241   -2.0366    0.0000 C   0  0  0  0  0  0  0  0  0
    0.1096   -1.6241    0.0000 C   0  0  0  0  0  0  0  0  0
   -0.6049   -2.0366    0.0000 O   0  0  0  0  0  0  0  0  0
    2.2530   -2.0366    0.0000 C   0  0  0  0  0  0  0  0  0
    2.9675   -1.6241    0.0000 O   0  0  0  0  0  0  0  0  0
    2.2530   -2.8616    0.0000 C   0  0  0  0  0  0  0  0  0
    2.6655   -3.5761    0.0000 C   0  0  0  0  0  0  0  0  0
    1.8405   -3.5761    0.0000 C   0  0  0  0  0  0  0  0  0
   -1.3193   -0.7991    0.0000 C   0  0  0  0  0  0  0  0  0
   -2.0338   -0.3866    0.0000 C   0  0  0  0  0  0  0  0  0
  1  2  1  0  0  0  0
  1 11  1  0  0  0  0
  2  3  1  0  0  0  0
  3  4  1  0  0  0  0
  4  5  1  0  0  0  0
  5  6  1  0  0  0  0
  5 10  1  0  0  0  0
  6  7  1  0  0  0  0
  7  8  1  0  0  0  0
  8  9  1  0  0  0  0
  9 10  1  0  0  0  0
 11 12  4  0  0  0  0
 11 28  4  0  0  0  0
 12 13  4  0  0  0  0
 13 14  4  0  0  0  0
 14 15  1  0  0  0  0
 14 27  4  0  0  0  0
 15 16  1  0  0  0  0
 15 20  1  0  0  0  0
 16 17  1  0  0  0  0
 17 18  1  0  0  0  0
 18 19  1  0  0  0  0
 18 22  1  0  0  0  0
 19 20  1  0  0  0  0
 20 21  2  0  0  0  0
 22 23  2  0  0  0  0
 22 24  1  0  0  0  0
 24 25  1  0  0  0  0
 24 26  1  0  0  0  0
 25 26  1  0  0  0  0
 27 28  4  0  0  0  0
M  END
>  <Name_Molregno>
549824

>  <HISTAMINE H1>
5.6

>  <HISTAMINE H3>
8.6

$$$$
549825
  Marvin  02231216192D 0   1.00000     0.00000     0

 33 36  0  0  0  0  0  0  0  0999 V2000
   -2.3675   -2.5111    0.0000 O   0  0  0  0  0  0  0  0  0
   -1.6530   -2.9236    0.0000 C   0  0  0  0  0  0  0  0  0
   -1.6530   -3.7486    0.0000 C   0  0  0  0  0  0  0  0  0
   -0.9386   -4.1611    0.0000 C   0  0  0  0  0  0  0  0  0
   -0.9386   -4.9861    0.0000 N   0  0  0  0  0  0  0  0  0
   -0.2241   -5.3986    0.0000 C   0  0  0  0  0  0  0  0  0
   -0.2241   -6.2236    0.0000 C   0  0  0  0  0  0  0  0  0
   -0.9386   -6.6361    0.0000 C   0  0  0  0  0  0  0  0  0
   -1.6530   -6.2236    0.0000 C   0  0  0  0  0  0  0  0  0
   -1.6530   -5.3986    0.0000 C   0  0  0  0  0  0  0  0  0
   -2.3675   -1.6861    0.0000 C   0  0  0  0  0  0  0  0  0
   -3.0820   -1.2736    0.0000 C   0  0  0  0  0  0  0  0  0
   -3.0820   -0.4486    0.0000 C   0  0  0  0  0  0  0  0  0
   -2.3675   -0.0361    0.0000 C   0  0  0  0  0  0  0  0  0
   -2.3675    0.7889    0.0000 N   0  0  0  0  0  0  0  0  0
   -3.0820    1.2014    0.0000 C   0  0  0  0  0  0  0  0  0
   -3.0820    2.0264    0.0000 C   0  0  0  0  0  0  0  0  0
   -2.3675    2.4389    0.0000 N   0  0  0  0  0  0  0  0  0
   -1.6530    2.0264    0.0000 C   0  0  0  0  0  0  0  0  0
   -1.6530    1.2014    0.0000 C   0  0  0  0  0  0  0  0  0
   -0.9386    0.7889    0.0000 O   0  0  0  0  0  0  0  0  0
   -2.3675    3.2639    0.0000 C   0  0  0  0  0  0  0  0  0
   -1.6530    3.6764    0.0000 O   0  0  0  0  0  0  0  0  0
   -3.0820    3.6764    0.0000 C   0  0  0  0  0  0  0  0  0
   -3.7965    3.2639    0.0000 C   0  0  0  0  0  0  0  0  0
   -4.5109    3.6764    0.0000 C   0  0  0  0  0  0  0  0  0
   -4.5109    4.5014    0.0000 C   0  0  0  0  0  0  0  0  0
   -3.7965    4.9139    0.0000 C   0  0  0  0  0  0  0  0  0
   -3.0820    4.5014    0.0000 C   0  0  0  0  0  0  0  0  0
   -5.2254    4.9139    0.0000 C   0  0  0  0  0  0  0  0  0
   -5.9399    5.3264    0.0000 N   0  0  0  0  0  0  0  0  0
   -1.6530   -0.4486    0.0000 C   0  0  0  0  0  0  0  0  0
   -1.6530   -1.2736    0.0000 C   0  0  0  0  0  0  0  0  0
  1  2  1  0  0  0  0
  1 11  1  0  0  0  0
  2  3  1  0  0  0  0
  3  4  1  0  0  0  0
  4  5  1  0  0  0  0
  5  6  1  0  0  0  0
  5 10  1  0  0  0  0
  6  7  1  0  0  0  0
  7  8  1  0  0  0  0
  8  9  1  0  0  0  0
  9 10  1  0  0  0  0
 11 12  4  0  0  0  0
 11 33  4  0  0  0  0
 12 13  4  0  0  0  0
 13 14  4  0  0  0  0
 14 15  1  0  0  0  0
 14 32  4  0  0  0  0
 15 16  1  0  0  0  0
 15 20  1  0  0  0  0
 16 17  1  0  0  0  0
 17 18  1  0  0  0  0
 18 19  1  0  0  0  0
 18 22  1  0  0  0  0
 19 20  1  0  0  0  0
 20 21  2  0  0  0  0
 22 23  2  0  0  0  0
 22 24  1  0  0  0  0
 24 25  4  0  0  0  0
 24 29  4  0  0  0  0
 25 26  4  0  0  0  0
 26 27  4  0  0  0  0
 27 28  4  0  0  0  0
 27 30  1  0  0  0  0
 28 29  4  0  0  0  0
 30 31  3  0  0  0  0
 32 33  4  0  0  0  0
M  END
>  <Name_Molregno>
549825

>  <HISTAMINE H1>
5.7

>  <HISTAMINE H3>
8.8

$$$$
549839
  Marvin  02231216192D 0   1.00000     0.00000     0

 32 35  0  0  0  0  0  0  0  0999 V2000
   -1.5077    2.1268    0.0000 F   0  0  0  0  0  0  0  0  0
   -1.5077    1.3018    0.0000 C   0  0  0  0  0  0  0  0  0
   -0.7933    0.8893    0.0000 C   0  0  0  0  0  0  0  0  0
   -0.7933    0.0643    0.0000 C   0  0  0  0  0  0  0  0  0
   -1.5077   -0.3482    0.0000 C   0  0  0  0  0  0  0  0  0
   -2.2222    0.0643    0.0000 C   0  0  0  0  0  0  0  0  0
   -2.2222    0.8893    0.0000 C   0  0  0  0  0  0  0  0  0
   -1.5077   -1.1732    0.0000 C   0  0  0  0  0  0  0  0  0
   -0.7933   -1.5857    0.0000 O   0  0  0  0  0  0  0  0  0
   -2.2222   -1.5857    0.0000 N   0  0  0  0  0  0  0  0  0
   -2.2222   -2.4107    0.0000 C   0  0  0  0  0  0  0  0  0
   -2.9367   -2.8232    0.0000 C   0  0  0  0  0  0  0  0  0
   -2.9367   -3.6482    0.0000 O   0  0  0  0  0  0  0  0  0
   -3.6512   -2.4107    0.0000 N   0  0  0  0  0  0  0  0  0
   -3.6512   -1.5857    0.0000 C   0  0  0  0  0  0  0  0  0
   -2.9367   -1.1732    0.0000 C   0  0  0  0  0  0  0  0  0
   -4.3656   -2.8232    0.0000 C   0  0  0  0  0  0  0  0  0
   -4.3656   -3.6482    0.0000 C   0  0  0  0  0  0  0  0  0
   -5.0801   -4.0607    0.0000 C   0  0  0  0  0  0  0  0  0
   -5.7946   -3.6482    0.0000 C   0  0  0  0  0  0  0  0  0
   -6.5090   -4.0607    0.0000 O   0  0  0  0  0  0  0  0  0
   -7.2235   -3.6482    0.0000 C   0  0  0  0  0  0  0  0  0
   -7.9380   -4.0607    0.0000 C   0  0  0  0  0  0  0  0  0
   -8.6524   -3.6482    0.0000 C   0  0  0  0  0  0  0  0  0
   -8.6524   -2.8232    0.0000 N   0  0  0  0  0  0  0  0  0
   -7.9380   -2.4107    0.0000 C   0  0  0  0  0  0  0  0  0
   -7.2235   -2.8232    0.0000 C   0  0  0  0  0  0  0  0  0
   -9.3669   -2.4107    0.0000 C   0  0  0  0  0  0  0  0  0
  -10.0814   -2.8232    0.0000 C   0  0  0  0  0  0  0  0  0
   -9.3669   -1.5857    0.0000 C   0  0  0  0  0  0  0  0  0
   -5.7946   -2.8232    0.0000 C   0  0  0  0  0  0  0  0  0
   -5.0801   -2.4107    0.0000 C   0  0  0  0  0  0  0  0  0
  1  2  1  0  0  0  0
  2  3  4  0  0  0  0
  2  7  4  0  0  0  0
  3  4  4  0  0  0  0
  4  5  4  0  0  0  0
  5  6  4  0  0  0  0
  5  8  1  0  0  0  0
  6  7  4  0  0  0  0
  8  9  2  0  0  0  0
  8 10  1  0  0  0  0
 10 11  1  0  0  0  0
 10 16  1  0  0  0  0
 11 12  1  0  0  0  0
 12 13  2  0  0  0  0
 12 14  1  0  0  0  0
 14 15  1  0  0  0  0
 14 17  1  0  0  0  0
 15 16  1  0  0  0  0
 17 18  4  0  0  0  0
 17 32  4  0  0  0  0
 18 19  4  0  0  0  0
 19 20  4  0  0  0  0
 20 21  1  0  0  0  0
 20 31  4  0  0  0  0
 21 22  1  0  0  0  0
 22 23  1  0  0  0  0
 22 27  1  0  0  0  0
 23 24  1  0  0  0  0
 24 25  1  0  0  0  0
 25 26  1  0  0  0  0
 25 28  1  0  0  0  0
 26 27  1  0  0  0  0
 28 29  1  0  0  0  0
 28 30  1  0  0  0  0
 31 32  4  0  0  0  0
M  END
>  <Name_Molregno>
549839

>  <HISTAMINE H1>
5.6

>  <HISTAMINE H3>
8.4

$$$$
553240
  Marvin  02231216192D 0   1.00000     0.00000     0

 32 35  0  0  0  0  0  0  0  0999 V2000
   -1.5077    2.1268    0.0000 Cl  0  0  0  0  0  0  0  0  0
   -1.5077    1.3018    0.0000 C   0  0  0  0  0  0  0  0  0
   -0.7933    0.8893    0.0000 C   0  0  0  0  0  0  0  0  0
   -0.7933    0.0643    0.0000 C   0  0  0  0  0  0  0  0  0
   -1.5077   -0.3482    0.0000 C   0  0  0  0  0  0  0  0  0
   -2.2222    0.0643    0.0000 C   0  0  0  0  0  0  0  0  0
   -2.2222    0.8893    0.0000 C   0  0  0  0  0  0  0  0  0
   -1.5077   -1.1732    0.0000 C   0  0  0  0  0  0  0  0  0
   -0.7933   -1.5857    0.0000 O   0  0  0  0  0  0  0  0  0
   -2.2222   -1.5857    0.0000 N   0  0  0  0  0  0  0  0  0
   -2.2222   -2.4107    0.0000 C   0  0  0  0  0  0  0  0  0
   -2.9367   -2.8232    0.0000 C   0  0  0  0  0  0  0  0  0
   -2.9367   -3.6482    0.0000 O   0  0  0  0  0  0  0  0  0
   -3.6512   -2.4107    0.0000 N   0  0  0  0  0  0  0  0  0
   -3.6512   -1.5857    0.0000 C   0  0  0  0  0  0  0  0  0
   -2.9367   -1.1732    0.0000 C   0  0  0  0  0  0  0  0  0
   -4.3656   -2.8232    0.0000 C   0  0  0  0  0  0  0  0  0
   -4.3656   -3.6482    0.0000 C   0  0  0  0  0  0  0  0  0
   -5.0801   -4.0607    0.0000 C   0  0  0  0  0  0  0  0  0
   -5.7946   -3.6482    0.0000 C   0  0  0  0  0  0  0  0  0
   -6.5090   -4.0607    0.0000 O   0  0  0  0  0  0  0  0  0
   -7.2235   -3.6482    0.0000 C   0  0  0  0  0  0  0  0  0
   -7.9380   -4.0607    0.0000 C   0  0  0  0  0  0  0  0  0
   -8.6524   -3.6482    0.0000 C   0  0  0  0  0  0  0  0  0
   -8.6524   -2.8232    0.0000 N   0  0  0  0  0  0  0  0  0
   -7.9380   -2.4107    0.0000 C   0  0  0  0  0  0  0  0  0
   -7.2235   -2.8232    0.0000 C   0  0  0  0  0  0  0  0  0
   -9.3669   -2.4107    0.0000 C   0  0  0  0  0  0  0  0  0
  -10.0814   -2.8232    0.0000 C   0  0  0  0  0  0  0  0  0
   -9.3669   -1.5857    0.0000 C   0  0  0  0  0  0  0  0  0
   -5.7946   -2.8232    0.0000 C   0  0  0  0  0  0  0  0  0
   -5.0801   -2.4107    0.0000 C   0  0  0  0  0  0  0  0  0
  1  2  1  0  0  0  0
  2  3  4  0  0  0  0
  2  7  4  0  0  0  0
  3  4  4  0  0  0  0
  4  5  4  0  0  0  0
  5  6  4  0  0  0  0
  5  8  1  0  0  0  0
  6  7  4  0  0  0  0
  8  9  2  0  0  0  0
  8 10  1  0  0  0  0
 10 11  1  0  0  0  0
 10 16  1  0  0  0  0
 11 12  1  0  0  0  0
 12 13  2  0  0  0  0
 12 14  1  0  0  0  0
 14 15  1  0  0  0  0
 14 17  1  0  0  0  0
 15 16  1  0  0  0  0
 17 18  4  0  0  0  0
 17 32  4  0  0  0  0
 18 19  4  0  0  0  0
 19 20  4  0  0  0  0
 20 21  1  0  0  0  0
 20 31  4  0  0  0  0
 21 22  1  0  0  0  0
 22 23  1  0  0  0  0
 22 27  1  0  0  0  0
 23 24  1  0  0  0  0
 24 25  1  0  0  0  0
 25 26  1  0  0  0  0
 25 28  1  0  0  0  0
 26 27  1  0  0  0  0
 28 29  1  0  0  0  0
 28 30  1  0  0  0  0
 31 32  4  0  0  0  0
M  END
>  <Name_Molregno>
553240

>  <HISTAMINE H1>
5.5

>  <HISTAMINE H3>
8.6

$$$$
553241
  Marvin  02231216192D 0   1.00000     0.00000     0

 31 34  0  0  0  0  0  0  0  0999 V2000
   -2.2432   -2.7214    0.0000 O   0  0  0  0  0  0  0  0  0
   -1.5287   -3.1339    0.0000 C   0  0  0  0  0  0  0  0  0
   -1.5287   -3.9589    0.0000 C   0  0  0  0  0  0  0  0  0
   -0.8142   -4.3714    0.0000 C   0  0  0  0  0  0  0  0  0
   -0.8142   -5.1964    0.0000 N   0  0  0  0  0  0  0  0  0
   -0.0998   -5.6089    0.0000 C   0  0  0  0  0  0  0  0  0
   -0.0998   -6.4339    0.0000 C   0  0  0  0  0  0  0  0  0
   -0.8142   -6.8464    0.0000 C   0  0  0  0  0  0  0  0  0
   -1.5287   -6.4339    0.0000 C   0  0  0  0  0  0  0  0  0
   -1.5287   -5.6089    0.0000 C   0  0  0  0  0  0  0  0  0
   -2.2432   -1.8964    0.0000 C   0  0  0  0  0  0  0  0  0
   -2.9576   -1.4839    0.0000 C   0  0  0  0  0  0  0  0  0
   -2.9576   -0.6589    0.0000 C   0  0  0  0  0  0  0  0  0
   -2.2432   -0.2464    0.0000 C   0  0  0  0  0  0  0  0  0
   -2.2432    0.5786    0.0000 N   0  0  0  0  0  0  0  0  0
   -2.9576    0.9911    0.0000 C   0  0  0  0  0  0  0  0  0
   -2.9576    1.8161    0.0000 C   0  0  0  0  0  0  0  0  0
   -2.2432    2.2286    0.0000 N   0  0  0  0  0  0  0  0  0
   -1.5287    1.8161    0.0000 C   0  0  0  0  0  0  0  0  0
   -1.5287    0.9911    0.0000 C   0  0  0  0  0  0  0  0  0
   -0.8142    0.5786    0.0000 O   0  0  0  0  0  0  0  0  0
   -2.2432    3.0536    0.0000 C   0  0  0  0  0  0  0  0  0
   -1.5287    3.4661    0.0000 O   0  0  0  0  0  0  0  0  0
   -2.9576    3.4661    0.0000 C   0  0  0  0  0  0  0  0  0
   -3.6721    3.0536    0.0000 C   0  0  0  0  0  0  0  0  0
   -4.3866    3.4661    0.0000 C   0  0  0  0  0  0  0  0  0
   -4.3866    4.2911    0.0000 C   0  0  0  0  0  0  0  0  0
   -3.6721    4.7036    0.0000 C   0  0  0  0  0  0  0  0  0
   -2.9576    4.2911    0.0000 C   0  0  0  0  0  0  0  0  0
   -1.5287   -0.6589    0.0000 C   0  0  0  0  0  0  0  0  0
   -1.5287   -1.4839    0.0000 C   0  0  0  0  0  0  0  0  0
  1  2  1  0  0  0  0
  1 11  1  0  0  0  0
  2  3  1  0  0  0  0
  3  4  1  0  0  0  0
  4  5  1  0  0  0  0
  5  6  1  0  0  0  0
  5 10  1  0  0  0  0
  6  7  1  0  0  0  0
  7  8  1  0  0  0  0
  8  9  1  0  0  0  0
  9 10  1  0  0  0  0
 11 12  4  0  0  0  0
 11 31  4  0  0  0  0
 12 13  4  0  0  0  0
 13 14  4  0  0  0  0
 14 15  1  0  0  0  0
 14 30  4  0  0  0  0
 15 16  1  0  0  0  0
 15 20  1  0  0  0  0
 16 17  1  0  0  0  0
 17 18  1  0  0  0  0
 18 19  1  0  0  0  0
 18 22  1  0  0  0  0
 19 20  1  0  0  0  0
 20 21  2  0  0  0  0
 22 23  2  0  0  0  0
 22 24  1  0  0  0  0
 24 25  4  0  0  0  0
 24 29  4  0  0  0  0
 25 26  4  0  0  0  0
 26 27  4  0  0  0  0
 27 28  4  0  0  0  0
 28 29  4  0  0  0  0
 30 31  4  0  0  0  0
M  END
>  <Name_Molregno>
553241

>  <Alpha-1A>
5.6

>  <Alpha-1B>
5.6

>  <HISTAMINE H1>
5.9

>  <HISTAMINE H3>
8.4

$$$$
553351
  Marvin  02231216192D 0   1.00000     0.00000     0

 32 36  0  0  0  0  0  0  0  0999 V2000
   -4.9100   -1.2056    0.0000 O   0  0  0  0  0  0  0  0  0
   -4.9100   -2.0306    0.0000 C   0  0  0  0  0  0  0  0  0
   -4.1955   -2.4431    0.0000 C   0  0  0  0  0  0  0  0  0
   -4.1955   -3.2681    0.0000 C   0  0  0  0  0  0  0  0  0
   -4.9100   -3.6806    0.0000 N   0  0  0  0  0  0  0  0  0
   -5.6244   -3.2681    0.0000 C   0  0  0  0  0  0  0  0  0
   -5.6244   -2.4431    0.0000 C   0  0  0  0  0  0  0  0  0
   -4.9100   -4.5056    0.0000 C   0  0  0  0  0  0  0  0  0
   -4.3266   -5.0890    0.0000 C   0  0  0  0  0  0  0  0  0
   -4.9100   -5.6723    0.0000 C   0  0  0  0  0  0  0  0  0
   -5.4933   -5.0890    0.0000 C   0  0  0  0  0  0  0  0  0
   -4.1955   -0.7931    0.0000 C   0  0  0  0  0  0  0  0  0
   -4.1955    0.0319    0.0000 C   0  0  0  0  0  0  0  0  0
   -3.4810    0.4444    0.0000 C   0  0  0  0  0  0  0  0  0
   -2.7665    0.0319    0.0000 C   0  0  0  0  0  0  0  0  0
   -2.0521    0.4444    0.0000 N   0  0  0  0  0  0  0  0  0
   -2.0521    1.2694    0.0000 C   0  0  0  0  0  0  0  0  0
   -1.3376    1.6819    0.0000 C   0  0  0  0  0  0  0  0  0
   -0.6231    1.2694    0.0000 N   0  0  0  0  0  0  0  0  0
   -0.6231    0.4444    0.0000 C   0  0  0  0  0  0  0  0  0
   -1.3376    0.0319    0.0000 C   0  0  0  0  0  0  0  0  0
   -1.3376   -0.7931    0.0000 O   0  0  0  0  0  0  0  0  0
    0.0913    1.6819    0.0000 C   0  0  0  0  0  0  0  0  0
    0.0913    2.5069    0.0000 O   0  0  0  0  0  0  0  0  0
    0.8058    1.2694    0.0000 C   0  0  0  0  0  0  0  0  0
    1.5203    1.6819    0.0000 C   0  0  0  0  0  0  0  0  0
    2.2348    1.2694    0.0000 C   0  0  0  0  0  0  0  0  0
    2.2348    0.4444    0.0000 C   0  0  0  0  0  0  0  0  0
    1.5203    0.0319    0.0000 C   0  0  0  0  0  0  0  0  0
    0.8058    0.4444    0.0000 C   0  0  0  0  0  0  0  0  0
   -2.7665   -0.7931    0.0000 C   0  0  0  0  0  0  0  0  0
   -3.4810   -1.2056    0.0000 C   0  0  0  0  0  0  0  0  0
  1  2  1  0  0  0  0
  1 12  1  0  0  0  0
  2  3  1  0  0  0  0
  2  7  1  0  0  0  0
  3  4  1  0  0  0  0
  4  5  1  0  0  0  0
  5  6  1  0  0  0  0
  5  8  1  0  0  0  0
  6  7  1  0  0  0  0
  8  9  1  0  0  0  0
  8 11  1  0  0  0  0
  9 10  1  0  0  0  0
 10 11  1  0  0  0  0
 12 13  4  0  0  0  0
 12 32  4  0  0  0  0
 13 14  4  0  0  0  0
 14 15  4  0  0  0  0
 15 16  1  0  0  0  0
 15 31  4  0  0  0  0
 16 17  1  0  0  0  0
 16 21  1  0  0  0  0
 17 18  1  0  0  0  0
 18 19  1  0  0  0  0
 19 20  1  0  0  0  0
 19 23  1  0  0  0  0
 20 21  1  0  0  0  0
 21 22  2  0  0  0  0
 23 24  2  0  0  0  0
 23 25  1  0  0  0  0
 25 26  4  0  0  0  0
 25 30  4  0  0  0  0
 26 27  4  0  0  0  0
 27 28  4  0  0  0  0
 28 29  4  0  0  0  0
 29 30  4  0  0  0  0
 31 32  4  0  0  0  0
M  END
>  <Name_Molregno>
553351

>  <Alpha-1A>
5.4

>  <Alpha-1B>
5.6

>  <HISTAMINE H1>
5.6

>  <HISTAMINE H3>
8.5

$$$$
553352
  Marvin  02231216192D 0   1.00000     0.00000     0

 33 37  0  0  0  0  0  0  0  0999 V2000
   -8.3495   -3.2048    0.0000 Cl  0  0  0  0  0  0  0  0  0
   -7.6350   -2.7923    0.0000 C   0  0  0  0  0  0  0  0  0
   -7.6350   -1.9673    0.0000 C   0  0  0  0  0  0  0  0  0
   -6.9205   -1.5548    0.0000 C   0  0  0  0  0  0  0  0  0
   -6.2060   -1.9673    0.0000 C   0  0  0  0  0  0  0  0  0
   -6.2060   -2.7923    0.0000 C   0  0  0  0  0  0  0  0  0
   -6.9205   -3.2048    0.0000 C   0  0  0  0  0  0  0  0  0
   -5.4916   -1.5548    0.0000 C   0  0  0  0  0  0  0  0  0
   -5.4916   -0.7298    0.0000 O   0  0  0  0  0  0  0  0  0
   -4.7771   -1.9673    0.0000 N   0  0  0  0  0  0  0  0  0
   -4.0626   -1.5548    0.0000 C   0  0  0  0  0  0  0  0  0
   -3.3482   -1.9673    0.0000 C   0  0  0  0  0  0  0  0  0
   -2.6337   -1.5548    0.0000 O   0  0  0  0  0  0  0  0  0
   -3.3482   -2.7923    0.0000 N   0  0  0  0  0  0  0  0  0
   -4.0626   -3.2048    0.0000 C   0  0  0  0  0  0  0  0  0
   -4.7771   -2.7923    0.0000 C   0  0  0  0  0  0  0  0  0
   -2.6337   -3.2048    0.0000 C   0  0  0  0  0  0  0  0  0
   -1.9192   -2.7923    0.0000 C   0  0  0  0  0  0  0  0  0
   -1.2047   -3.2048    0.0000 C   0  0  0  0  0  0  0  0  0
   -1.2047   -4.0298    0.0000 C   0  0  0  0  0  0  0  0  0
   -0.4903   -4.4423    0.0000 O   0  0  0  0  0  0  0  0  0
   -0.4903   -5.2673    0.0000 C   0  0  0  0  0  0  0  0  0
    0.2242   -5.6798    0.0000 C   0  0  0  0  0  0  0  0  0
    0.2242   -6.5048    0.0000 C   0  0  0  0  0  0  0  0  0
   -0.4903   -6.9173    0.0000 N   0  0  0  0  0  0  0  0  0
   -1.2047   -6.5048    0.0000 C   0  0  0  0  0  0  0  0  0
   -1.2047   -5.6798    0.0000 C   0  0  0  0  0  0  0  0  0
   -0.4903   -7.7423    0.0000 C   0  0  0  0  0  0  0  0  0
    0.0931   -8.3256    0.0000 C   0  0  0  0  0  0  0  0  0
   -0.4903   -8.9090    0.0000 C   0  0  0  0  0  0  0  0  0
   -1.0736   -8.3256    0.0000 C   0  0  0  0  0  0  0  0  0
   -1.9192   -4.4423    0.0000 C   0  0  0  0  0  0  0  0  0
   -2.6337   -4.0298    0.0000 C   0  0  0  0  0  0  0  0  0
  1  2  1  0  0  0  0
  2  3  4  0  0  0  0
  2  7  4  0  0  0  0
  3  4  4  0  0  0  0
  4  5  4  0  0  0  0
  5  6  4  0  0  0  0
  5  8  1  0  0  0  0
  6  7  4  0  0  0  0
  8  9  2  0  0  0  0
  8 10  1  0  0  0  0
 10 11  1  0  0  0  0
 10 16  1  0  0  0  0
 11 12  1  0  0  0  0
 12 13  2  0  0  0  0
 12 14  1  0  0  0  0
 14 15  1  0  0  0  0
 14 17  1  0  0  0  0
 15 16  1  0  0  0  0
 17 18  4  0  0  0  0
 17 33  4  0  0  0  0
 18 19  4  0  0  0  0
 19 20  4  0  0  0  0
 20 21  1  0  0  0  0
 20 32  4  0  0  0  0
 21 22  1  0  0  0  0
 22 23  1  0  0  0  0
 22 27  1  0  0  0  0
 23 24  1  0  0  0  0
 24 25  1  0  0  0  0
 25 26  1  0  0  0  0
 25 28  1  0  0  0  0
 26 27  1  0  0  0  0
 28 29  1  0  0  0  0
 28 31  1  0  0  0  0
 29 30  1  0  0  0  0
 30 31  1  0  0  0  0
 32 33  4  0  0  0  0
M  END
>  <Name_Molregno>
553352

>  <Alpha-1A>
5.4

>  <Alpha-1B>
5.6

>  <HISTAMINE H1>
5.7

>  <HISTAMINE H3>
9.2

$$$$
554310
  Marvin  02231216192D 0   1.00000     0.00000     0

 30 32  0  0  0  0  0  0  0  0999 V2000
    1.6901    0.7276    0.0000 Br  0  0  0  0  0  0  0  0  0
    1.6901   -0.0974    0.0000 C   0  0  0  0  0  0  0  0  0
    2.4046   -0.5099    0.0000 C   0  0  0  0  0  0  0  0  0
    2.4046   -1.3349    0.0000 C   0  0  0  0  0  0  0  0  0
    1.6901   -1.7474    0.0000 C   0  0  0  0  0  0  0  0  0
    0.9756   -1.3349    0.0000 C   0  0  0  0  0  0  0  0  0
    0.9756   -0.5099    0.0000 C   0  0  0  0  0  0  0  0  0
    0.2611   -0.0974    0.0000 O   0  0  0  0  0  0  0  0  0
   -0.4533   -0.5099    0.0000 C   0  0  0  0  0  0  0  0  0
   -1.1678   -0.0974    0.0000 C   0  0  0  0  0  0  0  0  0
   -1.8823   -0.5099    0.0000 N   0  0  0  0  0  0  0  0  0
   -1.9685   -1.3304    0.0000 C   0  0  0  0  0  0  0  0  0
   -2.7755   -1.5020    0.0000 C   0  0  0  0  0  0  0  0  0
   -3.1880   -0.7875    0.0000 C   0  0  0  0  0  0  0  0  0
   -2.6359   -0.1744    0.0000 C   0  0  0  0  0  0  0  0  0
    3.1190   -1.7474    0.0000 C   0  0  0  0  0  0  0  0  0
    3.8335   -1.3349    0.0000 C   0  0  0  0  0  0  0  0  0
    4.5480   -1.7474    0.0000 N   0  0  0  0  0  0  0  0  0
    5.2624   -1.3349    0.0000 C   0  0  0  0  0  0  0  0  0
    5.2624   -0.5099    0.0000 O   0  0  0  0  0  0  0  0  0
    5.9769   -1.7474    0.0000 C   0  0  0  0  0  0  0  0  0
    6.6914   -1.3349    0.0000 N   0  0  0  0  0  0  0  0  0
    7.4059   -1.7474    0.0000 C   0  0  0  0  0  0  0  0  0
    7.4059   -2.5724    0.0000 C   0  0  0  0  0  0  0  0  0
    6.6914   -2.9849    0.0000 C   0  0  0  0  0  0  0  0  0
    5.9769   -2.5724    0.0000 C   0  0  0  0  0  0  0  0  0
    8.1203   -1.3349    0.0000 C   0  0  0  0  0  0  0  0  0
    8.8348   -0.9224    0.0000 F   0  0  0  0  0  0  0  0  0
    8.5328   -2.0494    0.0000 F   0  0  0  0  0  0  0  0  0
    7.7078   -0.6205    0.0000 F   0  0  0  0  0  0  0  0  0
  1  2  1  0  0  0  0
  2  3  4  0  0  0  0
  2  7  4  0  0  0  0
  3  4  4  0  0  0  0
  4  5  4  0  0  0  0
  4 16  1  0  0  0  0
  5  6  4  0  0  0  0
  6  7  4  0  0  0  0
  7  8  1  0  0  0  0
  8  9  1  0  0  0  0
  9 10  1  0  0  0  0
 10 11  1  0  0  0  0
 11 12  1  0  0  0  0
 11 15  1  0  0  0  0
 12 13  1  0  0  0  0
 13 14  1  0  0  0  0
 14 15  1  0  0  0  0
 16 17  1  0  0  0  0
 17 18  1  0  0  0  0
 18 19  1  0  0  0  0
 19 20  2  0  0  0  0
 19 21  1  0  0  0  0
 21 22  4  0  0  0  0
 21 26  4  0  0  0  0
 22 23  4  0  0  0  0
 23 24  4  0  0  0  0
 23 27  1  0  0  0  0
 24 25  4  0  0  0  0
 25 26  4  0  0  0  0
 27 28  1  0  0  0  0
 27 29  1  0  0  0  0
 27 30  1  0  0  0  0
M  END
>  <Name_Molregno>
554310

>  <HISTAMINE H3>
6.57

$$$$
554318
  Marvin  02231216192D 0   1.00000     0.00000     0

 27 29  0  0  0  0  0  0  0  0999 V2000
   -2.4649    0.7107    0.0000 Br  0  0  0  0  0  0  0  0  0
   -2.4649   -0.1143    0.0000 C   0  0  0  0  0  0  0  0  0
   -1.7505   -0.5268    0.0000 C   0  0  0  0  0  0  0  0  0
   -1.7505   -1.3518    0.0000 C   0  0  0  0  0  0  0  0  0
   -2.4649   -1.7643    0.0000 C   0  0  0  0  0  0  0  0  0
   -3.1794   -1.3518    0.0000 C   0  0  0  0  0  0  0  0  0
   -3.1794   -0.5268    0.0000 C   0  0  0  0  0  0  0  0  0
   -3.8939   -0.1143    0.0000 O   0  0  0  0  0  0  0  0  0
   -4.6084   -0.5268    0.0000 C   0  0  0  0  0  0  0  0  0
   -5.3228   -0.1143    0.0000 C   0  0  0  0  0  0  0  0  0
   -6.0373   -0.5268    0.0000 N   0  0  0  0  0  0  0  0  0
   -6.1235   -1.3473    0.0000 C   0  0  0  0  0  0  0  0  0
   -6.9305   -1.5188    0.0000 C   0  0  0  0  0  0  0  0  0
   -7.3430   -0.8043    0.0000 C   0  0  0  0  0  0  0  0  0
   -6.7910   -0.1912    0.0000 C   0  0  0  0  0  0  0  0  0
   -1.0360   -1.7643    0.0000 C   0  0  0  0  0  0  0  0  0
   -0.3215   -1.3518    0.0000 C   0  0  0  0  0  0  0  0  0
    0.3929   -1.7643    0.0000 N   0  0  0  0  0  0  0  0  0
    1.1074   -1.3518    0.0000 C   0  0  0  0  0  0  0  0  0
    1.1074   -0.5268    0.0000 O   0  0  0  0  0  0  0  0  0
    1.8219   -1.7643    0.0000 C   0  0  0  0  0  0  0  0  0
    2.5364   -1.3518    0.0000 C   0  0  0  0  0  0  0  0  0
    3.2508   -1.7643    0.0000 C   0  0  0  0  0  0  0  0  0
    3.9653   -1.3518    0.0000 Cl  0  0  0  0  0  0  0  0  0
    3.2508   -2.5893    0.0000 C   0  0  0  0  0  0  0  0  0
    2.5364   -3.0018    0.0000 C   0  0  0  0  0  0  0  0  0
    1.8219   -2.5893    0.0000 C   0  0  0  0  0  0  0  0  0
  1  2  1  0  0  0  0
  2  3  4  0  0  0  0
  2  7  4  0  0  0  0
  3  4  4  0  0  0  0
  4  5  4  0  0  0  0
  4 16  1  0  0  0  0
  5  6  4  0  0  0  0
  6  7  4  0  0  0  0
  7  8  1  0  0  0  0
  8  9  1  0  0  0  0
  9 10  1  0  0  0  0
 10 11  1  0  0  0  0
 11 12  1  0  0  0  0
 11 15  1  0  0  0  0
 12 13  1  0  0  0  0
 13 14  1  0  0  0  0
 14 15  1  0  0  0  0
 16 17  1  0  0  0  0
 17 18  1  0  0  0  0
 18 19  1  0  0  0  0
 19 20  2  0  0  0  0
 19 21  1  0  0  0  0
 21 22  4  0  0  0  0
 21 27  4  0  0  0  0
 22 23  4  0  0  0  0
 23 24  1  0  0  0  0
 23 25  4  0  0  0  0
 25 26  4  0  0  0  0
 26 27  4  0  0  0  0
M  END
>  <Name_Molregno>
554318

>  <HISTAMINE H3>
6.6

$$$$
554412
  Marvin  02231216192D 0   1.00000     0.00000     0

 19 22  0  0  1  0  0  0  0  0999 V2000
    0.1485   -0.2380    0.0000 O   0  0  0  0  0  0  0  0  0
    0.8211   -0.7156    0.0000 C   0  0  0  0  0  0  0  0  0
   -0.6016   -0.5816    0.0000 C   0  0  0  0  0  0  0  0  0
   -1.2742   -0.1039    0.0000 C   0  0  0  0  0  0  0  0  0
   -2.0242   -0.4476    0.0000 C   0  0  0  0  0  0  0  0  0
   -2.6968    0.0301    0.0000 C   0  0  0  0  0  0  0  0  0
   -3.4468   -0.3136    0.0000 C   0  0  0  0  0  0  0  0  0
   -3.5242   -1.1349    0.0000 C   0  0  0  0  0  0  0  0  0
   -2.8516   -1.6126    0.0000 C   0  0  0  0  0  0  0  0  0
   -3.0980   -2.4000    0.0000 C   0  0  0  0  0  0  0  0  0
   -3.9230   -2.4089    0.0000 C   0  0  0  0  0  0  0  0  0
   -4.1864   -1.6270    0.0000 C   0  0  0  0  0  0  0  0  0
   -4.8590   -1.1493    0.0000 C   0  0  0  0  0  0  0  0  0
   -4.6126   -0.3620    0.0000 N   0  0  0  0  0  0  0  0  0
   -3.7876   -0.3531    0.0000 C   0  0  0  0  0  0  0  0  0
   -5.1047    0.3001    0.0000 C   0  0  0  0  0  0  0  0  0
   -2.1016   -1.2690    0.0000 C   0  0  0  0  0  0  0  0  0
   -1.4289   -1.7467    0.0000 C   0  0  0  0  0  0  0  0  0
   -0.6789   -1.4030    0.0000 C   0  0  0  0  0  0  0  0  0
  1  2  1  0  0  0  0
  1  3  1  0  0  0  0
  3  4  4  0  0  0  0
  3 19  4  0  0  0  0
  4  5  4  0  0  0  0
  5  6  1  0  0  0  0
  5 17  4  0  0  0  0
  6  7  1  0  0  0  0
  7  8  1  0  0  0  0
  8  9  1  0  0  0  0
  8 12  1  0  0  0  0
  8 15  1  0  0  0  0
  9 10  1  0  0  0  0
  9 17  1  0  0  0  0
 10 11  1  0  0  0  0
 11 12  1  0  0  0  0
 12 13  1  0  0  0  0
 13 14  1  0  0  0  0
 14 15  1  0  0  0  0
 14 16  1  0  0  0  0
 17 18  4  0  0  0  0
 18 19  4  0  0  0  0
M  END
>  <Name_Molregno>
554412

>  <HISTAMINE H3>
6

$$$$
554416
  Marvin  02231216192D 0   1.00000     0.00000     0

 24 25  0  0  0  0  0  0  0  0999 V2000
    2.8053   -2.8727    0.0000 Br  0  0  0  0  0  0  0  0  0
    2.8053   -2.0477    0.0000 C   0  0  0  0  0  0  0  0  0
    2.0908   -1.6352    0.0000 C   0  0  0  0  0  0  0  0  0
    2.0908   -0.8102    0.0000 C   0  0  0  0  0  0  0  0  0
    2.8053   -0.3977    0.0000 C   0  0  0  0  0  0  0  0  0
    3.5197   -0.8102    0.0000 C   0  0  0  0  0  0  0  0  0
    3.5197   -1.6352    0.0000 C   0  0  0  0  0  0  0  0  0
    4.2342   -2.0477    0.0000 O   0  0  0  0  0  0  0  0  0
    4.9487   -1.6352    0.0000 C   0  0  0  0  0  0  0  0  0
    5.6632   -2.0477    0.0000 C   0  0  0  0  0  0  0  0  0
    6.3776   -1.6352    0.0000 C   0  0  0  0  0  0  0  0  0
    7.0921   -2.0477    0.0000 N   0  0  0  0  0  0  0  0  0
    7.8066   -1.6352    0.0000 C   0  0  0  0  0  0  0  0  0
    7.0921   -2.8727    0.0000 C   0  0  0  0  0  0  0  0  0
    1.3763   -0.3977    0.0000 C   0  0  0  0  0  0  0  0  0
    0.6619   -0.8102    0.0000 C   0  0  0  0  0  0  0  0  0
   -0.0526   -0.3977    0.0000 N   0  0  0  0  0  0  0  0  0
   -0.7671   -0.8102    0.0000 C   0  0  0  0  0  0  0  0  0
   -0.7671   -1.6352    0.0000 O   0  0  0  0  0  0  0  0  0
   -1.4816   -0.3977    0.0000 C   0  0  0  0  0  0  0  0  0
   -2.2352   -0.7333    0.0000 N   0  0  0  0  0  0  0  0  0
   -2.7873   -0.1202    0.0000 C   0  0  0  0  0  0  0  0  0
   -2.3748    0.5943    0.0000 C   0  0  0  0  0  0  0  0  0
   -1.5678    0.4228    0.0000 C   0  0  0  0  0  0  0  0  0
  1  2  1  0  0  0  0
  2  3  4  0  0  0  0
  2  7  4  0  0  0  0
  3  4  4  0  0  0  0
  4  5  4  0  0  0  0
  4 15  1  0  0  0  0
  5  6  4  0  0  0  0
  6  7  4  0  0  0  0
  7  8  1  0  0  0  0
  8  9  1  0  0  0  0
  9 10  1  0  0  0  0
 10 11  1  0  0  0  0
 11 12  1  0  0  0  0
 12 13  1  0  0  0  0
 12 14  1  0  0  0  0
 15 16  1  0  0  0  0
 16 17  1  0  0  0  0
 17 18  1  0  0  0  0
 18 19  2  0  0  0  0
 18 20  1  0  0  0  0
 20 21  4  0  0  0  0
 20 24  4  0  0  0  0
 21 22  4  0  0  0  0
 22 23  4  0  0  0  0
 23 24  4  0  0  0  0
M  STY  1   1 DAT
M  SAL   1  1  21
M  SDT   1 MRV_IMPLICIT_H                                        
M  SDD   1     0.0000    0.0000    DR    ALL  0       0  
M  SED   1 IMPL_H1
M  END
>  <Name_Molregno>
554416

>  <HISTAMINE H3>
5.87

$$$$
554417
  Marvin  02231216192D 0   1.00000     0.00000     0

 23 24  0  0  0  0  0  0  0  0999 V2000
   -2.4990   -0.3159    0.0000 Br  0  0  0  0  0  0  0  0  0
   -2.4990   -1.1409    0.0000 C   0  0  0  0  0  0  0  0  0
   -1.7845   -1.5534    0.0000 C   0  0  0  0  0  0  0  0  0
   -1.7845   -2.3784    0.0000 C   0  0  0  0  0  0  0  0  0
   -2.4990   -2.7909    0.0000 C   0  0  0  0  0  0  0  0  0
   -3.2135   -2.3784    0.0000 C   0  0  0  0  0  0  0  0  0
   -3.2135   -1.5534    0.0000 C   0  0  0  0  0  0  0  0  0
   -3.9280   -1.1409    0.0000 O   0  0  0  0  0  0  0  0  0
   -4.6424   -1.5534    0.0000 C   0  0  0  0  0  0  0  0  0
   -5.3569   -1.1409    0.0000 C   0  0  0  0  0  0  0  0  0
   -6.0714   -1.5534    0.0000 N   0  0  0  0  0  0  0  0  0
   -6.7858   -1.1409    0.0000 C   0  0  0  0  0  0  0  0  0
   -6.0714   -2.3784    0.0000 C   0  0  0  0  0  0  0  0  0
   -1.0701   -2.7909    0.0000 C   0  0  0  0  0  0  0  0  0
   -0.3556   -2.3784    0.0000 C   0  0  0  0  0  0  0  0  0
    0.3589   -2.7909    0.0000 N   0  0  0  0  0  0  0  0  0
    1.0733   -2.3784    0.0000 C   0  0  0  0  0  0  0  0  0
    1.0733   -1.5534    0.0000 O   0  0  0  0  0  0  0  0  0
    1.7878   -2.7909    0.0000 C   0  0  0  0  0  0  0  0  0
    2.5415   -2.4554    0.0000 N   0  0  0  0  0  0  0  0  0
    3.0935   -3.0685    0.0000 C   0  0  0  0  0  0  0  0  0
    2.6810   -3.7829    0.0000 C   0  0  0  0  0  0  0  0  0
    1.8741   -3.6114    0.0000 C   0  0  0  0  0  0  0  0  0
  1  2  1  0  0  0  0
  2  3  4  0  0  0  0
  2  7  4  0  0  0  0
  3  4  4  0  0  0  0
  4  5  4  0  0  0  0
  4 14  1  0  0  0  0
  5  6  4  0  0  0  0
  6  7  4  0  0  0  0
  7  8  1  0  0  0  0
  8  9  1  0  0  0  0
  9 10  1  0  0  0  0
 10 11  1  0  0  0  0
 11 12  1  0  0  0  0
 11 13  1  0  0  0  0
 14 15  1  0  0  0  0
 15 16  1  0  0  0  0
 16 17  1  0  0  0  0
 17 18  2  0  0  0  0
 17 19  1  0  0  0  0
 19 20  4  0  0  0  0
 19 23  4  0  0  0  0
 20 21  4  0  0  0  0
 21 22  4  0  0  0  0
 22 23  4  0  0  0  0
M  STY  1   1 DAT
M  SAL   1  1  20
M  SDT   1 MRV_IMPLICIT_H                                        
M  SDD   1     0.0000    0.0000    DR    ALL  0       0  
M  SED   1 IMPL_H1
M  END
>  <Name_Molregno>
554417

>  <HISTAMINE H3>
5.81

$$$$
554418
  Marvin  02231216192D 0   1.00000     0.00000     0

 26 28  0  0  0  0  0  0  0  0999 V2000
   -1.2900    0.3858    0.0000 Br  0  0  0  0  0  0  0  0  0
   -1.2900   -0.4392    0.0000 C   0  0  0  0  0  0  0  0  0
   -0.5755   -0.8517    0.0000 C   0  0  0  0  0  0  0  0  0
   -0.5755   -1.6767    0.0000 C   0  0  0  0  0  0  0  0  0
   -1.2900   -2.0892    0.0000 C   0  0  0  0  0  0  0  0  0
   -2.0044   -1.6767    0.0000 C   0  0  0  0  0  0  0  0  0
   -2.0044   -0.8517    0.0000 C   0  0  0  0  0  0  0  0  0
   -2.7189   -0.4392    0.0000 O   0  0  0  0  0  0  0  0  0
   -3.4334   -0.8517    0.0000 C   0  0  0  0  0  0  0  0  0
   -4.1478   -0.4392    0.0000 C   0  0  0  0  0  0  0  0  0
   -4.8623   -0.8517    0.0000 N   0  0  0  0  0  0  0  0  0
   -4.8623   -1.6767    0.0000 C   0  0  0  0  0  0  0  0  0
   -5.5768   -2.0892    0.0000 C   0  0  0  0  0  0  0  0  0
   -6.2913   -1.6767    0.0000 O   0  0  0  0  0  0  0  0  0
   -6.2913   -0.8517    0.0000 C   0  0  0  0  0  0  0  0  0
   -5.5768   -0.4392    0.0000 C   0  0  0  0  0  0  0  0  0
    0.1390   -2.0892    0.0000 C   0  0  0  0  0  0  0  0  0
    0.8535   -1.6767    0.0000 C   0  0  0  0  0  0  0  0  0
    1.5679   -2.0892    0.0000 N   0  0  0  0  0  0  0  0  0
    2.2824   -1.6767    0.0000 C   0  0  0  0  0  0  0  0  0
    2.2824   -0.8517    0.0000 O   0  0  0  0  0  0  0  0  0
    2.9969   -2.0892    0.0000 C   0  0  0  0  0  0  0  0  0
    3.7505   -1.7536    0.0000 N   0  0  0  0  0  0  0  0  0
    4.3026   -2.3667    0.0000 C   0  0  0  0  0  0  0  0  0
    3.8901   -3.0812    0.0000 C   0  0  0  0  0  0  0  0  0
    3.0831   -2.9097    0.0000 C   0  0  0  0  0  0  0  0  0
  1  2  1  0  0  0  0
  2  3  4  0  0  0  0
  2  7  4  0  0  0  0
  3  4  4  0  0  0  0
  4  5  4  0  0  0  0
  4 17  1  0  0  0  0
  5  6  4  0  0  0  0
  6  7  4  0  0  0  0
  7  8  1  0  0  0  0
  8  9  1  0  0  0  0
  9 10  1  0  0  0  0
 10 11  1  0  0  0  0
 11 12  1  0  0  0  0
 11 16  1  0  0  0  0
 12 13  1  0  0  0  0
 13 14  1  0  0  0  0
 14 15  1  0  0  0  0
 15 16  1  0  0  0  0
 17 18  1  0  0  0  0
 18 19  1  0  0  0  0
 19 20  1  0  0  0  0
 20 21  2  0  0  0  0
 20 22  1  0  0  0  0
 22 23  4  0  0  0  0
 22 26  4  0  0  0  0
 23 24  4  0  0  0  0
 24 25  4  0  0  0  0
 25 26  4  0  0  0  0
M  STY  1   1 DAT
M  SAL   1  1  23
M  SDT   1 MRV_IMPLICIT_H                                        
M  SDD   1     0.0000    0.0000    DR    ALL  0       0  
M  SED   1 IMPL_H1
M  END
>  <Name_Molregno>
554418

>  <HISTAMINE H3>
4.58

$$$$
554427
  Marvin  02231216192D 0   1.00000     0.00000     0

 25 26  0  0  0  0  0  0  0  0999 V2000
    3.1767   -2.8234    0.0000 Br  0  0  0  0  0  0  0  0  0
    3.1767   -1.9984    0.0000 C   0  0  0  0  0  0  0  0  0
    2.4623   -1.5859    0.0000 C   0  0  0  0  0  0  0  0  0
    2.4623   -0.7609    0.0000 C   0  0  0  0  0  0  0  0  0
    3.1767   -0.3484    0.0000 C   0  0  0  0  0  0  0  0  0
    3.8912   -0.7609    0.0000 C   0  0  0  0  0  0  0  0  0
    3.8912   -1.5859    0.0000 C   0  0  0  0  0  0  0  0  0
    4.6057   -1.9984    0.0000 O   0  0  0  0  0  0  0  0  0
    5.3201   -1.5859    0.0000 C   0  0  0  0  0  0  0  0  0
    6.0346   -1.9984    0.0000 C   0  0  0  0  0  0  0  0  0
    6.7491   -1.5859    0.0000 C   0  0  0  0  0  0  0  0  0
    7.4636   -1.9984    0.0000 N   0  0  0  0  0  0  0  0  0
    8.1780   -1.5859    0.0000 C   0  0  0  0  0  0  0  0  0
    7.4636   -2.8234    0.0000 C   0  0  0  0  0  0  0  0  0
    1.7478   -0.3484    0.0000 C   0  0  0  0  0  0  0  0  0
    1.0333   -0.7609    0.0000 C   0  0  0  0  0  0  0  0  0
    0.3188   -0.3484    0.0000 N   0  0  0  0  0  0  0  0  0
   -0.3956   -0.7609    0.0000 C   0  0  0  0  0  0  0  0  0
   -0.3956   -1.5859    0.0000 O   0  0  0  0  0  0  0  0  0
   -1.1101   -0.3484    0.0000 C   0  0  0  0  0  0  0  0  0
   -1.8638   -0.6840    0.0000 N   0  0  0  0  0  0  0  0  0
   -2.4158   -0.0709    0.0000 C   0  0  0  0  0  0  0  0  0
   -2.0033    0.6436    0.0000 C   0  0  0  0  0  0  0  0  0
   -1.1963    0.4720    0.0000 C   0  0  0  0  0  0  0  0  0
   -2.0353   -1.4910    0.0000 C   0  0  0  0  0  0  0  0  0
  1  2  1  0  0  0  0
  2  3  4  0  0  0  0
  2  7  4  0  0  0  0
  3  4  4  0  0  0  0
  4  5  4  0  0  0  0
  4 15  1  0  0  0  0
  5  6  4  0  0  0  0
  6  7  4  0  0  0  0
  7  8  1  0  0  0  0
  8  9  1  0  0  0  0
  9 10  1  0  0  0  0
 10 11  1  0  0  0  0
 11 12  1  0  0  0  0
 12 13  1  0  0  0  0
 12 14  1  0  0  0  0
 15 16  1  0  0  0  0
 16 17  1  0  0  0  0
 17 18  1  0  0  0  0
 18 19  2  0  0  0  0
 18 20  1  0  0  0  0
 20 21  4  0  0  0  0
 20 24  4  0  0  0  0
 21 22  4  0  0  0  0
 21 25  1  0  0  0  0
 22 23  4  0  0  0  0
 23 24  4  0  0  0  0
M  END
>  <Name_Molregno>
554427

>  <HISTAMINE H3>
5.75

$$$$
554437
  Marvin  02231216192D 0   1.00000     0.00000     0

 27 29  0  0  1  0  0  0  0  0999 V2000
    1.5352    0.1757    0.0000 Br  0  0  0  0  0  0  0  0  0
    1.5352   -0.6493    0.0000 C   0  0  0  0  0  0  0  0  0
    2.2497   -1.0618    0.0000 C   0  0  0  0  0  0  0  0  0
    2.2497   -1.8868    0.0000 C   0  0  0  0  0  0  0  0  0
    1.5352   -2.2993    0.0000 C   0  0  0  0  0  0  0  0  0
    0.8208   -1.8868    0.0000 C   0  0  0  0  0  0  0  0  0
    0.8208   -1.0618    0.0000 C   0  0  0  0  0  0  0  0  0
    0.1063   -0.6493    0.0000 O   0  0  0  0  0  0  0  0  0
   -0.6082   -1.0618    0.0000 C   0  0  0  0  0  0  0  0  0
   -1.3227   -0.6493    0.0000 C   0  0  0  0  0  0  0  0  0
   -2.0371   -1.0618    0.0000 C   0  0  0  0  0  0  0  0  0
   -2.7516   -0.6493    0.0000 C   0  0  0  0  0  0  0  0  0
   -2.7516    0.1757    0.0000 C   0  0  0  0  0  0  0  0  0
   -2.0371    0.5882    0.0000 N   0  0  0  0  0  0  0  0  0
   -1.3227    0.1757    0.0000 C   0  0  0  0  0  0  0  0  0
   -2.0371    1.4132    0.0000 C   0  0  0  0  0  0  0  0  0
    2.9642   -2.2993    0.0000 C   0  0  0  0  0  0  0  0  0
    3.6786   -1.8868    0.0000 C   0  0  0  0  0  0  0  0  0
    4.3931   -2.2993    0.0000 N   0  0  0  0  0  0  0  0  0
    5.1076   -1.8868    0.0000 C   0  0  0  0  0  0  0  0  0
    5.1076   -1.0618    0.0000 O   0  0  0  0  0  0  0  0  0
    5.8220   -2.2993    0.0000 C   0  0  0  0  0  0  0  0  0
    6.5757   -1.9637    0.0000 N   0  0  0  0  0  0  0  0  0
    7.1278   -2.5768    0.0000 C   0  0  0  0  0  0  0  0  0
    6.7153   -3.2913    0.0000 C   0  0  0  0  0  0  0  0  0
    5.9083   -3.1198    0.0000 C   0  0  0  0  0  0  0  0  0
    6.7473   -1.1568    0.0000 C   0  0  0  0  0  0  0  0  0
  1  2  1  0  0  0  0
  2  3  4  0  0  0  0
  2  7  4  0  0  0  0
  3  4  4  0  0  0  0
  4  5  4  0  0  0  0
  4 17  1  0  0  0  0
  5  6  4  0  0  0  0
  6  7  4  0  0  0  0
  7  8  1  0  0  0  0
  8  9  1  0  0  0  0
  9 10  1  0  0  0  0
 10 11  1  0  0  0  0
 10 15  1  0  0  0  0
 11 12  1  0  0  0  0
 12 13  1  0  0  0  0
 13 14  1  0  0  0  0
 14 15  1  0  0  0  0
 14 16  1  0  0  0  0
 17 18  1  0  0  0  0
 18 19  1  0  0  0  0
 19 20  1  0  0  0  0
 20 21  2  0  0  0  0
 20 22  1  0  0  0  0
 22 23  4  0  0  0  0
 22 26  4  0  0  0  0
 23 24  4  0  0  0  0
 23 27  1  0  0  0  0
 24 25  4  0  0  0  0
 25 26  4  0  0  0  0
M  END
>  <Name_Molregno>
554437

>  <HISTAMINE H3>
5.78

$$$$
554446
  Marvin  02231216192D 0   1.00000     0.00000     0

 25 28  0  0  1  0  0  0  0  0999 V2000
    2.9678   -4.2628    0.0000 N   0  0  0  0  0  0  0  0  0
    3.2227   -3.4782    0.0000 C   0  0  0  0  0  0  0  0  0
    3.4776   -2.6935    0.0000 C   0  0  0  0  0  0  0  0  0
    2.9256   -2.0804    0.0000 C   0  0  0  0  0  0  0  0  0
    3.1806   -1.2958    0.0000 C   0  0  0  0  0  0  0  0  0
    3.9875   -1.1243    0.0000 C   0  0  0  0  0  0  0  0  0
    4.5396   -1.7374    0.0000 C   0  0  0  0  0  0  0  0  0
    4.2846   -2.5220    0.0000 C   0  0  0  0  0  0  0  0  0
    4.2425   -0.3397    0.0000 C   0  0  0  0  0  0  0  0  0
    3.6904    0.2734    0.0000 C   0  0  0  0  0  0  0  0  0
    3.9454    1.0581    0.0000 C   0  0  0  0  0  0  0  0  0
    4.7523    1.2296    0.0000 C   0  0  0  0  0  0  0  0  0
    5.0073    2.0142    0.0000 N   0  0  0  0  0  0  0  0  0
    5.7919    2.2691    0.0000 C   0  0  0  0  0  0  0  0  0
    5.7919    3.0941    0.0000 C   0  0  0  0  0  0  0  0  0
    5.0073    3.3491    0.0000 C   0  0  0  0  0  0  0  0  0
    4.5224    2.6816    0.0000 C   0  0  0  0  0  0  0  0  0
    6.5765    3.3491    0.0000 C   0  0  0  0  0  0  0  0  0
    7.0614    2.6816    0.0000 N   0  0  0  0  0  0  0  0  0
    6.5765    2.0142    0.0000 C   0  0  0  0  0  0  0  0  0
    7.8864    2.6816    0.0000 C   0  0  0  0  0  0  0  0  0
    8.2989    3.3961    0.0000 C   0  0  0  0  0  0  0  0  0
    8.2989    1.9672    0.0000 C   0  0  0  0  0  0  0  0  0
    5.3044    0.6165    0.0000 C   0  0  0  0  0  0  0  0  0
    5.0494   -0.1681    0.0000 C   0  0  0  0  0  0  0  0  0
  1  2  3  0  0  0  0
  2  3  1  0  0  0  0
  3  4  4  0  0  0  0
  3  8  4  0  0  0  0
  4  5  4  0  0  0  0
  5  6  4  0  0  0  0
  6  7  4  0  0  0  0
  6  9  1  0  0  0  0
  7  8  4  0  0  0  0
  9 10  4  0  0  0  0
  9 25  4  0  0  0  0
 10 11  4  0  0  0  0
 11 12  4  0  0  0  0
 12 13  1  0  0  0  0
 12 24  4  0  0  0  0
 13 14  1  0  0  0  0
 13 17  1  0  0  0  0
 14 15  1  0  0  0  0
 14 20  1  0  0  0  0
 15 16  1  0  0  0  0
 15 18  1  0  0  0  0
 16 17  1  0  0  0  0
 18 19  1  0  0  0  0
 19 20  1  0  0  0  0
 19 21  1  0  0  0  0
 21 22  1  0  0  0  0
 21 23  1  0  0  0  0
 24 25  4  0  0  0  0
M  END
>  <Name_Molregno>
554446

>  <HISTAMINE H3>
7.37

$$$$
554447
  Marvin  02231216192D 0   1.00000     0.00000     0

 25 28  0  0  1  0  0  0  0  0999 V2000
    2.9979   -4.1959    0.0000 N   0  0  0  0  0  0  0  0  0
    3.2529   -3.4112    0.0000 C   0  0  0  0  0  0  0  0  0
    3.5078   -2.6266    0.0000 C   0  0  0  0  0  0  0  0  0
    2.9558   -2.0135    0.0000 C   0  0  0  0  0  0  0  0  0
    3.2107   -1.2289    0.0000 C   0  0  0  0  0  0  0  0  0
    4.0177   -1.0574    0.0000 C   0  0  0  0  0  0  0  0  0
    4.5697   -1.6705    0.0000 C   0  0  0  0  0  0  0  0  0
    4.3148   -2.4551    0.0000 C   0  0  0  0  0  0  0  0  0
    4.2726   -0.2728    0.0000 C   0  0  0  0  0  0  0  0  0
    3.7206    0.3403    0.0000 C   0  0  0  0  0  0  0  0  0
    3.9755    1.1250    0.0000 C   0  0  0  0  0  0  0  0  0
    4.7825    1.2965    0.0000 C   0  0  0  0  0  0  0  0  0
    5.0375    2.0811    0.0000 N   0  0  0  0  0  0  0  0  0
    5.8221    2.3360    0.0000 C   0  0  0  0  0  0  0  0  0
    5.8221    3.1610    0.0000 C   0  0  0  0  0  0  0  0  0
    5.0375    3.4160    0.0000 C   0  0  0  0  0  0  0  0  0
    4.5525    2.7485    0.0000 C   0  0  0  0  0  0  0  0  0
    6.6067    3.4160    0.0000 C   0  0  0  0  0  0  0  0  0
    7.0916    2.7485    0.0000 N   0  0  0  0  0  0  0  0  0
    6.6067    2.0811    0.0000 C   0  0  0  0  0  0  0  0  0
    7.9166    2.7485    0.0000 C   0  0  0  0  0  0  0  0  0
    8.3291    2.0341    0.0000 C   0  0  0  0  0  0  0  0  0
    9.1541    2.0341    0.0000 C   0  0  0  0  0  0  0  0  0
    5.3345    0.6834    0.0000 C   0  0  0  0  0  0  0  0  0
    5.0796   -0.1012    0.0000 C   0  0  0  0  0  0  0  0  0
  1  2  3  0  0  0  0
  2  3  1  0  0  0  0
  3  4  4  0  0  0  0
  3  8  4  0  0  0  0
  4  5  4  0  0  0  0
  5  6  4  0  0  0  0
  6  7  4  0  0  0  0
  6  9  1  0  0  0  0
  7  8  4  0  0  0  0
  9 10  4  0  0  0  0
  9 25  4  0  0  0  0
 10 11  4  0  0  0  0
 11 12  4  0  0  0  0
 12 13  1  0  0  0  0
 12 24  4  0  0  0  0
 13 14  1  0  0  0  0
 13 17  1  0  0  0  0
 14 15  1  0  0  0  0
 14 20  1  0  0  0  0
 15 16  1  0  0  0  0
 15 18  1  0  0  0  0
 16 17  1  0  0  0  0
 18 19  1  0  0  0  0
 19 20  1  0  0  0  0
 19 21  1  0  0  0  0
 21 22  1  0  0  0  0
 22 23  1  0  0  0  0
 24 25  4  0  0  0  0
M  END
>  <Name_Molregno>
554447

>  <HISTAMINE H3>
7.15

$$$$
554448
  Marvin  02231216192D 0   1.00000     0.00000     0

 26 29  0  0  1  0  0  0  0  0999 V2000
    3.0016   -4.3088    0.0000 N   0  0  0  0  0  0  0  0  0
    3.2565   -3.5242    0.0000 C   0  0  0  0  0  0  0  0  0
    3.5114   -2.7396    0.0000 C   0  0  0  0  0  0  0  0  0
    2.9594   -2.1265    0.0000 C   0  0  0  0  0  0  0  0  0
    3.2143   -1.3419    0.0000 C   0  0  0  0  0  0  0  0  0
    4.0213   -1.1703    0.0000 C   0  0  0  0  0  0  0  0  0
    4.5733   -1.7834    0.0000 C   0  0  0  0  0  0  0  0  0
    4.3184   -2.5680    0.0000 C   0  0  0  0  0  0  0  0  0
    4.2762   -0.3857    0.0000 C   0  0  0  0  0  0  0  0  0
    3.7242    0.2274    0.0000 C   0  0  0  0  0  0  0  0  0
    3.9792    1.0120    0.0000 C   0  0  0  0  0  0  0  0  0
    4.7861    1.1835    0.0000 C   0  0  0  0  0  0  0  0  0
    5.0411    1.9682    0.0000 N   0  0  0  0  0  0  0  0  0
    5.8257    2.2231    0.0000 C   0  0  0  0  0  0  0  0  0
    5.8257    3.0481    0.0000 C   0  0  0  0  0  0  0  0  0
    5.0411    3.3030    0.0000 C   0  0  0  0  0  0  0  0  0
    4.5561    2.6356    0.0000 C   0  0  0  0  0  0  0  0  0
    6.6103    3.3030    0.0000 C   0  0  0  0  0  0  0  0  0
    7.0952    2.6356    0.0000 N   0  0  0  0  0  0  0  0  0
    6.6103    1.9682    0.0000 C   0  0  0  0  0  0  0  0  0
    7.9202    2.6356    0.0000 C   0  0  0  0  0  0  0  0  0
    8.3327    3.3501    0.0000 C   0  0  0  0  0  0  0  0  0
    9.1577    3.3501    0.0000 C   0  0  0  0  0  0  0  0  0
    9.5702    4.0645    0.0000 C   0  0  0  0  0  0  0  0  0
    5.3382    0.5704    0.0000 C   0  0  0  0  0  0  0  0  0
    5.0832   -0.2142    0.0000 C   0  0  0  0  0  0  0  0  0
  1  2  3  0  0  0  0
  2  3  1  0  0  0  0
  3  4  4  0  0  0  0
  3  8  4  0  0  0  0
  4  5  4  0  0  0  0
  5  6  4  0  0  0  0
  6  7  4  0  0  0  0
  6  9  1  0  0  0  0
  7  8  4  0  0  0  0
  9 10  4  0  0  0  0
  9 26  4  0  0  0  0
 10 11  4  0  0  0  0
 11 12  4  0  0  0  0
 12 13  1  0  0  0  0
 12 25  4  0  0  0  0
 13 14  1  0  0  0  0
 13 17  1  0  0  0  0
 14 15  1  0  0  0  0
 14 20  1  0  0  0  0
 15 16  1  0  0  0  0
 15 18  1  0  0  0  0
 16 17  1  0  0  0  0
 18 19  1  0  0  0  0
 19 20  1  0  0  0  0
 19 21  1  0  0  0  0
 21 22  1  0  0  0  0
 22 23  1  0  0  0  0
 23 24  1  0  0  0  0
 25 26  4  0  0  0  0
M  END
>  <Name_Molregno>
554448

>  <HISTAMINE H3>
6.26

$$$$
554450
  Marvin  02231216192D 0   1.00000     0.00000     0

 25 26  0  0  0  0  0  0  0  0999 V2000
    3.2663   -2.8352    0.0000 Br  0  0  0  0  0  0  0  0  0
    3.2663   -2.0102    0.0000 C   0  0  0  0  0  0  0  0  0
    2.5518   -1.5977    0.0000 C   0  0  0  0  0  0  0  0  0
    2.5518   -0.7727    0.0000 C   0  0  0  0  0  0  0  0  0
    3.2663   -0.3602    0.0000 C   0  0  0  0  0  0  0  0  0
    3.9808   -0.7727    0.0000 C   0  0  0  0  0  0  0  0  0
    3.9808   -1.5977    0.0000 C   0  0  0  0  0  0  0  0  0
    4.6952   -2.0102    0.0000 O   0  0  0  0  0  0  0  0  0
    5.4097   -1.5977    0.0000 C   0  0  0  0  0  0  0  0  0
    6.1242   -2.0102    0.0000 C   0  0  0  0  0  0  0  0  0
    6.8387   -1.5977    0.0000 C   0  0  0  0  0  0  0  0  0
    7.5531   -2.0102    0.0000 N   0  0  0  0  0  0  0  0  0
    8.2676   -1.5977    0.0000 C   0  0  0  0  0  0  0  0  0
    7.5531   -2.8352    0.0000 C   0  0  0  0  0  0  0  0  0
    1.8374   -0.3602    0.0000 C   0  0  0  0  0  0  0  0  0
    1.1229   -0.7727    0.0000 C   0  0  0  0  0  0  0  0  0
    0.4084   -0.3602    0.0000 N   0  0  0  0  0  0  0  0  0
   -0.3061   -0.7727    0.0000 C   0  0  0  0  0  0  0  0  0
   -0.3061   -1.5977    0.0000 O   0  0  0  0  0  0  0  0  0
   -1.0205   -0.3602    0.0000 C   0  0  0  0  0  0  0  0  0
   -1.7742   -0.6957    0.0000 O   0  0  0  0  0  0  0  0  0
   -2.3262   -0.0826    0.0000 C   0  0  0  0  0  0  0  0  0
   -3.1467   -0.1689    0.0000 Br  0  0  0  0  0  0  0  0  0
   -1.9137    0.6318    0.0000 C   0  0  0  0  0  0  0  0  0
   -1.1068    0.4603    0.0000 C   0  0  0  0  0  0  0  0  0
  1  2  1  0  0  0  0
  2  3  4  0  0  0  0
  2  7  4  0  0  0  0
  3  4  4  0  0  0  0
  4  5  4  0  0  0  0
  4 15  1  0  0  0  0
  5  6  4  0  0  0  0
  6  7  4  0  0  0  0
  7  8  1  0  0  0  0
  8  9  1  0  0  0  0
  9 10  1  0  0  0  0
 10 11  1  0  0  0  0
 11 12  1  0  0  0  0
 12 13  1  0  0  0  0
 12 14  1  0  0  0  0
 15 16  1  0  0  0  0
 16 17  1  0  0  0  0
 17 18  1  0  0  0  0
 18 19  2  0  0  0  0
 18 20  1  0  0  0  0
 20 21  4  0  0  0  0
 20 25  4  0  0  0  0
 21 22  4  0  0  0  0
 22 23  1  0  0  0  0
 22 24  4  0  0  0  0
 24 25  4  0  0  0  0
M  END
>  <Name_Molregno>
554450

>  <HISTAMINE H3>
5.64

$$$$
554451
  Marvin  02231216192D 0   1.00000     0.00000     0

 27 29  0  0  0  0  0  0  0  0999 V2000
   -1.7292    0.5015    0.0000 Br  0  0  0  0  0  0  0  0  0
   -1.7292   -0.3235    0.0000 C   0  0  0  0  0  0  0  0  0
   -1.0147   -0.7360    0.0000 C   0  0  0  0  0  0  0  0  0
   -1.0147   -1.5610    0.0000 C   0  0  0  0  0  0  0  0  0
   -1.7292   -1.9735    0.0000 C   0  0  0  0  0  0  0  0  0
   -2.4436   -1.5610    0.0000 C   0  0  0  0  0  0  0  0  0
   -2.4436   -0.7360    0.0000 C   0  0  0  0  0  0  0  0  0
   -3.1581   -0.3235    0.0000 O   0  0  0  0  0  0  0  0  0
   -3.8726   -0.7360    0.0000 C   0  0  0  0  0  0  0  0  0
   -4.5871   -0.3235    0.0000 C   0  0  0  0  0  0  0  0  0
   -5.3015   -0.7360    0.0000 N   0  0  0  0  0  0  0  0  0
   -5.3015   -1.5610    0.0000 C   0  0  0  0  0  0  0  0  0
   -6.0160   -1.9735    0.0000 C   0  0  0  0  0  0  0  0  0
   -6.7305   -1.5610    0.0000 O   0  0  0  0  0  0  0  0  0
   -6.7305   -0.7360    0.0000 C   0  0  0  0  0  0  0  0  0
   -6.0160   -0.3235    0.0000 C   0  0  0  0  0  0  0  0  0
   -0.3002   -1.9735    0.0000 C   0  0  0  0  0  0  0  0  0
    0.4142   -1.5610    0.0000 C   0  0  0  0  0  0  0  0  0
    1.1287   -1.9735    0.0000 N   0  0  0  0  0  0  0  0  0
    1.8432   -1.5610    0.0000 C   0  0  0  0  0  0  0  0  0
    1.8432   -0.7360    0.0000 O   0  0  0  0  0  0  0  0  0
    2.5577   -1.9735    0.0000 C   0  0  0  0  0  0  0  0  0
    3.3113   -1.6379    0.0000 O   0  0  0  0  0  0  0  0  0
    3.8634   -2.2510    0.0000 C   0  0  0  0  0  0  0  0  0
    4.6838   -2.1648    0.0000 Br  0  0  0  0  0  0  0  0  0
    3.4509   -2.9655    0.0000 C   0  0  0  0  0  0  0  0  0
    2.6439   -2.7939    0.0000 C   0  0  0  0  0  0  0  0  0
  1  2  1  0  0  0  0
  2  3  4  0  0  0  0
  2  7  4  0  0  0  0
  3  4  4  0  0  0  0
  4  5  4  0  0  0  0
  4 17  1  0  0  0  0
  5  6  4  0  0  0  0
  6  7  4  0  0  0  0
  7  8  1  0  0  0  0
  8  9  1  0  0  0  0
  9 10  1  0  0  0  0
 10 11  1  0  0  0  0
 11 12  1  0  0  0  0
 11 16  1  0  0  0  0
 12 13  1  0  0  0  0
 13 14  1  0  0  0  0
 14 15  1  0  0  0  0
 15 16  1  0  0  0  0
 17 18  1  0  0  0  0
 18 19  1  0  0  0  0
 19 20  1  0  0  0  0
 20 21  2  0  0  0  0
 20 22  1  0  0  0  0
 22 23  4  0  0  0  0
 22 27  4  0  0  0  0
 23 24  4  0  0  0  0
 24 25  1  0  0  0  0
 24 26  4  0  0  0  0
 26 27  4  0  0  0  0
M  END
>  <Name_Molregno>
554451

>  <HISTAMINE H3>
4.49

$$$$
554459
  Marvin  02231216192D 0   1.00000     0.00000     0

 27 29  0  0  1  0  0  0  0  0999 V2000
    1.5275    0.2621    0.0000 Br  0  0  0  0  0  0  0  0  0
    1.5275   -0.5629    0.0000 C   0  0  0  0  0  0  0  0  0
    2.2420   -0.9754    0.0000 C   0  0  0  0  0  0  0  0  0
    2.2420   -1.8004    0.0000 C   0  0  0  0  0  0  0  0  0
    1.5275   -2.2129    0.0000 C   0  0  0  0  0  0  0  0  0
    0.8130   -1.8004    0.0000 C   0  0  0  0  0  0  0  0  0
    0.8130   -0.9754    0.0000 C   0  0  0  0  0  0  0  0  0
    0.0985   -0.5629    0.0000 O   0  0  0  0  0  0  0  0  0
   -0.6159   -0.9754    0.0000 C   0  0  0  0  0  0  0  0  0
   -1.3304   -0.5629    0.0000 C   0  0  0  0  0  0  0  0  0
   -2.0449   -0.9754    0.0000 C   0  0  0  0  0  0  0  0  0
   -2.7593   -0.5629    0.0000 C   0  0  0  0  0  0  0  0  0
   -2.7593    0.2621    0.0000 C   0  0  0  0  0  0  0  0  0
   -2.0449    0.6746    0.0000 N   0  0  0  0  0  0  0  0  0
   -1.3304    0.2621    0.0000 C   0  0  0  0  0  0  0  0  0
   -2.0449    1.4996    0.0000 C   0  0  0  0  0  0  0  0  0
    2.9564   -2.2129    0.0000 C   0  0  0  0  0  0  0  0  0
    3.6709   -1.8004    0.0000 C   0  0  0  0  0  0  0  0  0
    4.3854   -2.2129    0.0000 N   0  0  0  0  0  0  0  0  0
    5.0998   -1.8004    0.0000 C   0  0  0  0  0  0  0  0  0
    5.0998   -0.9754    0.0000 O   0  0  0  0  0  0  0  0  0
    5.8143   -2.2129    0.0000 C   0  0  0  0  0  0  0  0  0
    6.5680   -1.8773    0.0000 O   0  0  0  0  0  0  0  0  0
    7.1200   -2.4904    0.0000 C   0  0  0  0  0  0  0  0  0
    7.9405   -2.4042    0.0000 Br  0  0  0  0  0  0  0  0  0
    6.7075   -3.2049    0.0000 C   0  0  0  0  0  0  0  0  0
    5.9006   -3.0334    0.0000 C   0  0  0  0  0  0  0  0  0
  1  2  1  0  0  0  0
  2  3  4  0  0  0  0
  2  7  4  0  0  0  0
  3  4  4  0  0  0  0
  4  5  4  0  0  0  0
  4 17  1  0  0  0  0
  5  6  4  0  0  0  0
  6  7  4  0  0  0  0
  7  8  1  0  0  0  0
  8  9  1  0  0  0  0
  9 10  1  0  0  0  0
 10 11  1  0  0  0  0
 10 15  1  0  0  0  0
 11 12  1  0  0  0  0
 12 13  1  0  0  0  0
 13 14  1  0  0  0  0
 14 15  1  0  0  0  0
 14 16  1  0  0  0  0
 17 18  1  0  0  0  0
 18 19  1  0  0  0  0
 19 20  1  0  0  0  0
 20 21  2  0  0  0  0
 20 22  1  0  0  0  0
 22 23  4  0  0  0  0
 22 27  4  0  0  0  0
 23 24  4  0  0  0  0
 24 25  1  0  0  0  0
 24 26  4  0  0  0  0
 26 27  4  0  0  0  0
M  END
>  <Name_Molregno>
554459

>  <HISTAMINE H3>
5.68

$$$$
554460
  Marvin  02231216192D 0   1.00000     0.00000     0

 27 29  0  0  1  0  0  0  0  0999 V2000
   -3.5735    0.1481    0.0000 Br  0  0  0  0  0  0  0  0  0
   -2.8591   -0.2644    0.0000 C   0  0  0  0  0  0  0  0  0
   -2.1446    0.1481    0.0000 C   0  0  0  0  0  0  0  0  0
   -1.4301   -0.2644    0.0000 C   0  0  0  0  0  0  0  0  0
   -1.4301   -1.0894    0.0000 C   0  0  0  0  0  0  0  0  0
   -2.1446   -1.5019    0.0000 C   0  0  0  0  0  0  0  0  0
   -2.8591   -1.0894    0.0000 C   0  0  0  0  0  0  0  0  0
   -3.5735   -1.5019    0.0000 O   0  0  0  0  0  0  0  0  0
   -3.5735   -2.3269    0.0000 C   0  0  0  0  0  0  0  0  0
   -4.2880   -2.7394    0.0000 C   0  0  0  0  0  0  0  0  0
   -4.2880   -3.5644    0.0000 N   0  0  0  0  0  0  0  0  0
   -3.6206   -4.0493    0.0000 C   0  0  0  0  0  0  0  0  0
   -3.8755   -4.8339    0.0000 C   0  0  0  0  0  0  0  0  0
   -4.7005   -4.8339    0.0000 C   0  0  0  0  0  0  0  0  0
   -4.9555   -4.0493    0.0000 C   0  0  0  0  0  0  0  0  0
   -5.7401   -3.7944    0.0000 C   0  0  0  0  0  0  0  0  0
   -0.7157    0.1481    0.0000 C   0  0  0  0  0  0  0  0  0
   -0.0012   -0.2644    0.0000 C   0  0  0  0  0  0  0  0  0
    0.7133    0.1481    0.0000 N   0  0  0  0  0  0  0  0  0
    1.4278   -0.2644    0.0000 C   0  0  0  0  0  0  0  0  0
    1.4278   -1.0894    0.0000 O   0  0  0  0  0  0  0  0  0
    2.1422    0.1481    0.0000 C   0  0  0  0  0  0  0  0  0
    2.2285    0.9686    0.0000 S   0  0  0  0  0  0  0  0  0
    3.0354    1.1401    0.0000 C   0  0  0  0  0  0  0  0  0
    3.4479    0.4257    0.0000 C   0  0  0  0  0  0  0  0  0
    4.2684    0.3394    0.0000 Br  0  0  0  0  0  0  0  0  0
    2.8959   -0.1874    0.0000 C   0  0  0  0  0  0  0  0  0
  1  2  1  0  0  0  0
  2  3  4  0  0  0  0
  2  7  4  0  0  0  0
  3  4  4  0  0  0  0
  4  5  4  0  0  0  0
  4 17  1  0  0  0  0
  5  6  4  0  0  0  0
  6  7  4  0  0  0  0
  7  8  1  0  0  0  0
  8  9  1  0  0  0  0
  9 10  1  0  0  0  0
 10 11  1  0  0  0  0
 11 12  1  0  0  0  0
 11 15  1  0  0  0  0
 12 13  1  0  0  0  0
 13 14  1  0  0  0  0
 14 15  1  0  0  0  0
 15 16  1  0  0  0  0
 17 18  1  0  0  0  0
 18 19  1  0  0  0  0
 19 20  1  0  0  0  0
 20 21  2  0  0  0  0
 20 22  1  0  0  0  0
 22 23  4  0  0  0  0
 22 27  4  0  0  0  0
 23 24  4  0  0  0  0
 24 25  4  0  0  0  0
 25 26  1  0  0  0  0
 25 27  4  0  0  0  0
M  END
>  <Name_Molregno>
554460

>  <HISTAMINE H3>
6.5

$$$$
554470
  Marvin  02231216192D 0   1.00000     0.00000     0

 20 23  0  0  1  0  0  0  0  0999 V2000
    1.5397   -4.1948    0.0000 Br  0  0  0  0  0  0  0  0  0
    1.7946   -3.4102    0.0000 C   0  0  0  0  0  0  0  0  0
    2.6016   -3.2387    0.0000 C   0  0  0  0  0  0  0  0  0
    2.8565   -2.4540    0.0000 C   0  0  0  0  0  0  0  0  0
    2.3045   -1.8410    0.0000 C   0  0  0  0  0  0  0  0  0
    2.5594   -1.0563    0.0000 C   0  0  0  0  0  0  0  0  0
    3.3664   -0.8848    0.0000 C   0  0  0  0  0  0  0  0  0
    3.6214   -0.1002    0.0000 N   0  0  0  0  0  0  0  0  0
    4.4060    0.1548    0.0000 C   0  0  0  0  0  0  0  0  0
    4.4060    0.9798    0.0000 C   0  0  0  0  0  0  0  0  0
    3.6214    1.2347    0.0000 C   0  0  0  0  0  0  0  0  0
    3.1364    0.5673    0.0000 C   0  0  0  0  0  0  0  0  0
    5.1906    1.2347    0.0000 C   0  0  0  0  0  0  0  0  0
    5.6755    0.5673    0.0000 N   0  0  0  0  0  0  0  0  0
    5.1906   -0.1002    0.0000 C   0  0  0  0  0  0  0  0  0
    6.5005    0.5673    0.0000 C   0  0  0  0  0  0  0  0  0
    3.9184   -1.4979    0.0000 C   0  0  0  0  0  0  0  0  0
    3.6635   -2.2825    0.0000 C   0  0  0  0  0  0  0  0  0
    1.4975   -2.0125    0.0000 C   0  0  0  0  0  0  0  0  0
    1.2426   -2.7971    0.0000 C   0  0  0  0  0  0  0  0  0
  1  2  1  0  0  0  0
  2  3  4  0  0  0  0
  2 20  4  0  0  0  0
  3  4  4  0  0  0  0
  4  5  4  0  0  0  0
  4 18  4  0  0  0  0
  5  6  4  0  0  0  0
  5 19  4  0  0  0  0
  6  7  4  0  0  0  0
  7  8  1  0  0  0  0
  7 17  4  0  0  0  0
  8  9  1  0  0  0  0
  8 12  1  0  0  0  0
  9 10  1  0  0  0  0
  9 15  1  0  0  0  0
 10 11  1  0  0  0  0
 10 13  1  0  0  0  0
 11 12  1  0  0  0  0
 13 14  1  0  0  0  0
 14 15  1  0  0  0  0
 14 16  1  0  0  0  0
 17 18  4  0  0  0  0
 19 20  4  0  0  0  0
M  END
>  <Name_Molregno>
554470

>  <HISTAMINE H3>
6.74

$$$$
554876
  Marvin  02231216192D 0   1.00000     0.00000     0

 21 22  0  0  0  0  0  0  0  0999 V2000
    0.0055    0.7460    0.0000 Br  0  0  0  0  0  0  0  0  0
    0.7200    0.3335    0.0000 C   0  0  0  0  0  0  0  0  0
    1.4345    0.7460    0.0000 C   0  0  0  0  0  0  0  0  0
    2.1489    0.3335    0.0000 C   0  0  0  0  0  0  0  0  0
    2.1489   -0.4915    0.0000 C   0  0  0  0  0  0  0  0  0
    1.4345   -0.9040    0.0000 C   0  0  0  0  0  0  0  0  0
    0.7200   -0.4915    0.0000 C   0  0  0  0  0  0  0  0  0
    2.8634   -0.9040    0.0000 C   0  0  0  0  0  0  0  0  0
    3.5779   -0.4915    0.0000 C   0  0  0  0  0  0  0  0  0
    4.2923   -0.9040    0.0000 N   0  0  0  0  0  0  0  0  0
    5.0068   -0.4915    0.0000 C   0  0  0  0  0  0  0  0  0
    5.7213   -0.9040    0.0000 S   0  0  0  0  0  0  0  0  0
    6.4358   -0.4915    0.0000 C   0  0  0  0  0  0  0  0  0
    7.1502   -0.9040    0.0000 C   0  0  0  0  0  0  0  0  0
    7.8647   -0.4915    0.0000 C   0  0  0  0  0  0  0  0  0
    8.5792   -0.9040    0.0000 C   0  0  0  0  0  0  0  0  0
    9.3328   -0.5684    0.0000 N   0  0  0  0  0  0  0  0  0
    9.8849   -1.1815    0.0000 C   0  0  0  0  0  0  0  0  0
    9.4724   -1.8960    0.0000 N   0  0  0  0  0  0  0  0  0
    8.6654   -1.7245    0.0000 C   0  0  0  0  0  0  0  0  0
    5.0068    0.3335    0.0000 N   0  0  0  0  0  0  0  0  0
  1  2  1  0  0  0  0
  2  3  4  0  0  0  0
  2  7  4  0  0  0  0
  3  4  4  0  0  0  0
  4  5  4  0  0  0  0
  5  6  4  0  0  0  0
  5  8  1  0  0  0  0
  6  7  4  0  0  0  0
  8  9  1  0  0  0  0
  9 10  1  0  0  0  0
 10 11  1  0  0  0  0
 11 12  1  0  0  0  0
 11 21  2  0  0  0  0
 12 13  1  0  0  0  0
 13 14  1  0  0  0  0
 14 15  1  0  0  0  0
 15 16  1  0  0  0  0
 16 17  4  0  0  0  0
 16 20  4  0  0  0  0
 17 18  4  0  0  0  0
 18 19  4  0  0  0  0
 19 20  4  0  0  0  0
M  STY  1   1 DAT
M  SAL   1  1  19
M  SDT   1 MRV_IMPLICIT_H                                        
M  SDD   1     0.0000    0.0000    DR    ALL  0       0  
M  SED   1 IMPL_H1
M  END
>  <Name_Molregno>
554876

>  <HISTAMINE H3>
8.1

>  <HISTAMINE H4>
7.4

$$$$
554883
  Marvin  02231216192D 0   1.00000     0.00000     0

 26 28  0  0  0  0  0  0  0  0999 V2000
   -0.1363   -0.2077    0.0000 N   0  0  0  0  0  0  0  0  0
    0.4158    0.4053    0.0000 C   0  0  0  0  0  0  0  0  0
    1.1694    0.0698    0.0000 C   0  0  0  0  0  0  0  0  0
    1.0832   -0.7507    0.0000 N   0  0  0  0  0  0  0  0  0
    0.2762   -0.9222    0.0000 C   0  0  0  0  0  0  0  0  0
    1.8839    0.4823    0.0000 C   0  0  0  0  0  0  0  0  0
    2.5984    0.0698    0.0000 C   0  0  0  0  0  0  0  0  0
    3.3129    0.4823    0.0000 C   0  0  0  0  0  0  0  0  0
    4.0273    0.0698    0.0000 N   0  0  0  0  0  0  0  0  0
    4.7418    0.4823    0.0000 C   0  0  0  0  0  0  0  0  0
    5.4563    0.0698    0.0000 N   0  0  0  0  0  0  0  0  0
    6.1707    0.4823    0.0000 C   0  0  0  0  0  0  0  0  0
    6.8852    0.0698    0.0000 C   0  0  0  0  0  0  0  0  0
    6.8852   -0.7552    0.0000 C   0  0  0  0  0  0  0  0  0
    7.5997   -1.1677    0.0000 C   0  0  0  0  0  0  0  0  0
    7.5997   -1.9927    0.0000 C   0  0  0  0  0  0  0  0  0
    6.8852   -2.4052    0.0000 C   0  0  0  0  0  0  0  0  0
    6.1707   -1.9927    0.0000 C   0  0  0  0  0  0  0  0  0
    6.1707   -1.1677    0.0000 C   0  0  0  0  0  0  0  0  0
    7.5997    0.4823    0.0000 C   0  0  0  0  0  0  0  0  0
    7.5997    1.3073    0.0000 C   0  0  0  0  0  0  0  0  0
    8.3142    1.7198    0.0000 C   0  0  0  0  0  0  0  0  0
    9.0286    1.3073    0.0000 C   0  0  0  0  0  0  0  0  0
    9.0286    0.4823    0.0000 C   0  0  0  0  0  0  0  0  0
    8.3142    0.0698    0.0000 C   0  0  0  0  0  0  0  0  0
    4.7418    1.3073    0.0000 N   0  0  0  0  0  0  0  0  0
  1  2  4  0  0  0  0
  1  5  4  0  0  0  0
  2  3  4  0  0  0  0
  3  4  4  0  0  0  0
  3  6  1  0  0  0  0
  4  5  4  0  0  0  0
  6  7  1  0  0  0  0
  7  8  1  0  0  0  0
  8  9  1  0  0  0  0
  9 10  1  0  0  0  0
 10 11  1  0  0  0  0
 10 26  2  0  0  0  0
 11 12  1  0  0  0  0
 12 13  2  0  0  0  0
 13 14  1  0  0  0  0
 13 20  1  0  0  0  0
 14 15  4  0  0  0  0
 14 19  4  0  0  0  0
 15 16  4  0  0  0  0
 16 17  4  0  0  0  0
 17 18  4  0  0  0  0
 18 19  4  0  0  0  0
 20 21  4  0  0  0  0
 20 25  4  0  0  0  0
 21 22  4  0  0  0  0
 22 23  4  0  0  0  0
 23 24  4  0  0  0  0
 24 25  4  0  0  0  0
M  STY  1   1 DAT
M  SAL   1  1   1
M  SDT   1 MRV_IMPLICIT_H                                        
M  SDD   1     0.0000    0.0000    DR    ALL  0       0  
M  SED   1 IMPL_H1
M  END
>  <Name_Molregno>
554883

>  <HISTAMINE H3>
6.5

>  <HISTAMINE H4>
6.8

$$$$
555826
  Marvin  02231216192D 0   1.00000     0.00000     0

 28 31  0  0  0  0  0  0  0  0999 V2000
   -9.4221    0.0384    0.0000 O   0  0  0  0  0  0  0  0  0
   -8.7076    0.4509    0.0000 C   0  0  0  0  0  0  0  0  0
   -7.9932    0.0384    0.0000 C   0  0  0  0  0  0  0  0  0
   -7.9932   -0.7866    0.0000 N   0  0  0  0  0  0  0  0  0
   -8.7076   -1.1991    0.0000 C   0  0  0  0  0  0  0  0  0
   -9.4221   -0.7866    0.0000 C   0  0  0  0  0  0  0  0  0
   -7.2787   -1.1991    0.0000 C   0  0  0  0  0  0  0  0  0
   -7.2787   -2.0241    0.0000 O   0  0  0  0  0  0  0  0  0
   -6.5642   -0.7866    0.0000 C   0  0  0  0  0  0  0  0  0
   -5.8497   -1.1991    0.0000 N   0  0  0  0  0  0  0  0  0
   -5.1353   -0.7866    0.0000 C   0  0  0  0  0  0  0  0  0
   -5.1353    0.0384    0.0000 C   0  0  0  0  0  0  0  0  0
   -4.4208    0.4509    0.0000 C   0  0  0  0  0  0  0  0  0
   -3.7063    0.0384    0.0000 C   0  0  0  0  0  0  0  0  0
   -2.9919    0.4509    0.0000 O   0  0  0  0  0  0  0  0  0
   -2.2774    0.0384    0.0000 C   0  0  0  0  0  0  0  0  0
   -1.5629    0.4509    0.0000 C   0  0  0  0  0  0  0  0  0
   -0.8485    0.0384    0.0000 C   0  0  0  0  0  0  0  0  0
   -0.8485   -0.7866    0.0000 N   0  0  0  0  0  0  0  0  0
   -1.5629   -1.1991    0.0000 C   0  0  0  0  0  0  0  0  0
   -2.2774   -0.7866    0.0000 C   0  0  0  0  0  0  0  0  0
   -0.1340   -1.1991    0.0000 C   0  0  0  0  0  0  0  0  0
    0.5805   -0.7866    0.0000 C   0  0  0  0  0  0  0  0  0
   -0.1340   -2.0241    0.0000 C   0  0  0  0  0  0  0  0  0
   -3.7063   -0.7866    0.0000 C   0  0  0  0  0  0  0  0  0
   -4.4208   -1.1991    0.0000 C   0  0  0  0  0  0  0  0  0
   -5.8497    0.4509    0.0000 C   0  0  0  0  0  0  0  0  0
   -6.5642    0.0384    0.0000 C   0  0  0  0  0  0  0  0  0
  1  2  1  0  0  0  0
  1  6  1  0  0  0  0
  2  3  1  0  0  0  0
  3  4  1  0  0  0  0
  4  5  1  0  0  0  0
  4  7  1  0  0  0  0
  5  6  1  0  0  0  0
  7  8  2  0  0  0  0
  7  9  1  0  0  0  0
  9 10  4  0  0  0  0
  9 28  4  0  0  0  0
 10 11  4  0  0  0  0
 11 12  4  0  0  0  0
 11 26  4  0  0  0  0
 12 13  4  0  0  0  0
 12 27  4  0  0  0  0
 13 14  4  0  0  0  0
 14 15  1  0  0  0  0
 14 25  4  0  0  0  0
 15 16  1  0  0  0  0
 16 17  1  0  0  0  0
 16 21  1  0  0  0  0
 17 18  1  0  0  0  0
 18 19  1  0  0  0  0
 19 20  1  0  0  0  0
 19 22  1  0  0  0  0
 20 21  1  0  0  0  0
 22 23  1  0  0  0  0
 22 24  1  0  0  0  0
 25 26  4  0  0  0  0
 27 28  4  0  0  0  0
M  END
>  <Name_Molregno>
555826

>  <HISTAMINE H3>
6.62

$$$$
555827
  Marvin  02231216192D 0   1.00000     0.00000     0

 26 29  0  0  0  0  0  0  0  0999 V2000
   -1.9392    0.4758    0.0000 O   0  0  0  0  0  0  0  0  0
   -2.6537    0.8883    0.0000 C   0  0  0  0  0  0  0  0  0
   -3.3682    0.4758    0.0000 C   0  0  0  0  0  0  0  0  0
   -4.0827    0.8883    0.0000 C   0  0  0  0  0  0  0  0  0
   -4.0827    1.7133    0.0000 N   0  0  0  0  0  0  0  0  0
   -3.3682    2.1258    0.0000 C   0  0  0  0  0  0  0  0  0
   -2.6537    1.7133    0.0000 C   0  0  0  0  0  0  0  0  0
   -4.7971    2.1258    0.0000 C   0  0  0  0  0  0  0  0  0
   -4.7971    2.9508    0.0000 C   0  0  0  0  0  0  0  0  0
   -5.5116    1.7133    0.0000 C   0  0  0  0  0  0  0  0  0
   -1.2248    0.8883    0.0000 C   0  0  0  0  0  0  0  0  0
   -0.5103    0.4758    0.0000 C   0  0  0  0  0  0  0  0  0
    0.2042    0.8883    0.0000 C   0  0  0  0  0  0  0  0  0
    0.2042    1.7133    0.0000 C   0  0  0  0  0  0  0  0  0
    0.9186    2.1258    0.0000 N   0  0  0  0  0  0  0  0  0
    1.6331    1.7133    0.0000 C   0  0  0  0  0  0  0  0  0
    1.6331    0.8883    0.0000 C   0  0  0  0  0  0  0  0  0
    0.9186    0.4758    0.0000 C   0  0  0  0  0  0  0  0  0
    2.3476    2.1258    0.0000 C   0  0  0  0  0  0  0  0  0
    2.3476    2.9508    0.0000 O   0  0  0  0  0  0  0  0  0
    3.0621    1.7133    0.0000 N   0  0  0  0  0  0  0  0  0
    3.8589    1.9268    0.0000 C   0  0  0  0  0  0  0  0  0
    4.0725    1.1300    0.0000 C   0  0  0  0  0  0  0  0  0
    3.2756    0.9164    0.0000 C   0  0  0  0  0  0  0  0  0
   -0.5103    2.1258    0.0000 C   0  0  0  0  0  0  0  0  0
   -1.2248    1.7133    0.0000 C   0  0  0  0  0  0  0  0  0
  1  2  1  0  0  0  0
  1 11  1  0  0  0  0
  2  3  1  0  0  0  0
  2  7  1  0  0  0  0
  3  4  1  0  0  0  0
  4  5  1  0  0  0  0
  5  6  1  0  0  0  0
  5  8  1  0  0  0  0
  6  7  1  0  0  0  0
  8  9  1  0  0  0  0
  8 10  1  0  0  0  0
 11 12  4  0  0  0  0
 11 26  4  0  0  0  0
 12 13  4  0  0  0  0
 13 14  4  0  0  0  0
 13 18  4  0  0  0  0
 14 15  4  0  0  0  0
 14 25  4  0  0  0  0
 15 16  4  0  0  0  0
 16 17  4  0  0  0  0
 16 19  1  0  0  0  0
 17 18  4  0  0  0  0
 19 20  2  0  0  0  0
 19 21  1  0  0  0  0
 21 22  1  0  0  0  0
 21 24  1  0  0  0  0
 22 23  1  0  0  0  0
 23 24  1  0  0  0  0
 25 26  4  0  0  0  0
M  END
>  <Name_Molregno>
555827

>  <HISTAMINE H3>
7.21

$$$$
556087
  Marvin  02231216192D 0   1.00000     0.00000     0

 25 27  0  0  0  0  0  0  0  0999 V2000
   -1.6804    0.5012    0.0000 Br  0  0  0  0  0  0  0  0  0
   -1.6804   -0.3238    0.0000 C   0  0  0  0  0  0  0  0  0
   -0.9659   -0.7363    0.0000 C   0  0  0  0  0  0  0  0  0
   -0.9659   -1.5613    0.0000 C   0  0  0  0  0  0  0  0  0
   -1.6804   -1.9738    0.0000 C   0  0  0  0  0  0  0  0  0
   -2.3949   -1.5613    0.0000 C   0  0  0  0  0  0  0  0  0
   -2.3949   -0.7363    0.0000 C   0  0  0  0  0  0  0  0  0
   -3.1093   -0.3238    0.0000 O   0  0  0  0  0  0  0  0  0
   -3.8238   -0.7363    0.0000 C   0  0  0  0  0  0  0  0  0
   -4.5383   -0.3238    0.0000 C   0  0  0  0  0  0  0  0  0
   -5.2527   -0.7363    0.0000 N   0  0  0  0  0  0  0  0  0
   -5.3390   -1.5568    0.0000 C   0  0  0  0  0  0  0  0  0
   -6.1460   -1.7284    0.0000 C   0  0  0  0  0  0  0  0  0
   -6.5585   -1.0139    0.0000 C   0  0  0  0  0  0  0  0  0
   -6.0064   -0.4008    0.0000 C   0  0  0  0  0  0  0  0  0
   -0.2514   -1.9738    0.0000 C   0  0  0  0  0  0  0  0  0
    0.4630   -1.5613    0.0000 C   0  0  0  0  0  0  0  0  0
    1.1775   -1.9738    0.0000 N   0  0  0  0  0  0  0  0  0
    1.8920   -1.5613    0.0000 C   0  0  0  0  0  0  0  0  0
    1.8920   -0.7363    0.0000 O   0  0  0  0  0  0  0  0  0
    2.6064   -1.9738    0.0000 C   0  0  0  0  0  0  0  0  0
    3.3601   -1.6383    0.0000 S   0  0  0  0  0  0  0  0  0
    3.9121   -2.2514    0.0000 C   0  0  0  0  0  0  0  0  0
    3.4996   -2.9659    0.0000 C   0  0  0  0  0  0  0  0  0
    2.6927   -2.7943    0.0000 N   0  0  0  0  0  0  0  0  0
  1  2  1  0  0  0  0
  2  3  4  0  0  0  0
  2  7  4  0  0  0  0
  3  4  4  0  0  0  0
  4  5  4  0  0  0  0
  4 16  1  0  0  0  0
  5  6  4  0  0  0  0
  6  7  4  0  0  0  0
  7  8  1  0  0  0  0
  8  9  1  0  0  0  0
  9 10  1  0  0  0  0
 10 11  1  0  0  0  0
 11 12  1  0  0  0  0
 11 15  1  0  0  0  0
 12 13  1  0  0  0  0
 13 14  1  0  0  0  0
 14 15  1  0  0  0  0
 16 17  1  0  0  0  0
 17 18  1  0  0  0  0
 18 19  1  0  0  0  0
 19 20  2  0  0  0  0
 19 21  1  0  0  0  0
 21 22  4  0  0  0  0
 21 25  4  0  0  0  0
 22 23  4  0  0  0  0
 23 24  4  0  0  0  0
 24 25  4  0  0  0  0
M  END
>  <Name_Molregno>
556087

>  <HISTAMINE H3>
7.52

$$$$
556175
  Marvin  02231216192D 0   1.00000     0.00000     0

 26 28  0  0  0  0  0  0  0  0999 V2000
   -2.0080    0.5868    0.0000 Br  0  0  0  0  0  0  0  0  0
   -2.0080   -0.2382    0.0000 C   0  0  0  0  0  0  0  0  0
   -1.2935   -0.6507    0.0000 C   0  0  0  0  0  0  0  0  0
   -1.2935   -1.4757    0.0000 C   0  0  0  0  0  0  0  0  0
   -2.0080   -1.8882    0.0000 C   0  0  0  0  0  0  0  0  0
   -2.7225   -1.4757    0.0000 C   0  0  0  0  0  0  0  0  0
   -2.7225   -0.6507    0.0000 C   0  0  0  0  0  0  0  0  0
   -3.4369   -0.2382    0.0000 O   0  0  0  0  0  0  0  0  0
   -4.1514   -0.6507    0.0000 C   0  0  0  0  0  0  0  0  0
   -4.8659   -0.2382    0.0000 C   0  0  0  0  0  0  0  0  0
   -5.5803   -0.6507    0.0000 N   0  0  0  0  0  0  0  0  0
   -5.6666   -1.4711    0.0000 C   0  0  0  0  0  0  0  0  0
   -6.4735   -1.6427    0.0000 C   0  0  0  0  0  0  0  0  0
   -6.8860   -0.9282    0.0000 C   0  0  0  0  0  0  0  0  0
   -6.3340   -0.3151    0.0000 C   0  0  0  0  0  0  0  0  0
   -0.5790   -1.8882    0.0000 C   0  0  0  0  0  0  0  0  0
    0.1354   -1.4757    0.0000 C   0  0  0  0  0  0  0  0  0
    0.8499   -1.8882    0.0000 N   0  0  0  0  0  0  0  0  0
    1.5644   -1.4757    0.0000 C   0  0  0  0  0  0  0  0  0
    1.5644   -0.6507    0.0000 O   0  0  0  0  0  0  0  0  0
    2.2788   -1.8882    0.0000 C   0  0  0  0  0  0  0  0  0
    3.0325   -1.5526    0.0000 N   0  0  0  0  0  0  0  0  0
    3.5845   -2.1657    0.0000 C   0  0  0  0  0  0  0  0  0
    3.1720   -2.8802    0.0000 C   0  0  0  0  0  0  0  0  0
    2.3651   -2.7086    0.0000 C   0  0  0  0  0  0  0  0  0
    3.2040   -0.7456    0.0000 C   0  0  0  0  0  0  0  0  0
  1  2  1  0  0  0  0
  2  3  4  0  0  0  0
  2  7  4  0  0  0  0
  3  4  4  0  0  0  0
  4  5  4  0  0  0  0
  4 16  1  0  0  0  0
  5  6  4  0  0  0  0
  6  7  4  0  0  0  0
  7  8  1  0  0  0  0
  8  9  1  0  0  0  0
  9 10  1  0  0  0  0
 10 11  1  0  0  0  0
 11 12  1  0  0  0  0
 11 15  1  0  0  0  0
 12 13  1  0  0  0  0
 13 14  1  0  0  0  0
 14 15  1  0  0  0  0
 16 17  1  0  0  0  0
 17 18  1  0  0  0  0
 18 19  1  0  0  0  0
 19 20  2  0  0  0  0
 19 21  1  0  0  0  0
 21 22  4  0  0  0  0
 21 25  4  0  0  0  0
 22 23  4  0  0  0  0
 22 26  1  0  0  0  0
 23 24  4  0  0  0  0
 24 25  4  0  0  0  0
M  END
>  <Name_Molregno>
556175

>  <HISTAMINE H3>
6.89

$$$$
556181
  Marvin  02231216192D 0   1.00000     0.00000     0

 23 26  0  0  1  0  0  0  0  0999 V2000
    2.9910   -4.2721    0.0000 N   0  0  0  0  0  0  0  0  0
    3.2459   -3.4875    0.0000 C   0  0  0  0  0  0  0  0  0
    3.5009   -2.7029    0.0000 C   0  0  0  0  0  0  0  0  0
    2.9489   -2.0898    0.0000 C   0  0  0  0  0  0  0  0  0
    3.2038   -1.3052    0.0000 C   0  0  0  0  0  0  0  0  0
    4.0108   -1.1336    0.0000 C   0  0  0  0  0  0  0  0  0
    4.5628   -1.7467    0.0000 C   0  0  0  0  0  0  0  0  0
    4.3079   -2.5314    0.0000 C   0  0  0  0  0  0  0  0  0
    4.2657   -0.3490    0.0000 C   0  0  0  0  0  0  0  0  0
    3.7137    0.2641    0.0000 C   0  0  0  0  0  0  0  0  0
    3.9686    1.0487    0.0000 C   0  0  0  0  0  0  0  0  0
    4.7756    1.2202    0.0000 C   0  0  0  0  0  0  0  0  0
    5.0305    2.0048    0.0000 N   0  0  0  0  0  0  0  0  0
    5.8151    2.2598    0.0000 C   0  0  0  0  0  0  0  0  0
    5.8151    3.0848    0.0000 C   0  0  0  0  0  0  0  0  0
    5.0305    3.3397    0.0000 C   0  0  0  0  0  0  0  0  0
    4.5456    2.6723    0.0000 C   0  0  0  0  0  0  0  0  0
    6.5998    3.3397    0.0000 C   0  0  0  0  0  0  0  0  0
    7.0847    2.6723    0.0000 N   0  0  0  0  0  0  0  0  0
    6.5998    2.0048    0.0000 C   0  0  0  0  0  0  0  0  0
    7.9097    2.6723    0.0000 C   0  0  0  0  0  0  0  0  0
    5.3276    0.6071    0.0000 C   0  0  0  0  0  0  0  0  0
    5.0727   -0.1775    0.0000 C   0  0  0  0  0  0  0  0  0
  1  2  3  0  0  0  0
  2  3  1  0  0  0  0
  3  4  4  0  0  0  0
  3  8  4  0  0  0  0
  4  5  4  0  0  0  0
  5  6  4  0  0  0  0
  6  7  4  0  0  0  0
  6  9  1  0  0  0  0
  7  8  4  0  0  0  0
  9 10  4  0  0  0  0
  9 23  4  0  0  0  0
 10 11  4  0  0  0  0
 11 12  4  0  0  0  0
 12 13  1  0  0  0  0
 12 22  4  0  0  0  0
 13 14  1  0  0  0  0
 13 17  1  0  0  0  0
 14 15  1  0  0  0  0
 14 20  1  0  0  0  0
 15 16  1  0  0  0  0
 15 18  1  0  0  0  0
 16 17  1  0  0  0  0
 18 19  1  0  0  0  0
 19 20  1  0  0  0  0
 19 21  1  0  0  0  0
 22 23  4  0  0  0  0
M  END
>  <Name_Molregno>
556181

>  <HISTAMINE H3>
7.69

$$$$
556190
  Marvin  02231216192D 0   1.00000     0.00000     0

 26 29  0  0  1  0  0  0  0  0999 V2000
    3.0542   -4.2201    0.0000 N   0  0  0  0  0  0  0  0  0
    3.3091   -3.4355    0.0000 C   0  0  0  0  0  0  0  0  0
    3.5640   -2.6509    0.0000 C   0  0  0  0  0  0  0  0  0
    3.0120   -2.0378    0.0000 C   0  0  0  0  0  0  0  0  0
    3.2669   -1.2532    0.0000 C   0  0  0  0  0  0  0  0  0
    4.0739   -1.0817    0.0000 C   0  0  0  0  0  0  0  0  0
    4.6259   -1.6948    0.0000 C   0  0  0  0  0  0  0  0  0
    4.3710   -2.4794    0.0000 C   0  0  0  0  0  0  0  0  0
    4.3289   -0.2970    0.0000 C   0  0  0  0  0  0  0  0  0
    3.7768    0.3161    0.0000 C   0  0  0  0  0  0  0  0  0
    4.0318    1.1007    0.0000 C   0  0  0  0  0  0  0  0  0
    4.8387    1.2722    0.0000 C   0  0  0  0  0  0  0  0  0
    5.0937    2.0568    0.0000 N   0  0  0  0  0  0  0  0  0
    5.8783    2.3118    0.0000 C   0  0  0  0  0  0  0  0  0
    5.8783    3.1368    0.0000 C   0  0  0  0  0  0  0  0  0
    5.0937    3.3917    0.0000 C   0  0  0  0  0  0  0  0  0
    4.6087    2.7243    0.0000 C   0  0  0  0  0  0  0  0  0
    6.6629    3.3917    0.0000 C   0  0  0  0  0  0  0  0  0
    7.1478    2.7243    0.0000 N   0  0  0  0  0  0  0  0  0
    6.6629    2.0568    0.0000 C   0  0  0  0  0  0  0  0  0
    7.9728    2.7243    0.0000 C   0  0  0  0  0  0  0  0  0
    8.3853    2.0098    0.0000 C   0  0  0  0  0  0  0  0  0
    9.2103    2.0098    0.0000 C   0  0  0  0  0  0  0  0  0
    7.9728    1.2953    0.0000 C   0  0  0  0  0  0  0  0  0
    5.3908    0.6591    0.0000 C   0  0  0  0  0  0  0  0  0
    5.1358   -0.1255    0.0000 C   0  0  0  0  0  0  0  0  0
  1  2  3  0  0  0  0
  2  3  1  0  0  0  0
  3  4  4  0  0  0  0
  3  8  4  0  0  0  0
  4  5  4  0  0  0  0
  5  6  4  0  0  0  0
  6  7  4  0  0  0  0
  6  9  1  0  0  0  0
  7  8  4  0  0  0  0
  9 10  4  0  0  0  0
  9 26  4  0  0  0  0
 10 11  4  0  0  0  0
 11 12  4  0  0  0  0
 12 13  1  0  0  0  0
 12 25  4  0  0  0  0
 13 14  1  0  0  0  0
 13 17  1  0  0  0  0
 14 15  1  0  0  0  0
 14 20  1  0  0  0  0
 15 16  1  0  0  0  0
 15 18  1  0  0  0  0
 16 17  1  0  0  0  0
 18 19  1  0  0  0  0
 19 20  1  0  0  0  0
 19 21  1  0  0  0  0
 21 22  1  0  0  0  0
 22 23  1  0  0  0  0
 22 24  1  0  0  0  0
 25 26  4  0  0  0  0
M  END
>  <Name_Molregno>
556190

>  <HISTAMINE H3>
6.64

$$$$
556191
  Marvin  02231216192D 0   1.00000     0.00000     0

 24 25  0  0  0  0  0  0  0  0999 V2000
   -2.9277   -0.3552    0.0000 Br  0  0  0  0  0  0  0  0  0
   -2.9277   -1.1802    0.0000 C   0  0  0  0  0  0  0  0  0
   -2.2132   -1.5927    0.0000 C   0  0  0  0  0  0  0  0  0
   -2.2132   -2.4177    0.0000 C   0  0  0  0  0  0  0  0  0
   -2.9277   -2.8302    0.0000 C   0  0  0  0  0  0  0  0  0
   -3.6421   -2.4177    0.0000 C   0  0  0  0  0  0  0  0  0
   -3.6421   -1.5927    0.0000 C   0  0  0  0  0  0  0  0  0
   -4.3566   -1.1802    0.0000 O   0  0  0  0  0  0  0  0  0
   -5.0711   -1.5927    0.0000 C   0  0  0  0  0  0  0  0  0
   -5.7856   -1.1802    0.0000 C   0  0  0  0  0  0  0  0  0
   -6.5000   -1.5927    0.0000 N   0  0  0  0  0  0  0  0  0
   -7.2145   -1.1802    0.0000 C   0  0  0  0  0  0  0  0  0
   -6.5000   -2.4177    0.0000 C   0  0  0  0  0  0  0  0  0
   -1.4987   -2.8302    0.0000 C   0  0  0  0  0  0  0  0  0
   -0.7843   -2.4177    0.0000 C   0  0  0  0  0  0  0  0  0
   -0.0698   -2.8302    0.0000 N   0  0  0  0  0  0  0  0  0
    0.6447   -2.4177    0.0000 C   0  0  0  0  0  0  0  0  0
    0.6447   -1.5927    0.0000 O   0  0  0  0  0  0  0  0  0
    1.3592   -2.8302    0.0000 C   0  0  0  0  0  0  0  0  0
    2.1128   -2.4947    0.0000 O   0  0  0  0  0  0  0  0  0
    2.6649   -3.1078    0.0000 C   0  0  0  0  0  0  0  0  0
    3.4853   -3.0215    0.0000 Br  0  0  0  0  0  0  0  0  0
    2.2524   -3.8223    0.0000 C   0  0  0  0  0  0  0  0  0
    1.4454   -3.6507    0.0000 C   0  0  0  0  0  0  0  0  0
  1  2  1  0  0  0  0
  2  3  4  0  0  0  0
  2  7  4  0  0  0  0
  3  4  4  0  0  0  0
  4  5  4  0  0  0  0
  4 14  1  0  0  0  0
  5  6  4  0  0  0  0
  6  7  4  0  0  0  0
  7  8  1  0  0  0  0
  8  9  1  0  0  0  0
  9 10  1  0  0  0  0
 10 11  1  0  0  0  0
 11 12  1  0  0  0  0
 11 13  1  0  0  0  0
 14 15  1  0  0  0  0
 15 16  1  0  0  0  0
 16 17  1  0  0  0  0
 17 18  2  0  0  0  0
 17 19  1  0  0  0  0
 19 20  4  0  0  0  0
 19 24  4  0  0  0  0
 20 21  4  0  0  0  0
 21 22  1  0  0  0  0
 21 23  4  0  0  0  0
 23 24  4  0  0  0  0
M  END
>  <Name_Molregno>
556191

>  <HISTAMINE H3>
5.57

$$$$
556199
  Marvin  02231216192D 0   1.00000     0.00000     0

 22 25  0  0  1  0  0  0  0  0999 V2000
    1.1528   -3.0609    0.0000 N   0  0  0  0  0  0  0  0  0
    1.7361   -2.4775    0.0000 C   0  0  0  0  0  0  0  0  0
    2.3195   -1.8942    0.0000 C   0  0  0  0  0  0  0  0  0
    2.1060   -1.0973    0.0000 C   0  0  0  0  0  0  0  0  0
    2.6893   -0.5139    0.0000 C   0  0  0  0  0  0  0  0  0
    3.4862   -0.7274    0.0000 C   0  0  0  0  0  0  0  0  0
    3.6998   -1.5243    0.0000 C   0  0  0  0  0  0  0  0  0
    3.1164   -2.1077    0.0000 C   0  0  0  0  0  0  0  0  0
    4.0696   -0.1441    0.0000 C   0  0  0  0  0  0  0  0  0
    3.8561    0.6528    0.0000 C   0  0  0  0  0  0  0  0  0
    4.4394    1.2362    0.0000 C   0  0  0  0  0  0  0  0  0
    5.2363    1.0227    0.0000 C   0  0  0  0  0  0  0  0  0
    5.8197    1.6060    0.0000 N   0  0  0  0  0  0  0  0  0
    6.6447    1.6060    0.0000 C   0  0  0  0  0  0  0  0  0
    6.6447    2.4310    0.0000 C   0  0  0  0  0  0  0  0  0
    5.8197    2.4310    0.0000 C   0  0  0  0  0  0  0  0  0
    7.4293    2.6860    0.0000 C   0  0  0  0  0  0  0  0  0
    7.9142    2.0185    0.0000 N   0  0  0  0  0  0  0  0  0
    7.4293    1.3511    0.0000 C   0  0  0  0  0  0  0  0  0
    8.7392    2.0185    0.0000 C   0  0  0  0  0  0  0  0  0
    5.4498    0.2258    0.0000 C   0  0  0  0  0  0  0  0  0
    4.8665   -0.3576    0.0000 C   0  0  0  0  0  0  0  0  0
  1  2  3  0  0  0  0
  2  3  1  0  0  0  0
  3  4  4  0  0  0  0
  3  8  4  0  0  0  0
  4  5  4  0  0  0  0
  5  6  4  0  0  0  0
  6  7  4  0  0  0  0
  6  9  1  0  0  0  0
  7  8  4  0  0  0  0
  9 10  4  0  0  0  0
  9 22  4  0  0  0  0
 10 11  4  0  0  0  0
 11 12  4  0  0  0  0
 12 13  1  0  0  0  0
 12 21  4  0  0  0  0
 13 14  1  0  0  0  0
 13 16  1  0  0  0  0
 14 15  1  0  0  0  0
 14 19  1  0  0  0  0
 15 16  1  0  0  0  0
 15 17  1  0  0  0  0
 17 18  1  0  0  0  0
 18 19  1  0  0  0  0
 18 20  1  0  0  0  0
 21 22  4  0  0  0  0
M  END
>  <Name_Molregno>
556199

>  <HISTAMINE H3>
7.04

$$$$
556200
  Marvin  02231216192D 0   1.00000     0.00000     0

 27 29  0  0  1  0  0  0  0  0999 V2000
   -3.6368    0.1379    0.0000 Br  0  0  0  0  0  0  0  0  0
   -2.9223   -0.2746    0.0000 C   0  0  0  0  0  0  0  0  0
   -2.2079    0.1379    0.0000 C   0  0  0  0  0  0  0  0  0
   -1.4934   -0.2746    0.0000 C   0  0  0  0  0  0  0  0  0
   -1.4934   -1.0996    0.0000 C   0  0  0  0  0  0  0  0  0
   -2.2079   -1.5121    0.0000 C   0  0  0  0  0  0  0  0  0
   -2.9223   -1.0996    0.0000 C   0  0  0  0  0  0  0  0  0
   -3.6368   -1.5121    0.0000 O   0  0  0  0  0  0  0  0  0
   -3.6368   -2.3371    0.0000 C   0  0  0  0  0  0  0  0  0
   -4.3513   -2.7496    0.0000 C   0  0  0  0  0  0  0  0  0
   -4.3513   -3.5746    0.0000 N   0  0  0  0  0  0  0  0  0
   -3.6838   -4.0595    0.0000 C   0  0  0  0  0  0  0  0  0
   -3.9388   -4.8441    0.0000 C   0  0  0  0  0  0  0  0  0
   -3.4539   -5.5116    0.0000 F   0  0  0  0  0  0  0  0  0
   -4.7638   -4.8441    0.0000 C   0  0  0  0  0  0  0  0  0
   -5.0187   -4.0595    0.0000 C   0  0  0  0  0  0  0  0  0
   -0.7789    0.1379    0.0000 C   0  0  0  0  0  0  0  0  0
   -0.0645   -0.2746    0.0000 C   0  0  0  0  0  0  0  0  0
    0.6500    0.1379    0.0000 N   0  0  0  0  0  0  0  0  0
    1.3645   -0.2746    0.0000 C   0  0  0  0  0  0  0  0  0
    1.3645   -1.0996    0.0000 O   0  0  0  0  0  0  0  0  0
    2.0790    0.1379    0.0000 C   0  0  0  0  0  0  0  0  0
    2.1652    0.9584    0.0000 S   0  0  0  0  0  0  0  0  0
    2.9722    1.1299    0.0000 C   0  0  0  0  0  0  0  0  0
    3.3847    0.4155    0.0000 C   0  0  0  0  0  0  0  0  0
    4.2051    0.3292    0.0000 Br  0  0  0  0  0  0  0  0  0
    2.8326   -0.1976    0.0000 C   0  0  0  0  0  0  0  0  0
  1  2  1  0  0  0  0
  2  3  4  0  0  0  0
  2  7  4  0  0  0  0
  3  4  4  0  0  0  0
  4  5  4  0  0  0  0
  4 17  1  0  0  0  0
  5  6  4  0  0  0  0
  6  7  4  0  0  0  0
  7  8  1  0  0  0  0
  8  9  1  0  0  0  0
  9 10  1  0  0  0  0
 10 11  1  0  0  0  0
 11 12  1  0  0  0  0
 11 16  1  0  0  0  0
 12 13  1  0  0  0  0
 13 14  1  0  0  0  0
 13 15  1  0  0  0  0
 15 16  1  0  0  0  0
 17 18  1  0  0  0  0
 18 19  1  0  0  0  0
 19 20  1  0  0  0  0
 20 21  2  0  0  0  0
 20 22  1  0  0  0  0
 22 23  4  0  0  0  0
 22 27  4  0  0  0  0
 23 24  4  0  0  0  0
 24 25  4  0  0  0  0
 25 26  1  0  0  0  0
 25 27  4  0  0  0  0
M  END
>  <Name_Molregno>
556200

>  <HISTAMINE H3>
5.95

$$$$
556598
  Marvin  02231216192D 0   1.00000     0.00000     0

 20 21  0  0  0  0  0  0  0  0999 V2000
   -0.1733   -2.3952    0.0000 Br  0  0  0  0  0  0  0  0  0
    0.5412   -1.9827    0.0000 C   0  0  0  0  0  0  0  0  0
    0.5412   -1.1577    0.0000 C   0  0  0  0  0  0  0  0  0
    1.2557   -0.7452    0.0000 C   0  0  0  0  0  0  0  0  0
    1.9702   -1.1577    0.0000 C   0  0  0  0  0  0  0  0  0
    1.9702   -1.9827    0.0000 C   0  0  0  0  0  0  0  0  0
    1.2557   -2.3952    0.0000 C   0  0  0  0  0  0  0  0  0
    2.6846   -0.7452    0.0000 C   0  0  0  0  0  0  0  0  0
    3.3991   -1.1577    0.0000 N   0  0  0  0  0  0  0  0  0
    4.1136   -0.7452    0.0000 C   0  0  0  0  0  0  0  0  0
    4.8280   -1.1577    0.0000 S   0  0  0  0  0  0  0  0  0
    5.5425   -0.7452    0.0000 C   0  0  0  0  0  0  0  0  0
    6.2570   -1.1577    0.0000 C   0  0  0  0  0  0  0  0  0
    6.9715   -0.7452    0.0000 C   0  0  0  0  0  0  0  0  0
    7.6859   -1.1577    0.0000 C   0  0  0  0  0  0  0  0  0
    8.4396   -0.8222    0.0000 N   0  0  0  0  0  0  0  0  0
    8.9916   -1.4353    0.0000 C   0  0  0  0  0  0  0  0  0
    8.5791   -2.1497    0.0000 N   0  0  0  0  0  0  0  0  0
    7.7722   -1.9782    0.0000 C   0  0  0  0  0  0  0  0  0
    4.1136    0.0798    0.0000 N   0  0  0  0  0  0  0  0  0
  1  2  1  0  0  0  0
  2  3  4  0  0  0  0
  2  7  4  0  0  0  0
  3  4  4  0  0  0  0
  4  5  4  0  0  0  0
  5  6  4  0  0  0  0
  5  8  1  0  0  0  0
  6  7  4  0  0  0  0
  8  9  1  0  0  0  0
  9 10  1  0  0  0  0
 10 11  1  0  0  0  0
 10 20  2  0  0  0  0
 11 12  1  0  0  0  0
 12 13  1  0  0  0  0
 13 14  1  0  0  0  0
 14 15  1  0  0  0  0
 15 16  4  0  0  0  0
 15 19  4  0  0  0  0
 16 17  4  0  0  0  0
 17 18  4  0  0  0  0
 18 19  4  0  0  0  0
M  STY  1   1 DAT
M  SAL   1  1  18
M  SDT   1 MRV_IMPLICIT_H                                        
M  SDD   1     0.0000    0.0000    DR    ALL  0       0  
M  SED   1 IMPL_H1
M  END
>  <Name_Molregno>
556598

>  <HISTAMINE H3>
8.6

>  <HISTAMINE H4>
8

$$$$
557539
  Marvin  02231216192D 0   1.00000     0.00000     0

 29 32  0  0  0  0  0  0  0  0999 V2000
   -3.1104   -0.0079    0.0000 O   0  0  0  0  0  0  0  0  0
   -3.8249    0.4046    0.0000 C   0  0  0  0  0  0  0  0  0
   -4.5394   -0.0079    0.0000 C   0  0  0  0  0  0  0  0  0
   -5.2538    0.4046    0.0000 C   0  0  0  0  0  0  0  0  0
   -5.9683   -0.0079    0.0000 N   0  0  0  0  0  0  0  0  0
   -5.9683   -0.8329    0.0000 C   0  0  0  0  0  0  0  0  0
   -6.6828   -1.2454    0.0000 C   0  0  0  0  0  0  0  0  0
   -7.3972   -0.8329    0.0000 C   0  0  0  0  0  0  0  0  0
   -7.3972   -0.0079    0.0000 C   0  0  0  0  0  0  0  0  0
   -6.6828    0.4046    0.0000 C   0  0  0  0  0  0  0  0  0
   -2.3960    0.4046    0.0000 C   0  0  0  0  0  0  0  0  0
   -1.6815   -0.0079    0.0000 C   0  0  0  0  0  0  0  0  0
   -0.9670    0.4046    0.0000 C   0  0  0  0  0  0  0  0  0
   -0.9670    1.2296    0.0000 C   0  0  0  0  0  0  0  0  0
   -0.2525    1.6421    0.0000 N   0  0  0  0  0  0  0  0  0
    0.4619    1.2296    0.0000 C   0  0  0  0  0  0  0  0  0
    0.4619    0.4046    0.0000 C   0  0  0  0  0  0  0  0  0
   -0.2525   -0.0079    0.0000 C   0  0  0  0  0  0  0  0  0
    1.1764    1.6421    0.0000 C   0  0  0  0  0  0  0  0  0
    1.1764    2.4671    0.0000 O   0  0  0  0  0  0  0  0  0
    1.8909    1.2296    0.0000 N   0  0  0  0  0  0  0  0  0
    2.6053    1.6421    0.0000 C   0  0  0  0  0  0  0  0  0
    3.3198    1.2296    0.0000 C   0  0  0  0  0  0  0  0  0
    3.3198    0.4046    0.0000 C   0  0  0  0  0  0  0  0  0
    2.6053   -0.0079    0.0000 C   0  0  0  0  0  0  0  0  0
    1.8909    0.4046    0.0000 C   0  0  0  0  0  0  0  0  0
    4.0343   -0.0079    0.0000 C   0  0  0  0  0  0  0  0  0
   -1.6815    1.6421    0.0000 C   0  0  0  0  0  0  0  0  0
   -2.3960    1.2296    0.0000 C   0  0  0  0  0  0  0  0  0
  1  2  1  0  0  0  0
  1 11  1  0  0  0  0
  2  3  1  0  0  0  0
  3  4  1  0  0  0  0
  4  5  1  0  0  0  0
  5  6  1  0  0  0  0
  5 10  1  0  0  0  0
  6  7  1  0  0  0  0
  7  8  1  0  0  0  0
  8  9  1  0  0  0  0
  9 10  1  0  0  0  0
 11 12  4  0  0  0  0
 11 29  4  0  0  0  0
 12 13  4  0  0  0  0
 13 14  4  0  0  0  0
 13 18  4  0  0  0  0
 14 15  4  0  0  0  0
 14 28  4  0  0  0  0
 15 16  4  0  0  0  0
 16 17  4  0  0  0  0
 16 19  1  0  0  0  0
 17 18  4  0  0  0  0
 19 20  2  0  0  0  0
 19 21  1  0  0  0  0
 21 22  1  0  0  0  0
 21 26  1  0  0  0  0
 22 23  1  0  0  0  0
 23 24  1  0  0  0  0
 24 25  1  0  0  0  0
 24 27  1  0  0  0  0
 25 26  1  0  0  0  0
 28 29  4  0  0  0  0
M  END
>  <Name_Molregno>
557539

>  <HISTAMINE H3>
6.52

$$$$
557540
  Marvin  02231216192D 0   1.00000     0.00000     0

 30 33  0  0  0  0  0  0  0  0999 V2000
   -4.0495   -0.0386    0.0000 O   0  0  0  0  0  0  0  0  0
   -4.7640    0.3739    0.0000 C   0  0  0  0  0  0  0  0  0
   -5.4785   -0.0386    0.0000 C   0  0  0  0  0  0  0  0  0
   -6.1930    0.3739    0.0000 C   0  0  0  0  0  0  0  0  0
   -6.1930    1.1989    0.0000 N   0  0  0  0  0  0  0  0  0
   -5.4785    1.6114    0.0000 C   0  0  0  0  0  0  0  0  0
   -4.7640    1.1989    0.0000 C   0  0  0  0  0  0  0  0  0
   -6.9074    1.6114    0.0000 C   0  0  0  0  0  0  0  0  0
   -6.9074    2.4364    0.0000 C   0  0  0  0  0  0  0  0  0
   -7.6219    1.1989    0.0000 C   0  0  0  0  0  0  0  0  0
   -3.3351    0.3739    0.0000 C   0  0  0  0  0  0  0  0  0
   -2.6206   -0.0386    0.0000 C   0  0  0  0  0  0  0  0  0
   -1.9061    0.3739    0.0000 C   0  0  0  0  0  0  0  0  0
   -1.9061    1.1989    0.0000 C   0  0  0  0  0  0  0  0  0
   -1.1917    1.6114    0.0000 N   0  0  0  0  0  0  0  0  0
   -0.4772    1.1989    0.0000 C   0  0  0  0  0  0  0  0  0
   -0.4772    0.3739    0.0000 C   0  0  0  0  0  0  0  0  0
   -1.1917   -0.0386    0.0000 C   0  0  0  0  0  0  0  0  0
    0.2373    1.6114    0.0000 C   0  0  0  0  0  0  0  0  0
    0.2373    2.4364    0.0000 O   0  0  0  0  0  0  0  0  0
    0.9518    1.1989    0.0000 N   0  0  0  0  0  0  0  0  0
    1.6662    1.6114    0.0000 C   0  0  0  0  0  0  0  0  0
    2.3807    1.1989    0.0000 C   0  0  0  0  0  0  0  0  0
    2.3807    0.3739    0.0000 C   0  0  0  0  0  0  0  0  0
    3.0952   -0.0386    0.0000 O   0  0  0  0  0  0  0  0  0
    3.8096    0.3739    0.0000 C   0  0  0  0  0  0  0  0  0
    1.6662   -0.0386    0.0000 C   0  0  0  0  0  0  0  0  0
    0.9518    0.3739    0.0000 C   0  0  0  0  0  0  0  0  0
   -2.6206    1.6114    0.0000 C   0  0  0  0  0  0  0  0  0
   -3.3351    1.1989    0.0000 C   0  0  0  0  0  0  0  0  0
  1  2  1  0  0  0  0
  1 11  1  0  0  0  0
  2  3  1  0  0  0  0
  2  7  1  0  0  0  0
  3  4  1  0  0  0  0
  4  5  1  0  0  0  0
  5  6  1  0  0  0  0
  5  8  1  0  0  0  0
  6  7  1  0  0  0  0
  8  9  1  0  0  0  0
  8 10  1  0  0  0  0
 11 12  4  0  0  0  0
 11 30  4  0  0  0  0
 12 13  4  0  0  0  0
 13 14  4  0  0  0  0
 13 18  4  0  0  0  0
 14 15  4  0  0  0  0
 14 29  4  0  0  0  0
 15 16  4  0  0  0  0
 16 17  4  0  0  0  0
 16 19  1  0  0  0  0
 17 18  4  0  0  0  0
 19 20  2  0  0  0  0
 19 21  1  0  0  0  0
 21 22  1  0  0  0  0
 21 28  1  0  0  0  0
 22 23  1  0  0  0  0
 23 24  1  0  0  0  0
 24 25  1  0  0  0  0
 24 27  1  0  0  0  0
 25 26  1  0  0  0  0
 27 28  1  0  0  0  0
 29 30  4  0  0  0  0
M  END
>  <Name_Molregno>
557540

>  <HISTAMINE H3>
6.9

$$$$
557784
  Marvin  02231216192D 0   1.00000     0.00000     0

 21 24  0  0  1  0  0  0  0  0999 V2000
   -1.5082    0.9471    0.0000 N   0  0  0  0  0  0  0  0  0
   -0.7236    1.2020    0.0000 C   0  0  0  0  0  0  0  0  0
   -0.7236    2.0270    0.0000 C   0  0  0  0  0  0  0  0  0
   -1.5082    2.2820    0.0000 C   0  0  0  0  0  0  0  0  0
   -1.9931    1.6145    0.0000 C   0  0  0  0  0  0  0  0  0
    0.0610    2.2820    0.0000 C   0  0  0  0  0  0  0  0  0
    0.5460    1.6145    0.0000 N   0  0  0  0  0  0  0  0  0
    0.0610    0.9471    0.0000 C   0  0  0  0  0  0  0  0  0
    1.3710    1.6145    0.0000 C   0  0  0  0  0  0  0  0  0
   -1.7631    0.1625    0.0000 C   0  0  0  0  0  0  0  0  0
   -1.2111   -0.4506    0.0000 C   0  0  0  0  0  0  0  0  0
   -1.4660   -1.2352    0.0000 C   0  0  0  0  0  0  0  0  0
   -2.2730   -1.4068    0.0000 C   0  0  0  0  0  0  0  0  0
   -2.8251   -0.7937    0.0000 C   0  0  0  0  0  0  0  0  0
   -2.5701   -0.0091    0.0000 C   0  0  0  0  0  0  0  0  0
   -0.9140   -1.8483    0.0000 C   0  0  0  0  0  0  0  0  0
   -0.1070   -1.6768    0.0000 C   0  0  0  0  0  0  0  0  0
    0.4450   -2.2899    0.0000 C   0  0  0  0  0  0  0  0  0
    0.1901   -3.0745    0.0000 C   0  0  0  0  0  0  0  0  0
   -0.6169   -3.2461    0.0000 C   0  0  0  0  0  0  0  0  0
   -1.1690   -2.6330    0.0000 C   0  0  0  0  0  0  0  0  0
  1  2  1  0  0  0  0
  1  5  1  0  0  0  0
  1 10  1  0  0  0  0
  2  3  1  0  0  0  0
  2  8  1  0  0  0  0
  3  4  1  0  0  0  0
  3  6  1  0  0  0  0
  4  5  1  0  0  0  0
  6  7  1  0  0  0  0
  7  8  1  0  0  0  0
  7  9  1  0  0  0  0
 10 11  4  0  0  0  0
 10 15  4  0  0  0  0
 11 12  4  0  0  0  0
 12 13  4  0  0  0  0
 12 16  1  0  0  0  0
 13 14  4  0  0  0  0
 14 15  4  0  0  0  0
 16 17  4  0  0  0  0
 16 21  4  0  0  0  0
 17 18  4  0  0  0  0
 18 19  4  0  0  0  0
 19 20  4  0  0  0  0
 20 21  4  0  0  0  0
M  END
>  <Name_Molregno>
557784

>  <HISTAMINE H3>
6.29

$$$$
557790
  Marvin  02231216192D 0   1.00000     0.00000     0

 23 26  0  0  1  0  0  0  0  0999 V2000
    0.3350   -0.6546    0.0000 N   0  0  0  0  0  0  0  0  0
    1.1420   -0.4831    0.0000 C   0  0  0  0  0  0  0  0  0
    1.9490   -0.3116    0.0000 C   0  0  0  0  0  0  0  0  0
    2.2039    0.4731    0.0000 C   0  0  0  0  0  0  0  0  0
    3.0109    0.6446    0.0000 C   0  0  0  0  0  0  0  0  0
    3.5629    0.0315    0.0000 C   0  0  0  0  0  0  0  0  0
    3.3080   -0.7531    0.0000 C   0  0  0  0  0  0  0  0  0
    2.5010   -0.9247    0.0000 C   0  0  0  0  0  0  0  0  0
    3.2658    1.4292    0.0000 C   0  0  0  0  0  0  0  0  0
    2.7138    2.0423    0.0000 C   0  0  0  0  0  0  0  0  0
    2.9687    2.8269    0.0000 C   0  0  0  0  0  0  0  0  0
    3.7757    2.9984    0.0000 C   0  0  0  0  0  0  0  0  0
    4.0307    3.7831    0.0000 N   0  0  0  0  0  0  0  0  0
    4.8153    4.0380    0.0000 C   0  0  0  0  0  0  0  0  0
    4.8153    4.8630    0.0000 C   0  0  0  0  0  0  0  0  0
    4.0307    5.1179    0.0000 C   0  0  0  0  0  0  0  0  0
    3.5457    4.4505    0.0000 C   0  0  0  0  0  0  0  0  0
    5.5999    5.1179    0.0000 C   0  0  0  0  0  0  0  0  0
    6.0848    4.4505    0.0000 N   0  0  0  0  0  0  0  0  0
    5.5999    3.7831    0.0000 C   0  0  0  0  0  0  0  0  0
    6.9098    4.4505    0.0000 C   0  0  0  0  0  0  0  0  0
    4.3277    2.3853    0.0000 C   0  0  0  0  0  0  0  0  0
    4.0728    1.6007    0.0000 C   0  0  0  0  0  0  0  0  0
  1  2  3  0  0  0  0
  2  3  1  0  0  0  0
  3  4  4  0  0  0  0
  3  8  4  0  0  0  0
  4  5  4  0  0  0  0
  5  6  4  0  0  0  0
  5  9  1  0  0  0  0
  6  7  4  0  0  0  0
  7  8  4  0  0  0  0
  9 10  4  0  0  0  0
  9 23  4  0  0  0  0
 10 11  4  0  0  0  0
 11 12  4  0  0  0  0
 12 13  1  0  0  0  0
 12 22  4  0  0  0  0
 13 14  1  0  0  0  0
 13 17  1  0  0  0  0
 14 15  1  0  0  0  0
 14 20  1  0  0  0  0
 15 16  1  0  0  0  0
 15 18  1  0  0  0  0
 16 17  1  0  0  0  0
 18 19  1  0  0  0  0
 19 20  1  0  0  0  0
 19 21  1  0  0  0  0
 22 23  4  0  0  0  0
M  END
>  <Name_Molregno>
557790

>  <HISTAMINE H3>
8.31

$$$$
557864
  Marvin  02231216192D 0   1.00000     0.00000     0

 26 28  0  0  0  0  0  0  0  0999 V2000
   -3.9401    0.0927    0.0000 Br  0  0  0  0  0  0  0  0  0
   -3.2256   -0.3198    0.0000 C   0  0  0  0  0  0  0  0  0
   -2.5112    0.0927    0.0000 C   0  0  0  0  0  0  0  0  0
   -1.7967   -0.3198    0.0000 C   0  0  0  0  0  0  0  0  0
   -1.7967   -1.1448    0.0000 C   0  0  0  0  0  0  0  0  0
   -2.5112   -1.5573    0.0000 C   0  0  0  0  0  0  0  0  0
   -3.2256   -1.1448    0.0000 C   0  0  0  0  0  0  0  0  0
   -3.9401   -1.5573    0.0000 O   0  0  0  0  0  0  0  0  0
   -3.9401   -2.3823    0.0000 C   0  0  0  0  0  0  0  0  0
   -4.6546   -2.7948    0.0000 C   0  0  0  0  0  0  0  0  0
   -4.6546   -3.6198    0.0000 N   0  0  0  0  0  0  0  0  0
   -3.9871   -4.1047    0.0000 C   0  0  0  0  0  0  0  0  0
   -4.2421   -4.8893    0.0000 C   0  0  0  0  0  0  0  0  0
   -5.0671   -4.8893    0.0000 C   0  0  0  0  0  0  0  0  0
   -5.3220   -4.1047    0.0000 C   0  0  0  0  0  0  0  0  0
   -1.0822    0.0927    0.0000 C   0  0  0  0  0  0  0  0  0
   -0.3678   -0.3198    0.0000 C   0  0  0  0  0  0  0  0  0
    0.3467    0.0927    0.0000 N   0  0  0  0  0  0  0  0  0
    1.0612   -0.3198    0.0000 C   0  0  0  0  0  0  0  0  0
    1.0612   -1.1448    0.0000 O   0  0  0  0  0  0  0  0  0
    1.7757    0.0927    0.0000 C   0  0  0  0  0  0  0  0  0
    1.8619    0.9132    0.0000 N   0  0  0  0  0  0  0  0  0
    2.6689    1.0847    0.0000 C   0  0  0  0  0  0  0  0  0
    3.0814    0.3703    0.0000 C   0  0  0  0  0  0  0  0  0
    3.9018    0.2840    0.0000 Br  0  0  0  0  0  0  0  0  0
    2.5293   -0.2428    0.0000 C   0  0  0  0  0  0  0  0  0
  1  2  1  0  0  0  0
  2  3  4  0  0  0  0
  2  7  4  0  0  0  0
  3  4  4  0  0  0  0
  4  5  4  0  0  0  0
  4 16  1  0  0  0  0
  5  6  4  0  0  0  0
  6  7  4  0  0  0  0
  7  8  1  0  0  0  0
  8  9  1  0  0  0  0
  9 10  1  0  0  0  0
 10 11  1  0  0  0  0
 11 12  1  0  0  0  0
 11 15  1  0  0  0  0
 12 13  1  0  0  0  0
 13 14  1  0  0  0  0
 14 15  1  0  0  0  0
 16 17  1  0  0  0  0
 17 18  1  0  0  0  0
 18 19  1  0  0  0  0
 19 20  2  0  0  0  0
 19 21  1  0  0  0  0
 21 22  4  0  0  0  0
 21 26  4  0  0  0  0
 22 23  4  0  0  0  0
 23 24  4  0  0  0  0
 24 25  1  0  0  0  0
 24 26  4  0  0  0  0
M  STY  1   1 DAT
M  SAL   1  1  22
M  SDT   1 MRV_IMPLICIT_H                                        
M  SDD   1     0.0000    0.0000    DR    ALL  0       0  
M  SED   1 IMPL_H1
M  END
>  <Name_Molregno>
557864

>  <HISTAMINE H3>
6.72

$$$$
557877
  Marvin  02231216192D 0   1.00000     0.00000     0

 26 30  0  0  1  0  0  0  0  0999 V2000
    8.0106   -0.3816    0.0000 O   0  0  0  0  0  0  0  0  0
    7.2606   -0.7253    0.0000 C   0  0  0  0  0  0  0  0  0
    7.1832   -1.5466    0.0000 C   0  0  0  0  0  0  0  0  0
    6.5880   -0.2476    0.0000 C   0  0  0  0  0  0  0  0  0
    5.8380   -0.5913    0.0000 C   0  0  0  0  0  0  0  0  0
    5.1654   -0.1136    0.0000 C   0  0  0  0  0  0  0  0  0
    5.2427    0.7078    0.0000 C   0  0  0  0  0  0  0  0  0
    5.9927    1.0515    0.0000 C   0  0  0  0  0  0  0  0  0
    6.6654    0.5738    0.0000 C   0  0  0  0  0  0  0  0  0
    4.4153   -0.4572    0.0000 C   0  0  0  0  0  0  0  0  0
    3.7427    0.0205    0.0000 C   0  0  0  0  0  0  0  0  0
    2.9927   -0.3232    0.0000 C   0  0  0  0  0  0  0  0  0
    2.3201    0.1545    0.0000 C   0  0  0  0  0  0  0  0  0
    1.5701   -0.1892    0.0000 C   0  0  0  0  0  0  0  0  0
    1.4927   -1.0106    0.0000 C   0  0  0  0  0  0  0  0  0
    2.1653   -1.4883    0.0000 C   0  0  0  0  0  0  0  0  0
    1.9189   -2.2756    0.0000 C   0  0  0  0  0  0  0  0  0
    1.0939   -2.2845    0.0000 C   0  0  0  0  0  0  0  0  0
    0.8305   -1.5027    0.0000 C   0  0  0  0  0  0  0  0  0
    0.1579   -1.0250    0.0000 C   0  0  0  0  0  0  0  0  0
    0.4043   -0.2376    0.0000 N   0  0  0  0  0  0  0  0  0
    1.2293   -0.2287    0.0000 C   0  0  0  0  0  0  0  0  0
   -0.0878    0.4245    0.0000 C   0  0  0  0  0  0  0  0  0
    2.9153   -1.1446    0.0000 C   0  0  0  0  0  0  0  0  0
    3.5880   -1.6223    0.0000 C   0  0  0  0  0  0  0  0  0
    4.3380   -1.2786    0.0000 C   0  0  0  0  0  0  0  0  0
  1  2  2  0  0  0  0
  2  3  1  0  0  0  0
  2  4  1  0  0  0  0
  4  5  4  0  0  0  0
  4  9  4  0  0  0  0
  5  6  4  0  0  0  0
  6  7  4  0  0  0  0
  6 10  1  0  0  0  0
  7  8  4  0  0  0  0
  8  9  4  0  0  0  0
 10 11  4  0  0  0  0
 10 26  4  0  0  0  0
 11 12  4  0  0  0  0
 12 13  1  0  0  0  0
 12 24  4  0  0  0  0
 13 14  1  0  0  0  0
 14 15  1  0  0  0  0
 15 16  1  0  0  0  0
 15 19  1  0  0  0  0
 15 22  1  0  0  0  0
 16 17  1  0  0  0  0
 16 24  1  0  0  0  0
 17 18  1  0  0  0  0
 18 19  1  0  0  0  0
 19 20  1  0  0  0  0
 20 21  1  0  0  0  0
 21 22  1  0  0  0  0
 21 23  1  0  0  0  0
 24 25  4  0  0  0  0
 25 26  4  0  0  0  0
M  END
>  <Name_Molregno>
557877

>  <HISTAMINE H3>
7.38

$$$$
557905
  Marvin  02231216192D 0   1.00000     0.00000     0

 24 25  0  0  0  0  0  0  0  0999 V2000
   -4.5650   -1.1877    0.0000 Br  0  0  0  0  0  0  0  0  0
   -3.8505   -1.6002    0.0000 C   0  0  0  0  0  0  0  0  0
   -3.1361   -1.1877    0.0000 C   0  0  0  0  0  0  0  0  0
   -2.4216   -1.6002    0.0000 C   0  0  0  0  0  0  0  0  0
   -2.4216   -2.4252    0.0000 C   0  0  0  0  0  0  0  0  0
   -3.1361   -2.8377    0.0000 C   0  0  0  0  0  0  0  0  0
   -3.8505   -2.4252    0.0000 C   0  0  0  0  0  0  0  0  0
   -4.5650   -2.8377    0.0000 O   0  0  0  0  0  0  0  0  0
   -4.5650   -3.6627    0.0000 C   0  0  0  0  0  0  0  0  0
   -5.2795   -4.0752    0.0000 C   0  0  0  0  0  0  0  0  0
   -5.2795   -4.9002    0.0000 N   0  0  0  0  0  0  0  0  0
   -5.9939   -5.3127    0.0000 C   0  0  0  0  0  0  0  0  0
   -4.5650   -5.3127    0.0000 C   0  0  0  0  0  0  0  0  0
   -1.7071   -1.1877    0.0000 C   0  0  0  0  0  0  0  0  0
   -0.9926   -1.6002    0.0000 C   0  0  0  0  0  0  0  0  0
   -0.2782   -1.1877    0.0000 N   0  0  0  0  0  0  0  0  0
    0.4363   -1.6002    0.0000 C   0  0  0  0  0  0  0  0  0
    0.4363   -2.4252    0.0000 O   0  0  0  0  0  0  0  0  0
    1.1508   -1.1877    0.0000 C   0  0  0  0  0  0  0  0  0
    1.2370   -0.3672    0.0000 S   0  0  0  0  0  0  0  0  0
    2.0440   -0.1957    0.0000 C   0  0  0  0  0  0  0  0  0
    2.4565   -0.9102    0.0000 C   0  0  0  0  0  0  0  0  0
    3.2770   -0.9964    0.0000 Br  0  0  0  0  0  0  0  0  0
    1.9044   -1.5233    0.0000 C   0  0  0  0  0  0  0  0  0
  1  2  1  0  0  0  0
  2  3  4  0  0  0  0
  2  7  4  0  0  0  0
  3  4  4  0  0  0  0
  4  5  4  0  0  0  0
  4 14  1  0  0  0  0
  5  6  4  0  0  0  0
  6  7  4  0  0  0  0
  7  8  1  0  0  0  0
  8  9  1  0  0  0  0
  9 10  1  0  0  0  0
 10 11  1  0  0  0  0
 11 12  1  0  0  0  0
 11 13  1  0  0  0  0
 14 15  1  0  0  0  0
 15 16  1  0  0  0  0
 16 17  1  0  0  0  0
 17 18  2  0  0  0  0
 17 19  1  0  0  0  0
 19 20  4  0  0  0  0
 19 24  4  0  0  0  0
 20 21  4  0  0  0  0
 21 22  4  0  0  0  0
 22 23  1  0  0  0  0
 22 24  4  0  0  0  0
M  END
>  <Name_Molregno>
557905

>  <HISTAMINE H3>
6.17

$$$$
557912
  Marvin  02231216192D 0   1.00000     0.00000     0

 27 29  0  0  1  0  0  0  0  0999 V2000
   -0.0073   -0.0654    0.0000 Br  0  0  0  0  0  0  0  0  0
    0.7072   -0.4779    0.0000 C   0  0  0  0  0  0  0  0  0
    1.4216   -0.0654    0.0000 C   0  0  0  0  0  0  0  0  0
    2.1361   -0.4779    0.0000 C   0  0  0  0  0  0  0  0  0
    2.1361   -1.3029    0.0000 C   0  0  0  0  0  0  0  0  0
    1.4216   -1.7154    0.0000 C   0  0  0  0  0  0  0  0  0
    0.7072   -1.3029    0.0000 C   0  0  0  0  0  0  0  0  0
   -0.0073   -1.7154    0.0000 O   0  0  0  0  0  0  0  0  0
   -0.0073   -2.5404    0.0000 C   0  0  0  0  0  0  0  0  0
   -0.7218   -2.9529    0.0000 C   0  0  0  0  0  0  0  0  0
   -0.7218   -3.7779    0.0000 C   0  0  0  0  0  0  0  0  0
   -1.4362   -4.1904    0.0000 C   0  0  0  0  0  0  0  0  0
   -2.1507   -3.7779    0.0000 C   0  0  0  0  0  0  0  0  0
   -2.1507   -2.9529    0.0000 N   0  0  0  0  0  0  0  0  0
   -1.4362   -2.5404    0.0000 C   0  0  0  0  0  0  0  0  0
   -2.8652   -2.5404    0.0000 C   0  0  0  0  0  0  0  0  0
    2.8506   -0.0654    0.0000 C   0  0  0  0  0  0  0  0  0
    3.5651   -0.4779    0.0000 C   0  0  0  0  0  0  0  0  0
    4.2795   -0.0654    0.0000 N   0  0  0  0  0  0  0  0  0
    4.9940   -0.4779    0.0000 C   0  0  0  0  0  0  0  0  0
    4.9940   -1.3029    0.0000 O   0  0  0  0  0  0  0  0  0
    5.7085   -0.0654    0.0000 C   0  0  0  0  0  0  0  0  0
    5.7947    0.7551    0.0000 S   0  0  0  0  0  0  0  0  0
    6.6017    0.9266    0.0000 C   0  0  0  0  0  0  0  0  0
    7.0142    0.2122    0.0000 C   0  0  0  0  0  0  0  0  0
    7.8347    0.1259    0.0000 Br  0  0  0  0  0  0  0  0  0
    6.4621   -0.4009    0.0000 C   0  0  0  0  0  0  0  0  0
  1  2  1  0  0  0  0
  2  3  4  0  0  0  0
  2  7  4  0  0  0  0
  3  4  4  0  0  0  0
  4  5  4  0  0  0  0
  4 17  1  0  0  0  0
  5  6  4  0  0  0  0
  6  7  4  0  0  0  0
  7  8  1  0  0  0  0
  8  9  1  0  0  0  0
  9 10  1  0  0  0  0
 10 11  1  0  0  0  0
 10 15  1  0  0  0  0
 11 12  1  0  0  0  0
 12 13  1  0  0  0  0
 13 14  1  0  0  0  0
 14 15  1  0  0  0  0
 14 16  1  0  0  0  0
 17 18  1  0  0  0  0
 18 19  1  0  0  0  0
 19 20  1  0  0  0  0
 20 21  2  0  0  0  0
 20 22  1  0  0  0  0
 22 23  4  0  0  0  0
 22 27  4  0  0  0  0
 23 24  4  0  0  0  0
 24 25  4  0  0  0  0
 25 26  1  0  0  0  0
 25 27  4  0  0  0  0
M  END
>  <Name_Molregno>
557912

>  <HISTAMINE H3>
5.9

$$$$
557918
  Marvin  02231216192D 0   1.00000     0.00000     0

 23 26  0  0  1  0  0  0  0  0999 V2000
   -0.1325   -0.1298    0.0000 N   0  0  0  0  0  0  0  0  0
    0.6925   -0.1298    0.0000 C   0  0  0  0  0  0  0  0  0
    1.5175   -0.1298    0.0000 C   0  0  0  0  0  0  0  0  0
    1.9300    0.5847    0.0000 C   0  0  0  0  0  0  0  0  0
    2.7550    0.5847    0.0000 C   0  0  0  0  0  0  0  0  0
    3.1675   -0.1298    0.0000 C   0  0  0  0  0  0  0  0  0
    2.7550   -0.8443    0.0000 C   0  0  0  0  0  0  0  0  0
    1.9300   -0.8443    0.0000 C   0  0  0  0  0  0  0  0  0
    3.9925   -0.1298    0.0000 C   0  0  0  0  0  0  0  0  0
    4.4050    0.5847    0.0000 C   0  0  0  0  0  0  0  0  0
    5.2300    0.5847    0.0000 C   0  0  0  0  0  0  0  0  0
    5.6425   -0.1298    0.0000 C   0  0  0  0  0  0  0  0  0
    6.4675   -0.1298    0.0000 N   0  0  0  0  0  0  0  0  0
    6.9525   -0.7973    0.0000 C   0  0  0  0  0  0  0  0  0
    7.7371   -0.5423    0.0000 C   0  0  0  0  0  0  0  0  0
    7.7371    0.2827    0.0000 C   0  0  0  0  0  0  0  0  0
    8.5217    0.5376    0.0000 N   0  0  0  0  0  0  0  0  0
    9.0066   -0.1298    0.0000 C   0  0  0  0  0  0  0  0  0
    8.5217   -0.7973    0.0000 C   0  0  0  0  0  0  0  0  0
    8.7766    1.3222    0.0000 C   0  0  0  0  0  0  0  0  0
    6.9525    0.5376    0.0000 C   0  0  0  0  0  0  0  0  0
    5.2300   -0.8443    0.0000 C   0  0  0  0  0  0  0  0  0
    4.4050   -0.8443    0.0000 C   0  0  0  0  0  0  0  0  0
  1  2  3  0  0  0  0
  2  3  1  0  0  0  0
  3  4  4  0  0  0  0
  3  8  4  0  0  0  0
  4  5  4  0  0  0  0
  5  6  4  0  0  0  0
  6  7  4  0  0  0  0
  6  9  1  0  0  0  0
  7  8  4  0  0  0  0
  9 10  4  0  0  0  0
  9 23  4  0  0  0  0
 10 11  4  0  0  0  0
 11 12  4  0  0  0  0
 12 13  1  0  0  0  0
 12 22  4  0  0  0  0
 13 14  1  0  0  0  0
 13 21  1  0  0  0  0
 14 15  1  0  0  0  0
 15 16  1  0  0  0  0
 15 19  1  0  0  0  0
 16 17  1  0  0  0  0
 16 21  1  0  0  0  0
 17 18  1  0  0  0  0
 17 20  1  0  0  0  0
 18 19  1  0  0  0  0
 22 23  4  0  0  0  0
M  END
>  <Name_Molregno>
557918

>  <HISTAMINE H3>
6.74

$$$$
557919
  Marvin  02231216192D 0   1.00000     0.00000     0

 16 18  0  0  1  0  0  0  0  0999 V2000
    1.5930   -2.3073    0.0000 Br  0  0  0  0  0  0  0  0  0
    1.8480   -1.5226    0.0000 C   0  0  0  0  0  0  0  0  0
    1.2959   -0.9095    0.0000 C   0  0  0  0  0  0  0  0  0
    1.5509   -0.1249    0.0000 C   0  0  0  0  0  0  0  0  0
    2.3578    0.0466    0.0000 C   0  0  0  0  0  0  0  0  0
    2.6128    0.8312    0.0000 N   0  0  0  0  0  0  0  0  0
    3.3974    1.0862    0.0000 C   0  0  0  0  0  0  0  0  0
    3.3974    1.9112    0.0000 C   0  0  0  0  0  0  0  0  0
    2.6128    2.1661    0.0000 C   0  0  0  0  0  0  0  0  0
    2.1278    1.4987    0.0000 C   0  0  0  0  0  0  0  0  0
    4.1820    2.1661    0.0000 C   0  0  0  0  0  0  0  0  0
    4.6669    1.4987    0.0000 N   0  0  0  0  0  0  0  0  0
    4.1820    0.8312    0.0000 C   0  0  0  0  0  0  0  0  0
    5.4919    1.4987    0.0000 C   0  0  0  0  0  0  0  0  0
    2.9099   -0.5665    0.0000 C   0  0  0  0  0  0  0  0  0
    2.6549   -1.3511    0.0000 C   0  0  0  0  0  0  0  0  0
  1  2  1  0  0  0  0
  2  3  4  0  0  0  0
  2 16  4  0  0  0  0
  3  4  4  0  0  0  0
  4  5  4  0  0  0  0
  5  6  1  0  0  0  0
  5 15  4  0  0  0  0
  6  7  1  0  0  0  0
  6 10  1  0  0  0  0
  7  8  1  0  0  0  0
  7 13  1  0  0  0  0
  8  9  1  0  0  0  0
  8 11  1  0  0  0  0
  9 10  1  0  0  0  0
 11 12  1  0  0  0  0
 12 13  1  0  0  0  0
 12 14  1  0  0  0  0
 15 16  4  0  0  0  0
M  END
>  <Name_Molregno>
557919

>  <HISTAMINE H3>
7

$$$$
557933
  Marvin  02231216192D 0   1.00000     0.00000     0

 26 30  0  0  1  0  0  0  0  0999 V2000
    2.6880   -3.9280    0.0000 F   0  0  0  0  0  0  0  0  0
    2.9430   -3.1434    0.0000 C   0  0  0  0  0  0  0  0  0
    2.3909   -2.5303    0.0000 C   0  0  0  0  0  0  0  0  0
    2.6459   -1.7457    0.0000 C   0  0  0  0  0  0  0  0  0
    3.4529   -1.5742    0.0000 C   0  0  0  0  0  0  0  0  0
    4.0049   -2.1872    0.0000 C   0  0  0  0  0  0  0  0  0
    3.7499   -2.9719    0.0000 C   0  0  0  0  0  0  0  0  0
    3.7078   -0.7895    0.0000 C   0  0  0  0  0  0  0  0  0
    4.5148   -0.6180    0.0000 C   0  0  0  0  0  0  0  0  0
    4.7697    0.1666    0.0000 C   0  0  0  0  0  0  0  0  0
    4.2177    0.7797    0.0000 C   0  0  0  0  0  0  0  0  0
    4.4726    1.5643    0.0000 C   0  0  0  0  0  0  0  0  0
    5.2796    1.7359    0.0000 C   0  0  0  0  0  0  0  0  0
    5.5345    2.5205    0.0000 N   0  0  0  0  0  0  0  0  0
    6.3191    2.7754    0.0000 C   0  0  0  0  0  0  0  0  0
    6.3191    3.6004    0.0000 C   0  0  0  0  0  0  0  0  0
    5.5345    3.8554    0.0000 C   0  0  0  0  0  0  0  0  0
    5.0496    3.1879    0.0000 C   0  0  0  0  0  0  0  0  0
    7.1038    3.8554    0.0000 C   0  0  0  0  0  0  0  0  0
    7.5887    3.1879    0.0000 N   0  0  0  0  0  0  0  0  0
    7.1038    2.5205    0.0000 C   0  0  0  0  0  0  0  0  0
    8.4137    3.1879    0.0000 C   0  0  0  0  0  0  0  0  0
    5.8316    1.1228    0.0000 C   0  0  0  0  0  0  0  0  0
    5.5767    0.3381    0.0000 C   0  0  0  0  0  0  0  0  0
    3.4107    0.6082    0.0000 C   0  0  0  0  0  0  0  0  0
    3.1558   -0.1764    0.0000 C   0  0  0  0  0  0  0  0  0
  1  2  1  0  0  0  0
  2  3  4  0  0  0  0
  2  7  4  0  0  0  0
  3  4  4  0  0  0  0
  4  5  4  0  0  0  0
  5  6  4  0  0  0  0
  5  8  1  0  0  0  0
  6  7  4  0  0  0  0
  8  9  4  0  0  0  0
  8 26  4  0  0  0  0
  9 10  4  0  0  0  0
 10 11  4  0  0  0  0
 10 24  4  0  0  0  0
 11 12  4  0  0  0  0
 11 25  4  0  0  0  0
 12 13  4  0  0  0  0
 13 14  1  0  0  0  0
 13 23  4  0  0  0  0
 14 15  1  0  0  0  0
 14 18  1  0  0  0  0
 15 16  1  0  0  0  0
 15 21  1  0  0  0  0
 16 17  1  0  0  0  0
 16 19  1  0  0  0  0
 17 18  1  0  0  0  0
 19 20  1  0  0  0  0
 20 21  1  0  0  0  0
 20 22  1  0  0  0  0
 23 24  4  0  0  0  0
 25 26  4  0  0  0  0
M  END
>  <Name_Molregno>
557933

>  <HISTAMINE H3>
7.69

$$$$
558746
  Marvin  02231216192D 0   1.00000     0.00000     0

 30 33  0  0  1  0  0  0  0  0999 V2000
   -0.8743   -1.8033    0.0000 S   0  0  0  0  0  0  0  0  0
   -0.3440   -2.4353    0.0000 O   0  0  0  0  0  0  0  0  0
   -1.4046   -2.4353    0.0000 O   0  0  0  0  0  0  0  0  0
   -0.1599   -1.3908    0.0000 C   0  0  0  0  0  0  0  0  0
   -0.1599   -0.5658    0.0000 C   0  0  0  0  0  0  0  0  0
   -0.8743   -0.1533    0.0000 O   0  0  0  0  0  0  0  0  0
   -1.5888   -0.5658    0.0000 C   0  0  0  0  0  0  0  0  0
   -1.5888   -1.3908    0.0000 C   0  0  0  0  0  0  0  0  0
   -2.3033   -1.8033    0.0000 C   0  0  0  0  0  0  0  0  0
   -2.3033   -0.1533    0.0000 C   0  0  0  0  0  0  0  0  0
   -3.0177   -0.5658    0.0000 C   0  0  0  0  0  0  0  0  0
   -3.7322   -0.1533    0.0000 C   0  0  0  0  0  0  0  0  0
   -3.7322    0.6717    0.0000 C   0  0  0  0  0  0  0  0  0
   -4.4467    1.0842    0.0000 O   0  0  0  0  0  0  0  0  0
   -4.4467    1.9092    0.0000 C   0  0  0  0  0  0  0  0  0
   -5.1612    2.3217    0.0000 C   0  0  0  0  0  0  0  0  0
   -5.1612    3.1467    0.0000 C   0  0  0  0  0  0  0  0  0
   -5.8756    3.5592    0.0000 N   0  0  0  0  0  0  0  0  0
   -6.6293    3.2236    0.0000 C   0  0  0  0  0  0  0  0  0
   -7.1813    3.8367    0.0000 C   0  0  0  0  0  0  0  0  0
   -6.7688    4.5512    0.0000 C   0  0  0  0  0  0  0  0  0
   -5.9619    4.3797    0.0000 C   0  0  0  0  0  0  0  0  0
   -3.0177    1.0842    0.0000 C   0  0  0  0  0  0  0  0  0
   -2.3033    0.6717    0.0000 C   0  0  0  0  0  0  0  0  0
    0.5546   -0.1533    0.0000 C   0  0  0  0  0  0  0  0  0
    0.5546    0.6717    0.0000 O   0  0  0  0  0  0  0  0  0
    1.2691    1.0842    0.0000 C   0  0  0  0  0  0  0  0  0
    1.2691   -0.5658    0.0000 C   0  0  0  0  0  0  0  0  0
    1.2691   -1.3908    0.0000 C   0  0  0  0  0  0  0  0  0
    0.5546   -1.8033    0.0000 C   0  0  0  0  0  0  0  0  0
  1  2  2  0  0  0  0
  1  3  2  0  0  0  0
  1  4  1  0  0  0  0
  1  8  1  0  0  0  0
  4  5  4  0  0  0  0
  4 30  4  0  0  0  0
  5  6  1  0  0  0  0
  5 25  4  0  0  0  0
  6  7  1  0  0  0  0
  7  8  1  0  0  0  0
  7 10  1  0  0  0  0
  8  9  1  0  0  0  0
 10 11  4  0  0  0  0
 10 24  4  0  0  0  0
 11 12  4  0  0  0  0
 12 13  4  0  0  0  0
 13 14  1  0  0  0  0
 13 23  4  0  0  0  0
 14 15  1  0  0  0  0
 15 16  1  0  0  0  0
 16 17  1  0  0  0  0
 17 18  1  0  0  0  0
 18 19  1  0  0  0  0
 18 22  1  0  0  0  0
 19 20  1  0  0  0  0
 20 21  1  0  0  0  0
 21 22  1  0  0  0  0
 23 24  4  0  0  0  0
 25 26  1  0  0  0  0
 25 28  4  0  0  0  0
 26 27  1  0  0  0  0
 28 29  4  0  0  0  0
 29 30  4  0  0  0  0
M  END
>  <Name_Molregno>
558746

>  <HISTAMINE H3>
9

$$$$
559250
  Marvin  02231216192D 0   1.00000     0.00000     0

 30 33  0  0  0  0  0  0  0  0999 V2000
   -4.0495   -0.0386    0.0000 O   0  0  0  0  0  0  0  0  0
   -4.7640    0.3739    0.0000 C   0  0  0  0  0  0  0  0  0
   -5.4785   -0.0386    0.0000 C   0  0  0  0  0  0  0  0  0
   -6.1930    0.3739    0.0000 C   0  0  0  0  0  0  0  0  0
   -6.1930    1.1989    0.0000 N   0  0  0  0  0  0  0  0  0
   -5.4785    1.6114    0.0000 C   0  0  0  0  0  0  0  0  0
   -4.7640    1.1989    0.0000 C   0  0  0  0  0  0  0  0  0
   -6.9074    1.6114    0.0000 C   0  0  0  0  0  0  0  0  0
   -6.9074    2.4364    0.0000 C   0  0  0  0  0  0  0  0  0
   -7.6219    1.1989    0.0000 C   0  0  0  0  0  0  0  0  0
   -3.3351    0.3739    0.0000 C   0  0  0  0  0  0  0  0  0
   -2.6206   -0.0386    0.0000 C   0  0  0  0  0  0  0  0  0
   -1.9061    0.3739    0.0000 C   0  0  0  0  0  0  0  0  0
   -1.9061    1.1989    0.0000 C   0  0  0  0  0  0  0  0  0
   -1.1917    1.6114    0.0000 C   0  0  0  0  0  0  0  0  0
   -0.4772    1.1989    0.0000 C   0  0  0  0  0  0  0  0  0
   -0.4772    0.3739    0.0000 C   0  0  0  0  0  0  0  0  0
   -1.1917   -0.0386    0.0000 C   0  0  0  0  0  0  0  0  0
    0.2373    1.6114    0.0000 C   0  0  0  0  0  0  0  0  0
    0.2373    2.4364    0.0000 O   0  0  0  0  0  0  0  0  0
    0.9518    1.1989    0.0000 N   0  0  0  0  0  0  0  0  0
    1.6662    1.6114    0.0000 C   0  0  0  0  0  0  0  0  0
    2.3807    1.1989    0.0000 C   0  0  0  0  0  0  0  0  0
    2.3807    0.3739    0.0000 C   0  0  0  0  0  0  0  0  0
    3.0952   -0.0386    0.0000 O   0  0  0  0  0  0  0  0  0
    3.8096    0.3739    0.0000 C   0  0  0  0  0  0  0  0  0
    1.6662   -0.0386    0.0000 C   0  0  0  0  0  0  0  0  0
    0.9518    0.3739    0.0000 C   0  0  0  0  0  0  0  0  0
   -2.6206    1.6114    0.0000 C   0  0  0  0  0  0  0  0  0
   -3.3351    1.1989    0.0000 C   0  0  0  0  0  0  0  0  0
  1  2  1  0  0  0  0
  1 11  1  0  0  0  0
  2  3  1  0  0  0  0
  2  7  1  0  0  0  0
  3  4  1  0  0  0  0
  4  5  1  0  0  0  0
  5  6  1  0  0  0  0
  5  8  1  0  0  0  0
  6  7  1  0  0  0  0
  8  9  1  0  0  0  0
  8 10  1  0  0  0  0
 11 12  4  0  0  0  0
 11 30  4  0  0  0  0
 12 13  4  0  0  0  0
 13 14  4  0  0  0  0
 13 18  4  0  0  0  0
 14 15  4  0  0  0  0
 14 29  4  0  0  0  0
 15 16  4  0  0  0  0
 16 17  4  0  0  0  0
 16 19  1  0  0  0  0
 17 18  4  0  0  0  0
 19 20  2  0  0  0  0
 19 21  1  0  0  0  0
 21 22  1  0  0  0  0
 21 28  1  0  0  0  0
 22 23  1  0  0  0  0
 23 24  1  0  0  0  0
 24 25  1  0  0  0  0
 24 27  1  0  0  0  0
 25 26  1  0  0  0  0
 27 28  1  0  0  0  0
 29 30  4  0  0  0  0
M  END
>  <Name_Molregno>
559250

>  <HISTAMINE H3>
7.21

$$$$
559656
  Marvin  02231216192D 0   1.00000     0.00000     0

 27 29  0  0  0  0  0  0  0  0999 V2000
   -1.6223    0.4717    0.0000 Br  0  0  0  0  0  0  0  0  0
   -1.6223   -0.3533    0.0000 C   0  0  0  0  0  0  0  0  0
   -0.9079   -0.7658    0.0000 C   0  0  0  0  0  0  0  0  0
   -0.9079   -1.5908    0.0000 C   0  0  0  0  0  0  0  0  0
   -1.6223   -2.0033    0.0000 C   0  0  0  0  0  0  0  0  0
   -2.3368   -1.5908    0.0000 C   0  0  0  0  0  0  0  0  0
   -2.3368   -0.7658    0.0000 C   0  0  0  0  0  0  0  0  0
   -3.0513   -0.3533    0.0000 O   0  0  0  0  0  0  0  0  0
   -3.7658   -0.7658    0.0000 C   0  0  0  0  0  0  0  0  0
   -4.4802   -0.3533    0.0000 C   0  0  0  0  0  0  0  0  0
   -5.1947   -0.7658    0.0000 N   0  0  0  0  0  0  0  0  0
   -5.1947   -1.5908    0.0000 C   0  0  0  0  0  0  0  0  0
   -5.9092   -2.0033    0.0000 C   0  0  0  0  0  0  0  0  0
   -6.6236   -1.5908    0.0000 O   0  0  0  0  0  0  0  0  0
   -6.6236   -0.7658    0.0000 C   0  0  0  0  0  0  0  0  0
   -5.9092   -0.3533    0.0000 C   0  0  0  0  0  0  0  0  0
   -0.1934   -2.0033    0.0000 C   0  0  0  0  0  0  0  0  0
    0.5211   -1.5908    0.0000 C   0  0  0  0  0  0  0  0  0
    1.2355   -2.0033    0.0000 N   0  0  0  0  0  0  0  0  0
    1.9500   -1.5908    0.0000 C   0  0  0  0  0  0  0  0  0
    1.9500   -0.7658    0.0000 O   0  0  0  0  0  0  0  0  0
    2.6645   -2.0033    0.0000 C   0  0  0  0  0  0  0  0  0
    3.4182   -1.6678    0.0000 N   0  0  0  0  0  0  0  0  0
    3.9702   -2.2809    0.0000 C   0  0  0  0  0  0  0  0  0
    3.5577   -2.9954    0.0000 C   0  0  0  0  0  0  0  0  0
    2.7507   -2.8238    0.0000 C   0  0  0  0  0  0  0  0  0
    3.5897   -0.8608    0.0000 C   0  0  0  0  0  0  0  0  0
  1  2  1  0  0  0  0
  2  3  4  0  0  0  0
  2  7  4  0  0  0  0
  3  4  4  0  0  0  0
  4  5  4  0  0  0  0
  4 17  1  0  0  0  0
  5  6  4  0  0  0  0
  6  7  4  0  0  0  0
  7  8  1  0  0  0  0
  8  9  1  0  0  0  0
  9 10  1  0  0  0  0
 10 11  1  0  0  0  0
 11 12  1  0  0  0  0
 11 16  1  0  0  0  0
 12 13  1  0  0  0  0
 13 14  1  0  0  0  0
 14 15  1  0  0  0  0
 15 16  1  0  0  0  0
 17 18  1  0  0  0  0
 18 19  1  0  0  0  0
 19 20  1  0  0  0  0
 20 21  2  0  0  0  0
 20 22  1  0  0  0  0
 22 23  4  0  0  0  0
 22 26  4  0  0  0  0
 23 24  4  0  0  0  0
 23 27  1  0  0  0  0
 24 25  4  0  0  0  0
 25 26  4  0  0  0  0
M  END
>  <Name_Molregno>
559656

>  <HISTAMINE H3>
4.75

$$$$
559676
  Marvin  02231216192D 0   1.00000     0.00000     0

 26 28  0  0  0  0  0  0  0  0999 V2000
   -2.1195    0.6192    0.0000 Br  0  0  0  0  0  0  0  0  0
   -2.1195   -0.2058    0.0000 C   0  0  0  0  0  0  0  0  0
   -1.4050   -0.6183    0.0000 C   0  0  0  0  0  0  0  0  0
   -1.4050   -1.4433    0.0000 C   0  0  0  0  0  0  0  0  0
   -2.1195   -1.8558    0.0000 C   0  0  0  0  0  0  0  0  0
   -2.8340   -1.4433    0.0000 C   0  0  0  0  0  0  0  0  0
   -2.8340   -0.6183    0.0000 C   0  0  0  0  0  0  0  0  0
   -3.5484   -0.2058    0.0000 O   0  0  0  0  0  0  0  0  0
   -4.2629   -0.6183    0.0000 C   0  0  0  0  0  0  0  0  0
   -4.9774   -0.2058    0.0000 C   0  0  0  0  0  0  0  0  0
   -5.6918   -0.6183    0.0000 N   0  0  0  0  0  0  0  0  0
   -5.7781   -1.4388    0.0000 C   0  0  0  0  0  0  0  0  0
   -6.5851   -1.6103    0.0000 C   0  0  0  0  0  0  0  0  0
   -6.9976   -0.8959    0.0000 C   0  0  0  0  0  0  0  0  0
   -6.4455   -0.2828    0.0000 C   0  0  0  0  0  0  0  0  0
   -0.6906   -1.8558    0.0000 C   0  0  0  0  0  0  0  0  0
    0.0239   -1.4433    0.0000 C   0  0  0  0  0  0  0  0  0
    0.7384   -1.8558    0.0000 N   0  0  0  0  0  0  0  0  0
    1.4529   -1.4433    0.0000 C   0  0  0  0  0  0  0  0  0
    1.4529   -0.6183    0.0000 O   0  0  0  0  0  0  0  0  0
    2.1673   -1.8558    0.0000 C   0  0  0  0  0  0  0  0  0
    2.9210   -1.5203    0.0000 O   0  0  0  0  0  0  0  0  0
    3.4730   -2.1334    0.0000 C   0  0  0  0  0  0  0  0  0
    4.2935   -2.0471    0.0000 Br  0  0  0  0  0  0  0  0  0
    3.0605   -2.8478    0.0000 C   0  0  0  0  0  0  0  0  0
    2.2536   -2.6763    0.0000 C   0  0  0  0  0  0  0  0  0
  1  2  1  0  0  0  0
  2  3  4  0  0  0  0
  2  7  4  0  0  0  0
  3  4  4  0  0  0  0
  4  5  4  0  0  0  0
  4 16  1  0  0  0  0
  5  6  4  0  0  0  0
  6  7  4  0  0  0  0
  7  8  1  0  0  0  0
  8  9  1  0  0  0  0
  9 10  1  0  0  0  0
 10 11  1  0  0  0  0
 11 12  1  0  0  0  0
 11 15  1  0  0  0  0
 12 13  1  0  0  0  0
 13 14  1  0  0  0  0
 14 15  1  0  0  0  0
 16 17  1  0  0  0  0
 17 18  1  0  0  0  0
 18 19  1  0  0  0  0
 19 20  2  0  0  0  0
 19 21  1  0  0  0  0
 21 22  4  0  0  0  0
 21 26  4  0  0  0  0
 22 23  4  0  0  0  0
 23 24  1  0  0  0  0
 23 25  4  0  0  0  0
 25 26  4  0  0  0  0
M  END
>  <Name_Molregno>
559676

>  <HISTAMINE H3>
6.77

$$$$
559685
  Marvin  02231216192D 0   1.00000     0.00000     0

 22 25  0  0  1  0  0  0  0  0999 V2000
    9.7398    0.0295    0.0000 N   0  0  0  0  0  0  0  0  0
    8.9148    0.0295    0.0000 C   0  0  0  0  0  0  0  0  0
    8.0898    0.0295    0.0000 C   0  0  0  0  0  0  0  0  0
    7.6773   -0.6850    0.0000 C   0  0  0  0  0  0  0  0  0
    6.8523   -0.6850    0.0000 C   0  0  0  0  0  0  0  0  0
    6.4398    0.0295    0.0000 C   0  0  0  0  0  0  0  0  0
    6.8523    0.7439    0.0000 C   0  0  0  0  0  0  0  0  0
    7.6773    0.7439    0.0000 C   0  0  0  0  0  0  0  0  0
    5.6148    0.0295    0.0000 C   0  0  0  0  0  0  0  0  0
    5.2023   -0.6850    0.0000 C   0  0  0  0  0  0  0  0  0
    4.3773   -0.6850    0.0000 C   0  0  0  0  0  0  0  0  0
    3.9648    0.0295    0.0000 C   0  0  0  0  0  0  0  0  0
    3.1398    0.0295    0.0000 N   0  0  0  0  0  0  0  0  0
    2.6549   -0.6380    0.0000 C   0  0  0  0  0  0  0  0  0
    1.8702   -0.3830    0.0000 C   0  0  0  0  0  0  0  0  0
    1.8702    0.4420    0.0000 C   0  0  0  0  0  0  0  0  0
    1.0452    0.4420    0.0000 N   0  0  0  0  0  0  0  0  0
    1.0452   -0.3830    0.0000 C   0  0  0  0  0  0  0  0  0
    0.4619    1.0253    0.0000 C   0  0  0  0  0  0  0  0  0
    2.6549    0.6969    0.0000 C   0  0  0  0  0  0  0  0  0
    4.3773    0.7439    0.0000 C   0  0  0  0  0  0  0  0  0
    5.2023    0.7439    0.0000 C   0  0  0  0  0  0  0  0  0
  1  2  3  0  0  0  0
  2  3  1  0  0  0  0
  3  4  4  0  0  0  0
  3  8  4  0  0  0  0
  4  5  4  0  0  0  0
  5  6  4  0  0  0  0
  6  7  4  0  0  0  0
  6  9  1  0  0  0  0
  7  8  4  0  0  0  0
  9 10  4  0  0  0  0
  9 22  4  0  0  0  0
 10 11  4  0  0  0  0
 11 12  4  0  0  0  0
 12 13  1  0  0  0  0
 12 21  4  0  0  0  0
 13 14  1  0  0  0  0
 13 20  1  0  0  0  0
 14 15  1  0  0  0  0
 15 16  1  0  0  0  0
 15 18  1  0  0  0  0
 16 17  1  0  0  0  0
 16 20  1  0  0  0  0
 17 18  1  0  0  0  0
 17 19  1  0  0  0  0
 21 22  4  0  0  0  0
M  END
>  <Name_Molregno>
559685

>  <HISTAMINE H3>
7.05

$$$$
560871
  Marvin  02231216192D 0   1.00000     0.00000     0

 26 28  0  0  1  0  0  0  0  0999 V2000
   -3.3886    3.5984    0.0000 S   0  0  0  0  0  0  0  0  0
   -4.2136    3.5984    0.0000 O   0  0  0  0  0  0  0  0  0
   -2.5636    3.5984    0.0000 O   0  0  0  0  0  0  0  0  0
   -3.3886    4.4234    0.0000 N   0  0  0  0  0  0  0  0  0
   -4.1031    4.8359    0.0000 C   0  0  0  0  0  0  0  0  0
   -4.1031    5.6609    0.0000 C   0  0  0  0  0  0  0  0  0
   -3.3886    2.7734    0.0000 C   0  0  0  0  0  0  0  0  0
   -2.6742    2.3609    0.0000 C   0  0  0  0  0  0  0  0  0
   -2.6742    1.5359    0.0000 C   0  0  0  0  0  0  0  0  0
   -3.3886    1.1234    0.0000 C   0  0  0  0  0  0  0  0  0
   -4.1031    1.5359    0.0000 C   0  0  0  0  0  0  0  0  0
   -4.1031    2.3609    0.0000 C   0  0  0  0  0  0  0  0  0
   -3.3886    0.2984    0.0000 C   0  0  0  0  0  0  0  0  0
   -2.6742   -0.1141    0.0000 C   0  0  0  0  0  0  0  0  0
   -2.6742   -0.9391    0.0000 C   0  0  0  0  0  0  0  0  0
   -3.3886   -1.3516    0.0000 C   0  0  0  0  0  0  0  0  0
   -4.1031   -0.9391    0.0000 C   0  0  0  0  0  0  0  0  0
   -4.1031   -0.1141    0.0000 C   0  0  0  0  0  0  0  0  0
   -3.3886   -2.1766    0.0000 C   0  0  0  0  0  0  0  0  0
   -2.6742   -2.5891    0.0000 C   0  0  0  0  0  0  0  0  0
   -2.6742   -3.4141    0.0000 N   0  0  0  0  0  0  0  0  0
   -2.0067   -3.8990    0.0000 C   0  0  0  0  0  0  0  0  0
   -2.2617   -4.6836    0.0000 C   0  0  0  0  0  0  0  0  0
   -3.0867   -4.6836    0.0000 C   0  0  0  0  0  0  0  0  0
   -3.3416   -3.8990    0.0000 C   0  0  0  0  0  0  0  0  0
   -4.1262   -3.6440    0.0000 C   0  0  0  0  0  0  0  0  0
  1  2  2  0  0  0  0
  1  3  2  0  0  0  0
  1  4  1  0  0  0  0
  1  7  1  0  0  0  0
  4  5  1  0  0  0  0
  5  6  1  0  0  0  0
  7  8  4  0  0  0  0
  7 12  4  0  0  0  0
  8  9  4  0  0  0  0
  9 10  4  0  0  0  0
 10 11  4  0  0  0  0
 10 13  1  0  0  0  0
 11 12  4  0  0  0  0
 13 14  4  0  0  0  0
 13 18  4  0  0  0  0
 14 15  4  0  0  0  0
 15 16  4  0  0  0  0
 16 17  4  0  0  0  0
 16 19  1  0  0  0  0
 17 18  4  0  0  0  0
 19 20  1  0  0  0  0
 20 21  1  0  0  0  0
 21 22  1  0  0  0  0
 21 25  1  0  0  0  0
 22 23  1  0  0  0  0
 23 24  1  0  0  0  0
 24 25  1  0  0  0  0
 25 26  1  0  0  0  0
M  END
>  <Name_Molregno>
560871

>  <HISTAMINE H3>
8.55

$$$$
560885
  Marvin  02231216192D 0   1.00000     0.00000     0

 29 32  0  0  1  0  0  0  0  0999 V2000
   -2.8952    3.0485    0.0000 S   0  0  0  0  0  0  0  0  0
   -3.7202    3.0485    0.0000 O   0  0  0  0  0  0  0  0  0
   -2.0702    3.0485    0.0000 O   0  0  0  0  0  0  0  0  0
   -2.8952    3.8735    0.0000 N   0  0  0  0  0  0  0  0  0
   -3.6097    4.2860    0.0000 C   0  0  0  0  0  0  0  0  0
   -3.6097    5.1110    0.0000 C   0  0  0  0  0  0  0  0  0
   -2.8952    5.5235    0.0000 O   0  0  0  0  0  0  0  0  0
   -2.1808    5.1110    0.0000 C   0  0  0  0  0  0  0  0  0
   -2.1808    4.2860    0.0000 C   0  0  0  0  0  0  0  0  0
   -2.8952    2.2235    0.0000 C   0  0  0  0  0  0  0  0  0
   -2.1808    1.8110    0.0000 C   0  0  0  0  0  0  0  0  0
   -2.1808    0.9860    0.0000 C   0  0  0  0  0  0  0  0  0
   -2.8952    0.5735    0.0000 C   0  0  0  0  0  0  0  0  0
   -3.6097    0.9860    0.0000 C   0  0  0  0  0  0  0  0  0
   -3.6097    1.8110    0.0000 C   0  0  0  0  0  0  0  0  0
   -2.8952   -0.2515    0.0000 C   0  0  0  0  0  0  0  0  0
   -2.1808   -0.6640    0.0000 C   0  0  0  0  0  0  0  0  0
   -2.1808   -1.4890    0.0000 C   0  0  0  0  0  0  0  0  0
   -2.8952   -1.9015    0.0000 C   0  0  0  0  0  0  0  0  0
   -3.6097   -1.4890    0.0000 C   0  0  0  0  0  0  0  0  0
   -3.6097   -0.6640    0.0000 C   0  0  0  0  0  0  0  0  0
   -2.8952   -2.7265    0.0000 C   0  0  0  0  0  0  0  0  0
   -2.1808   -3.1390    0.0000 C   0  0  0  0  0  0  0  0  0
   -2.1808   -3.9640    0.0000 N   0  0  0  0  0  0  0  0  0
   -1.5133   -4.4489    0.0000 C   0  0  0  0  0  0  0  0  0
   -1.7683   -5.2335    0.0000 C   0  0  0  0  0  0  0  0  0
   -2.5933   -5.2335    0.0000 C   0  0  0  0  0  0  0  0  0
   -2.8482   -4.4489    0.0000 C   0  0  0  0  0  0  0  0  0
   -3.6328   -4.1940    0.0000 C   0  0  0  0  0  0  0  0  0
  1  2  2  0  0  0  0
  1  3  2  0  0  0  0
  1  4  1  0  0  0  0
  1 10  1  0  0  0  0
  4  5  1  0  0  0  0
  4  9  1  0  0  0  0
  5  6  1  0  0  0  0
  6  7  1  0  0  0  0
  7  8  1  0  0  0  0
  8  9  1  0  0  0  0
 10 11  4  0  0  0  0
 10 15  4  0  0  0  0
 11 12  4  0  0  0  0
 12 13  4  0  0  0  0
 13 14  4  0  0  0  0
 13 16  1  0  0  0  0
 14 15  4  0  0  0  0
 16 17  4  0  0  0  0
 16 21  4  0  0  0  0
 17 18  4  0  0  0  0
 18 19  4  0  0  0  0
 19 20  4  0  0  0  0
 19 22  1  0  0  0  0
 20 21  4  0  0  0  0
 22 23  1  0  0  0  0
 23 24  1  0  0  0  0
 24 25  1  0  0  0  0
 24 28  1  0  0  0  0
 25 26  1  0  0  0  0
 26 27  1  0  0  0  0
 27 28  1  0  0  0  0
 28 29  1  0  0  0  0
M  END
>  <Name_Molregno>
560885

>  <HISTAMINE H3>
8.76

$$$$
561062
  Marvin  02231216192D 0   1.00000     0.00000     0

 28 31  0  0  1  0  0  0  0  0999 V2000
   -3.7034   -0.0282    0.0000 O   0  0  0  0  0  0  0  0  0
   -4.4178    0.3843    0.0000 C   0  0  0  0  0  0  0  0  0
   -5.1323   -0.0282    0.0000 C   0  0  0  0  0  0  0  0  0
   -5.8468    0.3843    0.0000 C   0  0  0  0  0  0  0  0  0
   -6.6004    0.0488    0.0000 N   0  0  0  0  0  0  0  0  0
   -7.1525    0.6619    0.0000 C   0  0  0  0  0  0  0  0  0
   -6.7400    1.3763    0.0000 C   0  0  0  0  0  0  0  0  0
   -5.9330    1.2048    0.0000 C   0  0  0  0  0  0  0  0  0
   -6.7720   -0.7582    0.0000 C   0  0  0  0  0  0  0  0  0
   -2.9889    0.3843    0.0000 C   0  0  0  0  0  0  0  0  0
   -2.2744   -0.0282    0.0000 C   0  0  0  0  0  0  0  0  0
   -1.5599    0.3843    0.0000 C   0  0  0  0  0  0  0  0  0
   -1.5599    1.2093    0.0000 C   0  0  0  0  0  0  0  0  0
   -0.8455    1.6218    0.0000 C   0  0  0  0  0  0  0  0  0
   -0.1310    1.2093    0.0000 C   0  0  0  0  0  0  0  0  0
   -0.1310    0.3843    0.0000 C   0  0  0  0  0  0  0  0  0
   -0.8455   -0.0282    0.0000 C   0  0  0  0  0  0  0  0  0
    0.5835    1.6218    0.0000 C   0  0  0  0  0  0  0  0  0
    0.5835    2.4468    0.0000 O   0  0  0  0  0  0  0  0  0
    1.2979    1.2093    0.0000 N   0  0  0  0  0  0  0  0  0
    2.0124    1.6218    0.0000 C   0  0  0  0  0  0  0  0  0
    2.7269    1.2093    0.0000 C   0  0  0  0  0  0  0  0  0
    2.7269    0.3843    0.0000 C   0  0  0  0  0  0  0  0  0
    2.0124   -0.0282    0.0000 C   0  0  0  0  0  0  0  0  0
    1.2979    0.3843    0.0000 C   0  0  0  0  0  0  0  0  0
    3.4414   -0.0282    0.0000 C   0  0  0  0  0  0  0  0  0
   -2.2744    1.6218    0.0000 C   0  0  0  0  0  0  0  0  0
   -2.9889    1.2093    0.0000 C   0  0  0  0  0  0  0  0  0
  1  2  1  0  0  0  0
  1 10  1  0  0  0  0
  2  3  1  0  0  0  0
  3  4  1  0  0  0  0
  4  5  1  0  0  0  0
  4  8  1  0  0  0  0
  5  6  1  0  0  0  0
  5  9  1  0  0  0  0
  6  7  1  0  0  0  0
  7  8  1  0  0  0  0
 10 11  4  0  0  0  0
 10 28  4  0  0  0  0
 11 12  4  0  0  0  0
 12 13  4  0  0  0  0
 12 17  4  0  0  0  0
 13 14  4  0  0  0  0
 13 27  4  0  0  0  0
 14 15  4  0  0  0  0
 15 16  4  0  0  0  0
 15 18  1  0  0  0  0
 16 17  4  0  0  0  0
 18 19  2  0  0  0  0
 18 20  1  0  0  0  0
 20 21  1  0  0  0  0
 20 25  1  0  0  0  0
 21 22  1  0  0  0  0
 22 23  1  0  0  0  0
 23 24  1  0  0  0  0
 23 26  1  0  0  0  0
 24 25  1  0  0  0  0
 27 28  4  0  0  0  0
M  END
>  <Name_Molregno>
561062

>  <HISTAMINE H3>
6.24

$$$$
561379
  Marvin  02231216192D 0   1.00000     0.00000     0

 22 25  0  0  1  0  0  0  0  0999 V2000
    1.3799   -1.9706    0.0000 O   0  0  0  0  0  0  0  0  0
    1.6349   -1.1860    0.0000 C   0  0  0  0  0  0  0  0  0
    1.0828   -0.5729    0.0000 C   0  0  0  0  0  0  0  0  0
    1.3378    0.2118    0.0000 C   0  0  0  0  0  0  0  0  0
    2.1447    0.3833    0.0000 C   0  0  0  0  0  0  0  0  0
    2.3997    1.1679    0.0000 N   0  0  0  0  0  0  0  0  0
    3.1843    1.4229    0.0000 C   0  0  0  0  0  0  0  0  0
    3.1843    2.2479    0.0000 C   0  0  0  0  0  0  0  0  0
    2.3997    2.5028    0.0000 C   0  0  0  0  0  0  0  0  0
    1.9148    1.8354    0.0000 C   0  0  0  0  0  0  0  0  0
    3.9689    2.5028    0.0000 C   0  0  0  0  0  0  0  0  0
    4.4539    1.8354    0.0000 N   0  0  0  0  0  0  0  0  0
    3.9689    1.1679    0.0000 C   0  0  0  0  0  0  0  0  0
    5.2789    1.8354    0.0000 C   0  0  0  0  0  0  0  0  0
    2.6968   -0.2298    0.0000 C   0  0  0  0  0  0  0  0  0
    2.4418   -1.0144    0.0000 C   0  0  0  0  0  0  0  0  0
    0.5730   -2.1421    0.0000 C   0  0  0  0  0  0  0  0  0
    0.3180   -2.9267    0.0000 C   0  0  0  0  0  0  0  0  0
   -0.4890   -3.0982    0.0000 C   0  0  0  0  0  0  0  0  0
   -1.0410   -2.4852    0.0000 C   0  0  0  0  0  0  0  0  0
   -0.7860   -1.7005    0.0000 C   0  0  0  0  0  0  0  0  0
    0.0209   -1.5290    0.0000 C   0  0  0  0  0  0  0  0  0
  1  2  1  0  0  0  0
  1 17  1  0  0  0  0
  2  3  4  0  0  0  0
  2 16  4  0  0  0  0
  3  4  4  0  0  0  0
  4  5  4  0  0  0  0
  5  6  1  0  0  0  0
  5 15  4  0  0  0  0
  6  7  1  0  0  0  0
  6 10  1  0  0  0  0
  7  8  1  0  0  0  0
  7 13  1  0  0  0  0
  8  9  1  0  0  0  0
  8 11  1  0  0  0  0
  9 10  1  0  0  0  0
 11 12  1  0  0  0  0
 12 13  1  0  0  0  0
 12 14  1  0  0  0  0
 15 16  4  0  0  0  0
 17 18  4  0  0  0  0
 17 22  4  0  0  0  0
 18 19  4  0  0  0  0
 19 20  4  0  0  0  0
 20 21  4  0  0  0  0
 21 22  4  0  0  0  0
M  END
>  <Name_Molregno>
561379

>  <HISTAMINE H3>
7.6

$$$$
561481
  Marvin  02231216192D 0   1.00000     0.00000     0

 24 25  0  0  0  0  0  0  0  0999 V2000
   -4.5650   -1.1877    0.0000 Br  0  0  0  0  0  0  0  0  0
   -3.8505   -1.6002    0.0000 C   0  0  0  0  0  0  0  0  0
   -3.1361   -1.1877    0.0000 C   0  0  0  0  0  0  0  0  0
   -2.4216   -1.6002    0.0000 C   0  0  0  0  0  0  0  0  0
   -2.4216   -2.4252    0.0000 C   0  0  0  0  0  0  0  0  0
   -3.1361   -2.8377    0.0000 C   0  0  0  0  0  0  0  0  0
   -3.8505   -2.4252    0.0000 C   0  0  0  0  0  0  0  0  0
   -4.5650   -2.8377    0.0000 O   0  0  0  0  0  0  0  0  0
   -4.5650   -3.6627    0.0000 C   0  0  0  0  0  0  0  0  0
   -5.2795   -4.0752    0.0000 C   0  0  0  0  0  0  0  0  0
   -5.2795   -4.9002    0.0000 N   0  0  0  0  0  0  0  0  0
   -5.9939   -5.3127    0.0000 C   0  0  0  0  0  0  0  0  0
   -4.5650   -5.3127    0.0000 C   0  0  0  0  0  0  0  0  0
   -1.7071   -1.1877    0.0000 C   0  0  0  0  0  0  0  0  0
   -0.9926   -1.6002    0.0000 C   0  0  0  0  0  0  0  0  0
   -0.2782   -1.1877    0.0000 N   0  0  0  0  0  0  0  0  0
    0.4363   -1.6002    0.0000 C   0  0  0  0  0  0  0  0  0
    0.4363   -2.4252    0.0000 O   0  0  0  0  0  0  0  0  0
    1.1508   -1.1877    0.0000 C   0  0  0  0  0  0  0  0  0
    1.2370   -0.3672    0.0000 N   0  0  0  0  0  0  0  0  0
    2.0440   -0.1957    0.0000 C   0  0  0  0  0  0  0  0  0
    2.4565   -0.9102    0.0000 C   0  0  0  0  0  0  0  0  0
    3.2770   -0.9964    0.0000 Br  0  0  0  0  0  0  0  0  0
    1.9044   -1.5233    0.0000 C   0  0  0  0  0  0  0  0  0
  1  2  1  0  0  0  0
  2  3  4  0  0  0  0
  2  7  4  0  0  0  0
  3  4  4  0  0  0  0
  4  5  4  0  0  0  0
  4 14  1  0  0  0  0
  5  6  4  0  0  0  0
  6  7  4  0  0  0  0
  7  8  1  0  0  0  0
  8  9  1  0  0  0  0
  9 10  1  0  0  0  0
 10 11  1  0  0  0  0
 11 12  1  0  0  0  0
 11 13  1  0  0  0  0
 14 15  1  0  0  0  0
 15 16  1  0  0  0  0
 16 17  1  0  0  0  0
 17 18  2  0  0  0  0
 17 19  1  0  0  0  0
 19 20  4  0  0  0  0
 19 24  4  0  0  0  0
 20 21  4  0  0  0  0
 21 22  4  0  0  0  0
 22 23  1  0  0  0  0
 22 24  4  0  0  0  0
M  STY  1   1 DAT
M  SAL   1  1  20
M  SDT   1 MRV_IMPLICIT_H                                        
M  SDD   1     0.0000    0.0000    DR    ALL  0       0  
M  SED   1 IMPL_H1
M  END
>  <Name_Molregno>
561481

>  <HISTAMINE H3>
5.79

$$$$
561492
  Marvin  02231216192D 0   1.00000     0.00000     0

 25 29  0  0  1  0  0  0  0  0999 V2000
    9.5894    1.3233    0.0000 N   0  0  0  0  0  0  0  0  0
    8.8394    0.9796    0.0000 C   0  0  0  0  0  0  0  0  0
    8.0894    0.6360    0.0000 C   0  0  0  0  0  0  0  0  0
    8.0120   -0.1854    0.0000 C   0  0  0  0  0  0  0  0  0
    7.2620   -0.5291    0.0000 C   0  0  0  0  0  0  0  0  0
    6.5894   -0.0514    0.0000 C   0  0  0  0  0  0  0  0  0
    6.6668    0.7700    0.0000 C   0  0  0  0  0  0  0  0  0
    7.4168    1.1137    0.0000 C   0  0  0  0  0  0  0  0  0
    5.8394   -0.3951    0.0000 C   0  0  0  0  0  0  0  0  0
    5.1668    0.0826    0.0000 C   0  0  0  0  0  0  0  0  0
    4.4168   -0.2610    0.0000 C   0  0  0  0  0  0  0  0  0
    3.7441    0.2167    0.0000 C   0  0  0  0  0  0  0  0  0
    2.9941   -0.1270    0.0000 C   0  0  0  0  0  0  0  0  0
    2.9167   -0.9484    0.0000 C   0  0  0  0  0  0  0  0  0
    3.5894   -1.4261    0.0000 C   0  0  0  0  0  0  0  0  0
    3.3429   -2.2134    0.0000 C   0  0  0  0  0  0  0  0  0
    2.5180   -2.2223    0.0000 C   0  0  0  0  0  0  0  0  0
    2.2546   -1.4405    0.0000 C   0  0  0  0  0  0  0  0  0
    1.5819   -0.9628    0.0000 C   0  0  0  0  0  0  0  0  0
    1.8284   -0.1754    0.0000 N   0  0  0  0  0  0  0  0  0
    2.6533   -0.1665    0.0000 C   0  0  0  0  0  0  0  0  0
    1.3363    0.4867    0.0000 C   0  0  0  0  0  0  0  0  0
    4.3394   -1.0824    0.0000 C   0  0  0  0  0  0  0  0  0
    5.0120   -1.5601    0.0000 C   0  0  0  0  0  0  0  0  0
    5.7620   -1.2164    0.0000 C   0  0  0  0  0  0  0  0  0
  1  2  3  0  0  0  0
  2  3  1  0  0  0  0
  3  4  4  0  0  0  0
  3  8  4  0  0  0  0
  4  5  4  0  0  0  0
  5  6  4  0  0  0  0
  6  7  4  0  0  0  0
  6  9  1  0  0  0  0
  7  8  4  0  0  0  0
  9 10  4  0  0  0  0
  9 25  4  0  0  0  0
 10 11  4  0  0  0  0
 11 12  1  0  0  0  0
 11 23  4  0  0  0  0
 12 13  1  0  0  0  0
 13 14  1  0  0  0  0
 14 15  1  0  0  0  0
 14 18  1  0  0  0  0
 14 21  1  0  0  0  0
 15 16  1  0  0  0  0
 15 23  1  0  0  0  0
 16 17  1  0  0  0  0
 17 18  1  0  0  0  0
 18 19  1  0  0  0  0
 19 20  1  0  0  0  0
 20 21  1  0  0  0  0
 20 22  1  0  0  0  0
 23 24  4  0  0  0  0
 24 25  4  0  0  0  0
M  END
>  <Name_Molregno>
561492

>  <HISTAMINE H3>
7.84

$$$$
561499
  Marvin  02231216192D 0   1.00000     0.00000     0

 25 26  0  0  0  0  0  0  0  0999 V2000
    2.6874   -3.8378    0.0000 Br  0  0  0  0  0  0  0  0  0
    2.6874   -3.0128    0.0000 C   0  0  0  0  0  0  0  0  0
    1.9729   -2.6003    0.0000 C   0  0  0  0  0  0  0  0  0
    1.9729   -1.7753    0.0000 C   0  0  0  0  0  0  0  0  0
    2.6874   -1.3628    0.0000 C   0  0  0  0  0  0  0  0  0
    3.4019   -1.7753    0.0000 C   0  0  0  0  0  0  0  0  0
    3.4019   -2.6003    0.0000 C   0  0  0  0  0  0  0  0  0
    4.1163   -3.0128    0.0000 O   0  0  0  0  0  0  0  0  0
    4.8308   -2.6003    0.0000 C   0  0  0  0  0  0  0  0  0
    5.5453   -3.0128    0.0000 C   0  0  0  0  0  0  0  0  0
    6.2598   -2.6003    0.0000 C   0  0  0  0  0  0  0  0  0
    6.9742   -3.0128    0.0000 N   0  0  0  0  0  0  0  0  0
    7.6887   -2.6003    0.0000 C   0  0  0  0  0  0  0  0  0
    6.9742   -3.8378    0.0000 C   0  0  0  0  0  0  0  0  0
    1.2585   -1.3628    0.0000 C   0  0  0  0  0  0  0  0  0
    1.2585   -0.5378    0.0000 C   0  0  0  0  0  0  0  0  0
    0.5440   -0.1253    0.0000 N   0  0  0  0  0  0  0  0  0
    0.5440    0.6997    0.0000 C   0  0  0  0  0  0  0  0  0
    1.2585    1.1122    0.0000 O   0  0  0  0  0  0  0  0  0
   -0.1705    1.1122    0.0000 C   0  0  0  0  0  0  0  0  0
   -0.9242    0.7766    0.0000 S   0  0  0  0  0  0  0  0  0
   -1.4762    1.3897    0.0000 C   0  0  0  0  0  0  0  0  0
   -1.0637    2.1042    0.0000 C   0  0  0  0  0  0  0  0  0
   -1.3992    2.8578    0.0000 Br  0  0  0  0  0  0  0  0  0
   -0.2567    1.9326    0.0000 C   0  0  0  0  0  0  0  0  0
  1  2  1  0  0  0  0
  2  3  4  0  0  0  0
  2  7  4  0  0  0  0
  3  4  4  0  0  0  0
  4  5  4  0  0  0  0
  4 15  1  0  0  0  0
  5  6  4  0  0  0  0
  6  7  4  0  0  0  0
  7  8  1  0  0  0  0
  8  9  1  0  0  0  0
  9 10  1  0  0  0  0
 10 11  1  0  0  0  0
 11 12  1  0  0  0  0
 12 13  1  0  0  0  0
 12 14  1  0  0  0  0
 15 16  1  0  0  0  0
 16 17  1  0  0  0  0
 17 18  1  0  0  0  0
 18 19  2  0  0  0  0
 18 20  1  0  0  0  0
 20 21  4  0  0  0  0
 20 25  4  0  0  0  0
 21 22  4  0  0  0  0
 22 23  4  0  0  0  0
 23 24  1  0  0  0  0
 23 25  4  0  0  0  0
M  END
>  <Name_Molregno>
561499

>  <HISTAMINE H3>
5.79

$$$$
561500
  Marvin  02231216192D 0   1.00000     0.00000     0

 26 28  0  0  0  0  0  0  0  0999 V2000
   -3.9401    0.0927    0.0000 Br  0  0  0  0  0  0  0  0  0
   -3.2256   -0.3198    0.0000 C   0  0  0  0  0  0  0  0  0
   -2.5112    0.0927    0.0000 C   0  0  0  0  0  0  0  0  0
   -1.7967   -0.3198    0.0000 C   0  0  0  0  0  0  0  0  0
   -1.7967   -1.1448    0.0000 C   0  0  0  0  0  0  0  0  0
   -2.5112   -1.5573    0.0000 C   0  0  0  0  0  0  0  0  0
   -3.2256   -1.1448    0.0000 C   0  0  0  0  0  0  0  0  0
   -3.9401   -1.5573    0.0000 O   0  0  0  0  0  0  0  0  0
   -3.9401   -2.3823    0.0000 C   0  0  0  0  0  0  0  0  0
   -4.6546   -2.7948    0.0000 C   0  0  0  0  0  0  0  0  0
   -4.6546   -3.6198    0.0000 N   0  0  0  0  0  0  0  0  0
   -3.9871   -4.1047    0.0000 C   0  0  0  0  0  0  0  0  0
   -4.2421   -4.8893    0.0000 C   0  0  0  0  0  0  0  0  0
   -5.0671   -4.8893    0.0000 C   0  0  0  0  0  0  0  0  0
   -5.3220   -4.1047    0.0000 C   0  0  0  0  0  0  0  0  0
   -1.0822    0.0927    0.0000 C   0  0  0  0  0  0  0  0  0
   -0.3678   -0.3198    0.0000 C   0  0  0  0  0  0  0  0  0
    0.3467    0.0927    0.0000 N   0  0  0  0  0  0  0  0  0
    1.0612   -0.3198    0.0000 C   0  0  0  0  0  0  0  0  0
    1.0612   -1.1448    0.0000 O   0  0  0  0  0  0  0  0  0
    1.7757    0.0927    0.0000 C   0  0  0  0  0  0  0  0  0
    1.8619    0.9132    0.0000 S   0  0  0  0  0  0  0  0  0
    2.6689    1.0847    0.0000 C   0  0  0  0  0  0  0  0  0
    3.0814    0.3703    0.0000 C   0  0  0  0  0  0  0  0  0
    3.9018    0.2840    0.0000 Br  0  0  0  0  0  0  0  0  0
    2.5293   -0.2428    0.0000 C   0  0  0  0  0  0  0  0  0
  1  2  1  0  0  0  0
  2  3  4  0  0  0  0
  2  7  4  0  0  0  0
  3  4  4  0  0  0  0
  4  5  4  0  0  0  0
  4 16  1  0  0  0  0
  5  6  4  0  0  0  0
  6  7  4  0  0  0  0
  7  8  1  0  0  0  0
  8  9  1  0  0  0  0
  9 10  1  0  0  0  0
 10 11  1  0  0  0  0
 11 12  1  0  0  0  0
 11 15  1  0  0  0  0
 12 13  1  0  0  0  0
 13 14  1  0  0  0  0
 14 15  1  0  0  0  0
 16 17  1  0  0  0  0
 17 18  1  0  0  0  0
 18 19  1  0  0  0  0
 19 20  2  0  0  0  0
 19 21  1  0  0  0  0
 21 22  4  0  0  0  0
 21 26  4  0  0  0  0
 22 23  4  0  0  0  0
 23 24  4  0  0  0  0
 24 25  1  0  0  0  0
 24 26  4  0  0  0  0
M  END
>  <Name_Molregno>
561500

>  <HISTAMINE H3>
7.1

$$$$
561928
  Marvin  02231216192D 0   1.00000     0.00000     0

 19 20  0  0  0  0  0  0  0  0999 V2000
   -8.3388   -1.0089    0.0000 N   0  0  0  0  0  0  0  0  0
   -7.7868   -0.3958    0.0000 C   0  0  0  0  0  0  0  0  0
   -7.0331   -0.7313    0.0000 C   0  0  0  0  0  0  0  0  0
   -7.1193   -1.5518    0.0000 N   0  0  0  0  0  0  0  0  0
   -7.9263   -1.7233    0.0000 C   0  0  0  0  0  0  0  0  0
   -6.3186   -0.3188    0.0000 C   0  0  0  0  0  0  0  0  0
   -5.6042   -0.7313    0.0000 C   0  0  0  0  0  0  0  0  0
   -4.8897   -0.3188    0.0000 C   0  0  0  0  0  0  0  0  0
   -4.1752   -0.7313    0.0000 N   0  0  0  0  0  0  0  0  0
   -3.4607   -0.3188    0.0000 C   0  0  0  0  0  0  0  0  0
   -2.7463   -0.7313    0.0000 N   0  0  0  0  0  0  0  0  0
   -2.0318   -0.3188    0.0000 C   0  0  0  0  0  0  0  0  0
   -1.3173   -0.7313    0.0000 C   0  0  0  0  0  0  0  0  0
   -0.6029   -0.3188    0.0000 C   0  0  0  0  0  0  0  0  0
    0.1116   -0.7313    0.0000 C   0  0  0  0  0  0  0  0  0
    0.1116   -1.5563    0.0000 C   0  0  0  0  0  0  0  0  0
   -0.6029   -1.9688    0.0000 C   0  0  0  0  0  0  0  0  0
   -1.3173   -1.5563    0.0000 C   0  0  0  0  0  0  0  0  0
   -3.4607    0.5062    0.0000 N   0  0  0  0  0  0  0  0  0
  1  2  4  0  0  0  0
  1  5  4  0  0  0  0
  2  3  4  0  0  0  0
  3  4  4  0  0  0  0
  3  6  1  0  0  0  0
  4  5  4  0  0  0  0
  6  7  1  0  0  0  0
  7  8  1  0  0  0  0
  8  9  1  0  0  0  0
  9 10  1  0  0  0  0
 10 11  1  0  0  0  0
 10 19  2  0  0  0  0
 11 12  1  0  0  0  0
 12 13  1  0  0  0  0
 13 14  4  0  0  0  0
 13 18  4  0  0  0  0
 14 15  4  0  0  0  0
 15 16  4  0  0  0  0
 16 17  4  0  0  0  0
 17 18  4  0  0  0  0
M  STY  1   1 DAT
M  SAL   1  1   1
M  SDT   1 MRV_IMPLICIT_H                                        
M  SDD   1     0.0000    0.0000    DR    ALL  0       0  
M  SED   1 IMPL_H1
M  END
>  <Name_Molregno>
561928

>  <HISTAMINE H3>
7.1

>  <HISTAMINE H4>
7.6

$$$$
561954
  Marvin  02231216192D 0   1.00000     0.00000     0

 22 23  0  0  0  0  0  0  0  0999 V2000
   -2.5479    0.5836    0.0000 S   0  0  0  0  0  0  0  0  0
   -3.2624    0.1711    0.0000 C   0  0  0  0  0  0  0  0  0
   -3.9769    0.5836    0.0000 C   0  0  0  0  0  0  0  0  0
   -4.6913    0.1711    0.0000 C   0  0  0  0  0  0  0  0  0
   -5.4058    0.5836    0.0000 C   0  0  0  0  0  0  0  0  0
   -6.1595    0.2481    0.0000 N   0  0  0  0  0  0  0  0  0
   -6.7115    0.8611    0.0000 C   0  0  0  0  0  0  0  0  0
   -6.2990    1.5756    0.0000 N   0  0  0  0  0  0  0  0  0
   -5.4920    1.4041    0.0000 C   0  0  0  0  0  0  0  0  0
   -1.8334    0.1711    0.0000 C   0  0  0  0  0  0  0  0  0
   -1.1190    0.5836    0.0000 N   0  0  0  0  0  0  0  0  0
   -0.4045    0.1711    0.0000 C   0  0  0  0  0  0  0  0  0
    0.3100    0.5836    0.0000 C   0  0  0  0  0  0  0  0  0
    1.0244    0.1711    0.0000 C   0  0  0  0  0  0  0  0  0
    1.7389    0.5836    0.0000 C   0  0  0  0  0  0  0  0  0
    2.4534    0.1711    0.0000 C   0  0  0  0  0  0  0  0  0
    3.1679    0.5836    0.0000 C   0  0  0  0  0  0  0  0  0
    3.8823    0.1711    0.0000 C   0  0  0  0  0  0  0  0  0
    3.8823   -0.6539    0.0000 C   0  0  0  0  0  0  0  0  0
    3.1679   -1.0664    0.0000 C   0  0  0  0  0  0  0  0  0
    2.4534   -0.6539    0.0000 C   0  0  0  0  0  0  0  0  0
   -1.8334   -0.6539    0.0000 N   0  0  0  0  0  0  0  0  0
  1  2  1  0  0  0  0
  1 10  1  0  0  0  0
  2  3  1  0  0  0  0
  3  4  1  0  0  0  0
  4  5  1  0  0  0  0
  5  6  4  0  0  0  0
  5  9  4  0  0  0  0
  6  7  4  0  0  0  0
  7  8  4  0  0  0  0
  8  9  4  0  0  0  0
 10 11  1  0  0  0  0
 10 22  2  0  0  0  0
 11 12  1  0  0  0  0
 12 13  1  0  0  0  0
 13 14  1  0  0  0  0
 14 15  1  0  0  0  0
 15 16  1  0  0  0  0
 16 17  4  0  0  0  0
 16 21  4  0  0  0  0
 17 18  4  0  0  0  0
 18 19  4  0  0  0  0
 19 20  4  0  0  0  0
 20 21  4  0  0  0  0
M  STY  1   1 DAT
M  SAL   1  1   8
M  SDT   1 MRV_IMPLICIT_H                                        
M  SDD   1     0.0000    0.0000    DR    ALL  0       0  
M  SED   1 IMPL_H1
M  END
>  <Name_Molregno>
561954

>  <HISTAMINE H3>
7.7

>  <HISTAMINE H4>
7.2

$$$$
562832
  Marvin  02231216192D 0   1.00000     0.00000     0

 29 32  0  0  0  0  0  0  0  0999 V2000
   -3.6434   -0.0166    0.0000 O   0  0  0  0  0  0  0  0  0
   -4.3579    0.3959    0.0000 C   0  0  0  0  0  0  0  0  0
   -5.0724   -0.0166    0.0000 C   0  0  0  0  0  0  0  0  0
   -5.7868    0.3959    0.0000 C   0  0  0  0  0  0  0  0  0
   -5.7868    1.2209    0.0000 N   0  0  0  0  0  0  0  0  0
   -5.0724    1.6334    0.0000 C   0  0  0  0  0  0  0  0  0
   -4.3579    1.2209    0.0000 C   0  0  0  0  0  0  0  0  0
   -6.5013    1.6334    0.0000 C   0  0  0  0  0  0  0  0  0
   -6.5013    2.4584    0.0000 C   0  0  0  0  0  0  0  0  0
   -7.2158    1.2209    0.0000 C   0  0  0  0  0  0  0  0  0
   -2.9289    0.3959    0.0000 C   0  0  0  0  0  0  0  0  0
   -2.2145   -0.0166    0.0000 C   0  0  0  0  0  0  0  0  0
   -1.5000    0.3959    0.0000 C   0  0  0  0  0  0  0  0  0
   -1.5000    1.2209    0.0000 C   0  0  0  0  0  0  0  0  0
   -0.7855    1.6334    0.0000 C   0  0  0  0  0  0  0  0  0
   -0.0711    1.2209    0.0000 C   0  0  0  0  0  0  0  0  0
   -0.0711    0.3959    0.0000 C   0  0  0  0  0  0  0  0  0
   -0.7855   -0.0166    0.0000 C   0  0  0  0  0  0  0  0  0
    0.6434    1.6334    0.0000 C   0  0  0  0  0  0  0  0  0
    0.6434    2.4584    0.0000 O   0  0  0  0  0  0  0  0  0
    1.3579    1.2209    0.0000 N   0  0  0  0  0  0  0  0  0
    2.0724    1.6334    0.0000 C   0  0  0  0  0  0  0  0  0
    2.7868    1.2209    0.0000 C   0  0  0  0  0  0  0  0  0
    2.7868    0.3959    0.0000 C   0  0  0  0  0  0  0  0  0
    2.0724   -0.0166    0.0000 C   0  0  0  0  0  0  0  0  0
    1.3579    0.3959    0.0000 C   0  0  0  0  0  0  0  0  0
    3.5013   -0.0166    0.0000 C   0  0  0  0  0  0  0  0  0
   -2.2145    1.6334    0.0000 C   0  0  0  0  0  0  0  0  0
   -2.9289    1.2209    0.0000 C   0  0  0  0  0  0  0  0  0
  1  2  1  0  0  0  0
  1 11  1  0  0  0  0
  2  3  1  0  0  0  0
  2  7  1  0  0  0  0
  3  4  1  0  0  0  0
  4  5  1  0  0  0  0
  5  6  1  0  0  0  0
  5  8  1  0  0  0  0
  6  7  1  0  0  0  0
  8  9  1  0  0  0  0
  8 10  1  0  0  0  0
 11 12  4  0  0  0  0
 11 29  4  0  0  0  0
 12 13  4  0  0  0  0
 13 14  4  0  0  0  0
 13 18  4  0  0  0  0
 14 15  4  0  0  0  0
 14 28  4  0  0  0  0
 15 16  4  0  0  0  0
 16 17  4  0  0  0  0
 16 19  1  0  0  0  0
 17 18  4  0  0  0  0
 19 20  2  0  0  0  0
 19 21  1  0  0  0  0
 21 22  1  0  0  0  0
 21 26  1  0  0  0  0
 22 23  1  0  0  0  0
 23 24  1  0  0  0  0
 24 25  1  0  0  0  0
 24 27  1  0  0  0  0
 25 26  1  0  0  0  0
 28 29  4  0  0  0  0
M  END
>  <Name_Molregno>
562832

>  <HISTAMINE H3>
7.47

$$$$
562844
  Marvin  02231216192D 0   1.00000     0.00000     0

 28 31  0  0  0  0  0  0  0  0999 V2000
   -9.4221    0.0384    0.0000 O   0  0  0  0  0  0  0  0  0
   -8.7076    0.4509    0.0000 C   0  0  0  0  0  0  0  0  0
   -7.9932    0.0384    0.0000 C   0  0  0  0  0  0  0  0  0
   -7.9932   -0.7866    0.0000 N   0  0  0  0  0  0  0  0  0
   -8.7076   -1.1991    0.0000 C   0  0  0  0  0  0  0  0  0
   -9.4221   -0.7866    0.0000 C   0  0  0  0  0  0  0  0  0
   -7.2787   -1.1991    0.0000 C   0  0  0  0  0  0  0  0  0
   -7.2787   -2.0241    0.0000 O   0  0  0  0  0  0  0  0  0
   -6.5642   -0.7866    0.0000 C   0  0  0  0  0  0  0  0  0
   -5.8497   -1.1991    0.0000 C   0  0  0  0  0  0  0  0  0
   -5.1353   -0.7866    0.0000 C   0  0  0  0  0  0  0  0  0
   -5.1353    0.0384    0.0000 C   0  0  0  0  0  0  0  0  0
   -4.4208    0.4509    0.0000 C   0  0  0  0  0  0  0  0  0
   -3.7063    0.0384    0.0000 C   0  0  0  0  0  0  0  0  0
   -2.9919    0.4509    0.0000 O   0  0  0  0  0  0  0  0  0
   -2.2774    0.0384    0.0000 C   0  0  0  0  0  0  0  0  0
   -1.5629    0.4509    0.0000 C   0  0  0  0  0  0  0  0  0
   -0.8485    0.0384    0.0000 C   0  0  0  0  0  0  0  0  0
   -0.8485   -0.7866    0.0000 N   0  0  0  0  0  0  0  0  0
   -1.5629   -1.1991    0.0000 C   0  0  0  0  0  0  0  0  0
   -2.2774   -0.7866    0.0000 C   0  0  0  0  0  0  0  0  0
   -0.1340   -1.1991    0.0000 C   0  0  0  0  0  0  0  0  0
    0.5805   -0.7866    0.0000 C   0  0  0  0  0  0  0  0  0
   -0.1340   -2.0241    0.0000 C   0  0  0  0  0  0  0  0  0
   -3.7063   -0.7866    0.0000 C   0  0  0  0  0  0  0  0  0
   -4.4208   -1.1991    0.0000 C   0  0  0  0  0  0  0  0  0
   -5.8497    0.4509    0.0000 C   0  0  0  0  0  0  0  0  0
   -6.5642    0.0384    0.0000 C   0  0  0  0  0  0  0  0  0
  1  2  1  0  0  0  0
  1  6  1  0  0  0  0
  2  3  1  0  0  0  0
  3  4  1  0  0  0  0
  4  5  1  0  0  0  0
  4  7  1  0  0  0  0
  5  6  1  0  0  0  0
  7  8  2  0  0  0  0
  7  9  1  0  0  0  0
  9 10  4  0  0  0  0
  9 28  4  0  0  0  0
 10 11  4  0  0  0  0
 11 12  4  0  0  0  0
 11 26  4  0  0  0  0
 12 13  4  0  0  0  0
 12 27  4  0  0  0  0
 13 14  4  0  0  0  0
 14 15  1  0  0  0  0
 14 25  4  0  0  0  0
 15 16  1  0  0  0  0
 16 17  1  0  0  0  0
 16 21  1  0  0  0  0
 17 18  1  0  0  0  0
 18 19  1  0  0  0  0
 19 20  1  0  0  0  0
 19 22  1  0  0  0  0
 20 21  1  0  0  0  0
 22 23  1  0  0  0  0
 22 24  1  0  0  0  0
 25 26  4  0  0  0  0
 27 28  4  0  0  0  0
M  END
>  <Name_Molregno>
562844

>  <HISTAMINE H3>
7.4

$$$$
563105
  Marvin  02231216192D 0   1.00000     0.00000     0

 21 24  0  0  1  0  0  0  0  0999 V2000
   -1.1369    0.9650    0.0000 N   0  0  0  0  0  0  0  0  0
   -0.3523    1.2200    0.0000 C   0  0  0  0  0  0  0  0  0
   -0.3523    2.0450    0.0000 C   0  0  0  0  0  0  0  0  0
   -1.1369    2.2999    0.0000 C   0  0  0  0  0  0  0  0  0
   -1.6219    1.6325    0.0000 C   0  0  0  0  0  0  0  0  0
    0.4323    2.2999    0.0000 C   0  0  0  0  0  0  0  0  0
    0.9172    1.6325    0.0000 N   0  0  0  0  0  0  0  0  0
    0.4323    0.9650    0.0000 C   0  0  0  0  0  0  0  0  0
    1.7422    1.6325    0.0000 C   0  0  0  0  0  0  0  0  0
   -1.3919    0.1804    0.0000 C   0  0  0  0  0  0  0  0  0
   -0.8399   -0.4327    0.0000 C   0  0  0  0  0  0  0  0  0
   -1.0948   -1.2173    0.0000 C   0  0  0  0  0  0  0  0  0
   -1.9018   -1.3888    0.0000 C   0  0  0  0  0  0  0  0  0
   -2.4538   -0.7757    0.0000 C   0  0  0  0  0  0  0  0  0
   -2.1989    0.0089    0.0000 C   0  0  0  0  0  0  0  0  0
   -2.1567   -2.1735    0.0000 C   0  0  0  0  0  0  0  0  0
   -1.6047   -2.7865    0.0000 C   0  0  0  0  0  0  0  0  0
   -1.8596   -3.5712    0.0000 C   0  0  0  0  0  0  0  0  0
   -2.6666   -3.7427    0.0000 C   0  0  0  0  0  0  0  0  0
   -3.2186   -3.1296    0.0000 C   0  0  0  0  0  0  0  0  0
   -2.9637   -2.3450    0.0000 C   0  0  0  0  0  0  0  0  0
  1  2  1  0  0  0  0
  1  5  1  0  0  0  0
  1 10  1  0  0  0  0
  2  3  1  0  0  0  0
  2  8  1  0  0  0  0
  3  4  1  0  0  0  0
  3  6  1  0  0  0  0
  4  5  1  0  0  0  0
  6  7  1  0  0  0  0
  7  8  1  0  0  0  0
  7  9  1  0  0  0  0
 10 11  4  0  0  0  0
 10 15  4  0  0  0  0
 11 12  4  0  0  0  0
 12 13  4  0  0  0  0
 13 14  4  0  0  0  0
 13 16  1  0  0  0  0
 14 15  4  0  0  0  0
 16 17  4  0  0  0  0
 16 21  4  0  0  0  0
 17 18  4  0  0  0  0
 18 19  4  0  0  0  0
 19 20  4  0  0  0  0
 20 21  4  0  0  0  0
M  END
>  <Name_Molregno>
563105

>  <HISTAMINE H3>
7.88

$$$$
563107
  Marvin  02231216192D 0   1.00000     0.00000     0

 25 27  0  0  0  0  0  0  0  0999 V2000
   -1.6804    0.5012    0.0000 Br  0  0  0  0  0  0  0  0  0
   -1.6804   -0.3238    0.0000 C   0  0  0  0  0  0  0  0  0
   -0.9659   -0.7363    0.0000 C   0  0  0  0  0  0  0  0  0
   -0.9659   -1.5613    0.0000 C   0  0  0  0  0  0  0  0  0
   -1.6804   -1.9738    0.0000 C   0  0  0  0  0  0  0  0  0
   -2.3949   -1.5613    0.0000 C   0  0  0  0  0  0  0  0  0
   -2.3949   -0.7363    0.0000 C   0  0  0  0  0  0  0  0  0
   -3.1093   -0.3238    0.0000 O   0  0  0  0  0  0  0  0  0
   -3.8238   -0.7363    0.0000 C   0  0  0  0  0  0  0  0  0
   -4.5383   -0.3238    0.0000 C   0  0  0  0  0  0  0  0  0
   -5.2527   -0.7363    0.0000 N   0  0  0  0  0  0  0  0  0
   -5.3390   -1.5568    0.0000 C   0  0  0  0  0  0  0  0  0
   -6.1460   -1.7284    0.0000 C   0  0  0  0  0  0  0  0  0
   -6.5585   -1.0139    0.0000 C   0  0  0  0  0  0  0  0  0
   -6.0064   -0.4008    0.0000 C   0  0  0  0  0  0  0  0  0
   -0.2514   -1.9738    0.0000 C   0  0  0  0  0  0  0  0  0
    0.4630   -1.5613    0.0000 C   0  0  0  0  0  0  0  0  0
    1.1775   -1.9738    0.0000 N   0  0  0  0  0  0  0  0  0
    1.8920   -1.5613    0.0000 C   0  0  0  0  0  0  0  0  0
    1.8920   -0.7363    0.0000 O   0  0  0  0  0  0  0  0  0
    2.6064   -1.9738    0.0000 C   0  0  0  0  0  0  0  0  0
    3.3601   -1.6383    0.0000 N   0  0  0  0  0  0  0  0  0
    3.9121   -2.2514    0.0000 C   0  0  0  0  0  0  0  0  0
    3.4996   -2.9659    0.0000 N   0  0  0  0  0  0  0  0  0
    2.6927   -2.7943    0.0000 N   0  0  0  0  0  0  0  0  0
  1  2  1  0  0  0  0
  2  3  4  0  0  0  0
  2  7  4  0  0  0  0
  3  4  4  0  0  0  0
  4  5  4  0  0  0  0
  4 16  1  0  0  0  0
  5  6  4  0  0  0  0
  6  7  4  0  0  0  0
  7  8  1  0  0  0  0
  8  9  1  0  0  0  0
  9 10  1  0  0  0  0
 10 11  1  0  0  0  0
 11 12  1  0  0  0  0
 11 15  1  0  0  0  0
 12 13  1  0  0  0  0
 13 14  1  0  0  0  0
 14 15  1  0  0  0  0
 16 17  1  0  0  0  0
 17 18  1  0  0  0  0
 18 19  1  0  0  0  0
 19 20  2  0  0  0  0
 19 21  1  0  0  0  0
 21 22  4  0  0  0  0
 21 25  4  0  0  0  0
 22 23  4  0  0  0  0
 23 24  4  0  0  0  0
 24 25  4  0  0  0  0
M  STY  1   1 DAT
M  SAL   1  1  22
M  SDT   1 MRV_IMPLICIT_H                                        
M  SDD   1     0.0000    0.0000    DR    ALL  0       0  
M  SED   1 IMPL_H1
M  END
>  <Name_Molregno>
563107

>  <HISTAMINE H3>
6.37

$$$$
563108
  Marvin  02231216192D 0   1.00000     0.00000     0

 25 27  0  0  0  0  0  0  0  0999 V2000
   -1.6804    0.5012    0.0000 Br  0  0  0  0  0  0  0  0  0
   -1.6804   -0.3238    0.0000 C   0  0  0  0  0  0  0  0  0
   -0.9659   -0.7363    0.0000 C   0  0  0  0  0  0  0  0  0
   -0.9659   -1.5613    0.0000 C   0  0  0  0  0  0  0  0  0
   -1.6804   -1.9738    0.0000 C   0  0  0  0  0  0  0  0  0
   -2.3949   -1.5613    0.0000 C   0  0  0  0  0  0  0  0  0
   -2.3949   -0.7363    0.0000 C   0  0  0  0  0  0  0  0  0
   -3.1093   -0.3238    0.0000 O   0  0  0  0  0  0  0  0  0
   -3.8238   -0.7363    0.0000 C   0  0  0  0  0  0  0  0  0
   -4.5383   -0.3238    0.0000 C   0  0  0  0  0  0  0  0  0
   -5.2527   -0.7363    0.0000 N   0  0  0  0  0  0  0  0  0
   -5.3390   -1.5568    0.0000 C   0  0  0  0  0  0  0  0  0
   -6.1460   -1.7284    0.0000 C   0  0  0  0  0  0  0  0  0
   -6.5585   -1.0139    0.0000 C   0  0  0  0  0  0  0  0  0
   -6.0064   -0.4008    0.0000 C   0  0  0  0  0  0  0  0  0
   -0.2514   -1.9738    0.0000 C   0  0  0  0  0  0  0  0  0
    0.4630   -1.5613    0.0000 C   0  0  0  0  0  0  0  0  0
    1.1775   -1.9738    0.0000 N   0  0  0  0  0  0  0  0  0
    1.8920   -1.5613    0.0000 C   0  0  0  0  0  0  0  0  0
    1.8920   -0.7363    0.0000 O   0  0  0  0  0  0  0  0  0
    2.6064   -1.9738    0.0000 C   0  0  0  0  0  0  0  0  0
    3.3601   -1.6383    0.0000 S   0  0  0  0  0  0  0  0  0
    3.9121   -2.2514    0.0000 C   0  0  0  0  0  0  0  0  0
    3.4996   -2.9659    0.0000 N   0  0  0  0  0  0  0  0  0
    2.6927   -2.7943    0.0000 C   0  0  0  0  0  0  0  0  0
  1  2  1  0  0  0  0
  2  3  4  0  0  0  0
  2  7  4  0  0  0  0
  3  4  4  0  0  0  0
  4  5  4  0  0  0  0
  4 16  1  0  0  0  0
  5  6  4  0  0  0  0
  6  7  4  0  0  0  0
  7  8  1  0  0  0  0
  8  9  1  0  0  0  0
  9 10  1  0  0  0  0
 10 11  1  0  0  0  0
 11 12  1  0  0  0  0
 11 15  1  0  0  0  0
 12 13  1  0  0  0  0
 13 14  1  0  0  0  0
 14 15  1  0  0  0  0
 16 17  1  0  0  0  0
 17 18  1  0  0  0  0
 18 19  1  0  0  0  0
 19 20  2  0  0  0  0
 19 21  1  0  0  0  0
 21 22  4  0  0  0  0
 21 25  4  0  0  0  0
 22 23  4  0  0  0  0
 23 24  4  0  0  0  0
 24 25  4  0  0  0  0
M  END
>  <Name_Molregno>
563108

>  <HISTAMINE H3>
6.92

$$$$
563112
  Marvin  02231216192D 0   1.00000     0.00000     0

 22 25  0  0  1  0  0  0  0  0999 V2000
    2.5794   -3.7001    0.0000 F   0  0  0  0  0  0  0  0  0
    2.8344   -2.9155    0.0000 C   0  0  0  0  0  0  0  0  0
    2.2823   -2.3024    0.0000 C   0  0  0  0  0  0  0  0  0
    2.5373   -1.5178    0.0000 C   0  0  0  0  0  0  0  0  0
    3.3442   -1.3462    0.0000 C   0  0  0  0  0  0  0  0  0
    3.8963   -1.9593    0.0000 C   0  0  0  0  0  0  0  0  0
    3.6413   -2.7440    0.0000 C   0  0  0  0  0  0  0  0  0
    3.5992   -0.5616    0.0000 C   0  0  0  0  0  0  0  0  0
    3.0472    0.0515    0.0000 C   0  0  0  0  0  0  0  0  0
    3.3021    0.8361    0.0000 C   0  0  0  0  0  0  0  0  0
    4.1091    1.0076    0.0000 C   0  0  0  0  0  0  0  0  0
    4.3640    1.7923    0.0000 N   0  0  0  0  0  0  0  0  0
    5.1486    2.0472    0.0000 C   0  0  0  0  0  0  0  0  0
    5.1486    2.8722    0.0000 C   0  0  0  0  0  0  0  0  0
    4.3640    3.1271    0.0000 C   0  0  0  0  0  0  0  0  0
    3.8791    2.4597    0.0000 C   0  0  0  0  0  0  0  0  0
    5.9332    3.1271    0.0000 C   0  0  0  0  0  0  0  0  0
    6.4182    2.4597    0.0000 N   0  0  0  0  0  0  0  0  0
    5.9332    1.7923    0.0000 C   0  0  0  0  0  0  0  0  0
    7.2432    2.4597    0.0000 C   0  0  0  0  0  0  0  0  0
    4.6611    0.3945    0.0000 C   0  0  0  0  0  0  0  0  0
    4.4062   -0.3901    0.0000 C   0  0  0  0  0  0  0  0  0
  1  2  1  0  0  0  0
  2  3  4  0  0  0  0
  2  7  4  0  0  0  0
  3  4  4  0  0  0  0
  4  5  4  0  0  0  0
  5  6  4  0  0  0  0
  5  8  1  0  0  0  0
  6  7  4  0  0  0  0
  8  9  4  0  0  0  0
  8 22  4  0  0  0  0
  9 10  4  0  0  0  0
 10 11  4  0  0  0  0
 11 12  1  0  0  0  0
 11 21  4  0  0  0  0
 12 13  1  0  0  0  0
 12 16  1  0  0  0  0
 13 14  1  0  0  0  0
 13 19  1  0  0  0  0
 14 15  1  0  0  0  0
 14 17  1  0  0  0  0
 15 16  1  0  0  0  0
 17 18  1  0  0  0  0
 18 19  1  0  0  0  0
 18 20  1  0  0  0  0
 21 22  4  0  0  0  0
M  END
>  <Name_Molregno>
563112

>  <HISTAMINE H3>
7.97

$$$$
563113
  Marvin  02231216192D 0   1.00000     0.00000     0

 27 29  0  0  0  0  0  0  0  0999 V2000
   -2.4649    0.7107    0.0000 Br  0  0  0  0  0  0  0  0  0
   -2.4649   -0.1143    0.0000 C   0  0  0  0  0  0  0  0  0
   -1.7505   -0.5268    0.0000 C   0  0  0  0  0  0  0  0  0
   -1.7505   -1.3518    0.0000 C   0  0  0  0  0  0  0  0  0
   -2.4649   -1.7643    0.0000 C   0  0  0  0  0  0  0  0  0
   -3.1794   -1.3518    0.0000 C   0  0  0  0  0  0  0  0  0
   -3.1794   -0.5268    0.0000 C   0  0  0  0  0  0  0  0  0
   -3.8939   -0.1143    0.0000 O   0  0  0  0  0  0  0  0  0
   -4.6084   -0.5268    0.0000 C   0  0  0  0  0  0  0  0  0
   -5.3228   -0.1143    0.0000 C   0  0  0  0  0  0  0  0  0
   -6.0373   -0.5268    0.0000 N   0  0  0  0  0  0  0  0  0
   -6.1235   -1.3473    0.0000 C   0  0  0  0  0  0  0  0  0
   -6.9305   -1.5188    0.0000 C   0  0  0  0  0  0  0  0  0
   -7.3430   -0.8043    0.0000 C   0  0  0  0  0  0  0  0  0
   -6.7910   -0.1912    0.0000 C   0  0  0  0  0  0  0  0  0
   -1.0360   -1.7643    0.0000 C   0  0  0  0  0  0  0  0  0
   -0.3215   -1.3518    0.0000 C   0  0  0  0  0  0  0  0  0
    0.3929   -1.7643    0.0000 N   0  0  0  0  0  0  0  0  0
    1.1074   -1.3518    0.0000 C   0  0  0  0  0  0  0  0  0
    1.1074   -0.5268    0.0000 O   0  0  0  0  0  0  0  0  0
    1.8219   -1.7643    0.0000 C   0  0  0  0  0  0  0  0  0
    2.5364   -1.3518    0.0000 C   0  0  0  0  0  0  0  0  0
    3.2508   -1.7643    0.0000 C   0  0  0  0  0  0  0  0  0
    3.9653   -1.3518    0.0000 Br  0  0  0  0  0  0  0  0  0
    3.2508   -2.5893    0.0000 C   0  0  0  0  0  0  0  0  0
    2.5364   -3.0018    0.0000 C   0  0  0  0  0  0  0  0  0
    1.8219   -2.5893    0.0000 C   0  0  0  0  0  0  0  0  0
  1  2  1  0  0  0  0
  2  3  4  0  0  0  0
  2  7  4  0  0  0  0
  3  4  4  0  0  0  0
  4  5  4  0  0  0  0
  4 16  1  0  0  0  0
  5  6  4  0  0  0  0
  6  7  4  0  0  0  0
  7  8  1  0  0  0  0
  8  9  1  0  0  0  0
  9 10  1  0  0  0  0
 10 11  1  0  0  0  0
 11 12  1  0  0  0  0
 11 15  1  0  0  0  0
 12 13  1  0  0  0  0
 13 14  1  0  0  0  0
 14 15  1  0  0  0  0
 16 17  1  0  0  0  0
 17 18  1  0  0  0  0
 18 19  1  0  0  0  0
 19 20  2  0  0  0  0
 19 21  1  0  0  0  0
 21 22  4  0  0  0  0
 21 27  4  0  0  0  0
 22 23  4  0  0  0  0
 23 24  1  0  0  0  0
 23 25  4  0  0  0  0
 25 26  4  0  0  0  0
 26 27  4  0  0  0  0
M  END
>  <Name_Molregno>
563113

>  <HISTAMINE H3>
6.68

$$$$
563114
  Marvin  02231216192D 0   1.00000     0.00000     0

 30 32  0  0  0  0  0  0  0  0999 V2000
    1.6901    0.7276    0.0000 Br  0  0  0  0  0  0  0  0  0
    1.6901   -0.0974    0.0000 C   0  0  0  0  0  0  0  0  0
    2.4046   -0.5099    0.0000 C   0  0  0  0  0  0  0  0  0
    2.4046   -1.3349    0.0000 C   0  0  0  0  0  0  0  0  0
    1.6901   -1.7474    0.0000 C   0  0  0  0  0  0  0  0  0
    0.9756   -1.3349    0.0000 C   0  0  0  0  0  0  0  0  0
    0.9756   -0.5099    0.0000 C   0  0  0  0  0  0  0  0  0
    0.2611   -0.0974    0.0000 O   0  0  0  0  0  0  0  0  0
   -0.4533   -0.5099    0.0000 C   0  0  0  0  0  0  0  0  0
   -1.1678   -0.0974    0.0000 C   0  0  0  0  0  0  0  0  0
   -1.8823   -0.5099    0.0000 N   0  0  0  0  0  0  0  0  0
   -1.9685   -1.3304    0.0000 C   0  0  0  0  0  0  0  0  0
   -2.7755   -1.5020    0.0000 C   0  0  0  0  0  0  0  0  0
   -3.1880   -0.7875    0.0000 C   0  0  0  0  0  0  0  0  0
   -2.6359   -0.1744    0.0000 C   0  0  0  0  0  0  0  0  0
    3.1190   -1.7474    0.0000 C   0  0  0  0  0  0  0  0  0
    3.8335   -1.3349    0.0000 C   0  0  0  0  0  0  0  0  0
    4.5480   -1.7474    0.0000 N   0  0  0  0  0  0  0  0  0
    5.2624   -1.3349    0.0000 C   0  0  0  0  0  0  0  0  0
    5.2624   -0.5099    0.0000 O   0  0  0  0  0  0  0  0  0
    5.9769   -1.7474    0.0000 C   0  0  0  0  0  0  0  0  0
    6.6914   -1.3349    0.0000 C   0  0  0  0  0  0  0  0  0
    7.4059   -1.7474    0.0000 C   0  0  0  0  0  0  0  0  0
    7.4059   -2.5724    0.0000 C   0  0  0  0  0  0  0  0  0
    6.6914   -2.9849    0.0000 C   0  0  0  0  0  0  0  0  0
    5.9769   -2.5724    0.0000 C   0  0  0  0  0  0  0  0  0
    8.1203   -1.3349    0.0000 C   0  0  0  0  0  0  0  0  0
    8.8348   -0.9224    0.0000 F   0  0  0  0  0  0  0  0  0
    8.5328   -2.0494    0.0000 F   0  0  0  0  0  0  0  0  0
    7.7078   -0.6205    0.0000 F   0  0  0  0  0  0  0  0  0
  1  2  1  0  0  0  0
  2  3  4  0  0  0  0
  2  7  4  0  0  0  0
  3  4  4  0  0  0  0
  4  5  4  0  0  0  0
  4 16  1  0  0  0  0
  5  6  4  0  0  0  0
  6  7  4  0  0  0  0
  7  8  1  0  0  0  0
  8  9  1  0  0  0  0
  9 10  1  0  0  0  0
 10 11  1  0  0  0  0
 11 12  1  0  0  0  0
 11 15  1  0  0  0  0
 12 13  1  0  0  0  0
 13 14  1  0  0  0  0
 14 15  1  0  0  0  0
 16 17  1  0  0  0  0
 17 18  1  0  0  0  0
 18 19  1  0  0  0  0
 19 20  2  0  0  0  0
 19 21  1  0  0  0  0
 21 22  4  0  0  0  0
 21 26  4  0  0  0  0
 22 23  4  0  0  0  0
 23 24  4  0  0  0  0
 23 27  1  0  0  0  0
 24 25  4  0  0  0  0
 25 26  4  0  0  0  0
 27 28  1  0  0  0  0
 27 29  1  0  0  0  0
 27 30  1  0  0  0  0
M  END
>  <Name_Molregno>
563114

>  <HISTAMINE H3>
6.36

$$$$
563200
  Marvin  02231216192D 0   1.00000     0.00000     0

 22 25  0  0  1  0  0  0  0  0999 V2000
   -5.5738   -3.6584    0.0000 N   0  0  0  0  0  0  0  0  0
   -5.0889   -4.3259    0.0000 C   0  0  0  0  0  0  0  0  0
   -4.3043   -4.0709    0.0000 C   0  0  0  0  0  0  0  0  0
   -4.3043   -3.2459    0.0000 C   0  0  0  0  0  0  0  0  0
   -3.5197   -2.9910    0.0000 N   0  0  0  0  0  0  0  0  0
   -3.0347   -3.6584    0.0000 C   0  0  0  0  0  0  0  0  0
   -3.5197   -4.3259    0.0000 C   0  0  0  0  0  0  0  0  0
   -3.2647   -2.2064    0.0000 C   0  0  0  0  0  0  0  0  0
   -3.8167   -1.5933    0.0000 C   0  0  0  0  0  0  0  0  0
   -3.5618   -0.8086    0.0000 C   0  0  0  0  0  0  0  0  0
   -2.7548   -0.6371    0.0000 C   0  0  0  0  0  0  0  0  0
   -2.2028   -1.2502    0.0000 C   0  0  0  0  0  0  0  0  0
   -2.4577   -2.0348    0.0000 C   0  0  0  0  0  0  0  0  0
   -2.4999    0.1475    0.0000 C   0  0  0  0  0  0  0  0  0
   -3.0519    0.7606    0.0000 C   0  0  0  0  0  0  0  0  0
   -2.7970    1.5452    0.0000 C   0  0  0  0  0  0  0  0  0
   -1.9900    1.7167    0.0000 C   0  0  0  0  0  0  0  0  0
   -1.4380    1.1037    0.0000 C   0  0  0  0  0  0  0  0  0
   -1.6929    0.3190    0.0000 C   0  0  0  0  0  0  0  0  0
   -1.7351    2.5014    0.0000 C   0  0  0  0  0  0  0  0  0
   -1.4801    3.2860    0.0000 N   0  0  0  0  0  0  0  0  0
   -5.0889   -2.9910    0.0000 C   0  0  0  0  0  0  0  0  0
  1  2  1  0  0  0  0
  1 22  1  0  0  0  0
  2  3  1  0  0  0  0
  3  4  1  0  0  0  0
  3  7  1  0  0  0  0
  4  5  1  0  0  0  0
  4 22  1  0  0  0  0
  5  6  1  0  0  0  0
  5  8  1  0  0  0  0
  6  7  1  0  0  0  0
  8  9  4  0  0  0  0
  8 13  4  0  0  0  0
  9 10  4  0  0  0  0
 10 11  4  0  0  0  0
 11 12  4  0  0  0  0
 11 14  1  0  0  0  0
 12 13  4  0  0  0  0
 14 15  4  0  0  0  0
 14 19  4  0  0  0  0
 15 16  4  0  0  0  0
 16 17  4  0  0  0  0
 17 18  4  0  0  0  0
 17 20  1  0  0  0  0
 18 19  4  0  0  0  0
 20 21  3  0  0  0  0
M  END
>  <Name_Molregno>
563200

>  <HISTAMINE H3>
6.49

$$$$
563211
  Marvin  02231216192D 0   1.00000     0.00000     0

 26 30  0  0  1  0  0  0  0  0999 V2000
    3.0659   -4.2080    0.0000 N   0  0  0  0  0  0  0  0  0
    3.3209   -3.4233    0.0000 C   0  0  0  0  0  0  0  0  0
    3.5758   -2.6387    0.0000 C   0  0  0  0  0  0  0  0  0
    3.0238   -2.0256    0.0000 C   0  0  0  0  0  0  0  0  0
    3.2787   -1.2410    0.0000 C   0  0  0  0  0  0  0  0  0
    4.0857   -1.0695    0.0000 C   0  0  0  0  0  0  0  0  0
    4.6377   -1.6826    0.0000 C   0  0  0  0  0  0  0  0  0
    4.3828   -2.4672    0.0000 C   0  0  0  0  0  0  0  0  0
    4.3406   -0.2849    0.0000 C   0  0  0  0  0  0  0  0  0
    3.7886    0.3282    0.0000 C   0  0  0  0  0  0  0  0  0
    4.0436    1.1129    0.0000 C   0  0  0  0  0  0  0  0  0
    4.8505    1.2844    0.0000 C   0  0  0  0  0  0  0  0  0
    5.1055    2.0690    0.0000 N   0  0  0  0  0  0  0  0  0
    5.8901    2.3240    0.0000 C   0  0  0  0  0  0  0  0  0
    5.8901    3.1490    0.0000 C   0  0  0  0  0  0  0  0  0
    5.1055    3.4039    0.0000 C   0  0  0  0  0  0  0  0  0
    4.6205    2.7365    0.0000 C   0  0  0  0  0  0  0  0  0
    6.6747    3.4039    0.0000 C   0  0  0  0  0  0  0  0  0
    7.1596    2.7365    0.0000 N   0  0  0  0  0  0  0  0  0
    6.6747    2.0690    0.0000 C   0  0  0  0  0  0  0  0  0
    7.9846    2.7365    0.0000 C   0  0  0  0  0  0  0  0  0
    8.3971    2.0220    0.0000 C   0  0  0  0  0  0  0  0  0
    9.1116    1.6095    0.0000 C   0  0  0  0  0  0  0  0  0
    8.3971    1.1970    0.0000 C   0  0  0  0  0  0  0  0  0
    5.4026    0.6713    0.0000 C   0  0  0  0  0  0  0  0  0
    5.1476   -0.1133    0.0000 C   0  0  0  0  0  0  0  0  0
  1  2  3  0  0  0  0
  2  3  1  0  0  0  0
  3  4  4  0  0  0  0
  3  8  4  0  0  0  0
  4  5  4  0  0  0  0
  5  6  4  0  0  0  0
  6  7  4  0  0  0  0
  6  9  1  0  0  0  0
  7  8  4  0  0  0  0
  9 10  4  0  0  0  0
  9 26  4  0  0  0  0
 10 11  4  0  0  0  0
 11 12  4  0  0  0  0
 12 13  1  0  0  0  0
 12 25  4  0  0  0  0
 13 14  1  0  0  0  0
 13 17  1  0  0  0  0
 14 15  1  0  0  0  0
 14 20  1  0  0  0  0
 15 16  1  0  0  0  0
 15 18  1  0  0  0  0
 16 17  1  0  0  0  0
 18 19  1  0  0  0  0
 19 20  1  0  0  0  0
 19 21  1  0  0  0  0
 21 22  1  0  0  0  0
 22 23  1  0  0  0  0
 22 24  1  0  0  0  0
 23 24  1  0  0  0  0
 25 26  4  0  0  0  0
M  END
>  <Name_Molregno>
563211

>  <HISTAMINE H3>
7.26

$$$$
563225
  Marvin  02231216192D 0   1.00000     0.00000     0

 27 31  0  0  1  0  0  0  0  0999 V2000
    3.1145   -4.5236    0.0000 N   0  0  0  0  0  0  0  0  0
    3.3695   -3.7390    0.0000 C   0  0  0  0  0  0  0  0  0
    3.6244   -2.9543    0.0000 C   0  0  0  0  0  0  0  0  0
    3.0724   -2.3412    0.0000 C   0  0  0  0  0  0  0  0  0
    3.3273   -1.5566    0.0000 C   0  0  0  0  0  0  0  0  0
    4.1343   -1.3851    0.0000 C   0  0  0  0  0  0  0  0  0
    4.6863   -1.9982    0.0000 C   0  0  0  0  0  0  0  0  0
    4.4314   -2.7828    0.0000 C   0  0  0  0  0  0  0  0  0
    4.3892   -0.6005    0.0000 C   0  0  0  0  0  0  0  0  0
    5.1962   -0.4289    0.0000 C   0  0  0  0  0  0  0  0  0
    5.4511    0.3557    0.0000 C   0  0  0  0  0  0  0  0  0
    4.8991    0.9688    0.0000 C   0  0  0  0  0  0  0  0  0
    5.1540    1.7534    0.0000 C   0  0  0  0  0  0  0  0  0
    5.9610    1.9249    0.0000 C   0  0  0  0  0  0  0  0  0
    6.2159    2.7096    0.0000 N   0  0  0  0  0  0  0  0  0
    7.0006    2.9645    0.0000 C   0  0  0  0  0  0  0  0  0
    7.0006    3.7895    0.0000 C   0  0  0  0  0  0  0  0  0
    6.2159    4.0444    0.0000 C   0  0  0  0  0  0  0  0  0
    5.7310    3.3770    0.0000 C   0  0  0  0  0  0  0  0  0
    7.7852    4.0444    0.0000 C   0  0  0  0  0  0  0  0  0
    8.2701    3.3770    0.0000 N   0  0  0  0  0  0  0  0  0
    7.7852    2.7096    0.0000 C   0  0  0  0  0  0  0  0  0
    9.0951    3.3770    0.0000 C   0  0  0  0  0  0  0  0  0
    6.5130    1.3118    0.0000 C   0  0  0  0  0  0  0  0  0
    6.2581    0.5272    0.0000 C   0  0  0  0  0  0  0  0  0
    4.0921    0.7973    0.0000 C   0  0  0  0  0  0  0  0  0
    3.8372    0.0126    0.0000 C   0  0  0  0  0  0  0  0  0
  1  2  3  0  0  0  0
  2  3  1  0  0  0  0
  3  4  4  0  0  0  0
  3  8  4  0  0  0  0
  4  5  4  0  0  0  0
  5  6  4  0  0  0  0
  6  7  4  0  0  0  0
  6  9  1  0  0  0  0
  7  8  4  0  0  0  0
  9 10  4  0  0  0  0
  9 27  4  0  0  0  0
 10 11  4  0  0  0  0
 11 12  4  0  0  0  0
 11 25  4  0  0  0  0
 12 13  4  0  0  0  0
 12 26  4  0  0  0  0
 13 14  4  0  0  0  0
 14 15  1  0  0  0  0
 14 24  4  0  0  0  0
 15 16  1  0  0  0  0
 15 19  1  0  0  0  0
 16 17  1  0  0  0  0
 16 22  1  0  0  0  0
 17 18  1  0  0  0  0
 17 20  1  0  0  0  0
 18 19  1  0  0  0  0
 20 21  1  0  0  0  0
 21 22  1  0  0  0  0
 21 23  1  0  0  0  0
 24 25  4  0  0  0  0
 26 27  4  0  0  0  0
M  END
>  <Name_Molregno>
563225

>  <HISTAMINE H3>
8.38

$$$$
564541
  Marvin  02231216192D 0   1.00000     0.00000     0

 30 33  0  0  0  0  0  0  0  0999 V2000
   -3.2930   -0.1902    0.0000 O   0  0  0  0  0  0  0  0  0
   -4.0075    0.2223    0.0000 C   0  0  0  0  0  0  0  0  0
   -4.7220   -0.1902    0.0000 C   0  0  0  0  0  0  0  0  0
   -5.4364    0.2223    0.0000 C   0  0  0  0  0  0  0  0  0
   -5.4364    1.0473    0.0000 N   0  0  0  0  0  0  0  0  0
   -4.7220    1.4598    0.0000 C   0  0  0  0  0  0  0  0  0
   -4.0075    1.0473    0.0000 C   0  0  0  0  0  0  0  0  0
   -6.1509    1.4598    0.0000 C   0  0  0  0  0  0  0  0  0
   -6.1509    2.2848    0.0000 C   0  0  0  0  0  0  0  0  0
   -6.8654    2.6973    0.0000 C   0  0  0  0  0  0  0  0  0
   -5.4364    2.6973    0.0000 C   0  0  0  0  0  0  0  0  0
   -2.5785    0.2223    0.0000 C   0  0  0  0  0  0  0  0  0
   -1.8641   -0.1902    0.0000 C   0  0  0  0  0  0  0  0  0
   -1.1496    0.2223    0.0000 C   0  0  0  0  0  0  0  0  0
   -1.1496    1.0473    0.0000 C   0  0  0  0  0  0  0  0  0
   -0.4351    1.4598    0.0000 C   0  0  0  0  0  0  0  0  0
    0.2793    1.0473    0.0000 C   0  0  0  0  0  0  0  0  0
    0.2793    0.2223    0.0000 C   0  0  0  0  0  0  0  0  0
   -0.4351   -0.1902    0.0000 C   0  0  0  0  0  0  0  0  0
    0.9938    1.4598    0.0000 C   0  0  0  0  0  0  0  0  0
    0.9938    2.2848    0.0000 O   0  0  0  0  0  0  0  0  0
    1.7083    1.0473    0.0000 N   0  0  0  0  0  0  0  0  0
    2.4228    1.4598    0.0000 C   0  0  0  0  0  0  0  0  0
    3.1372    1.0473    0.0000 C   0  0  0  0  0  0  0  0  0
    3.1372    0.2223    0.0000 C   0  0  0  0  0  0  0  0  0
    2.4228   -0.1902    0.0000 C   0  0  0  0  0  0  0  0  0
    1.7083    0.2223    0.0000 C   0  0  0  0  0  0  0  0  0
    3.8517   -0.1902    0.0000 C   0  0  0  0  0  0  0  0  0
   -1.8641    1.4598    0.0000 C   0  0  0  0  0  0  0  0  0
   -2.5785    1.0473    0.0000 C   0  0  0  0  0  0  0  0  0
  1  2  1  0  0  0  0
  1 12  1  0  0  0  0
  2  3  1  0  0  0  0
  2  7  1  0  0  0  0
  3  4  1  0  0  0  0
  4  5  1  0  0  0  0
  5  6  1  0  0  0  0
  5  8  1  0  0  0  0
  6  7  1  0  0  0  0
  8  9  1  0  0  0  0
  9 10  1  0  0  0  0
  9 11  1  0  0  0  0
 12 13  4  0  0  0  0
 12 30  4  0  0  0  0
 13 14  4  0  0  0  0
 14 15  4  0  0  0  0
 14 19  4  0  0  0  0
 15 16  4  0  0  0  0
 15 29  4  0  0  0  0
 16 17  4  0  0  0  0
 17 18  4  0  0  0  0
 17 20  1  0  0  0  0
 18 19  4  0  0  0  0
 20 21  2  0  0  0  0
 20 22  1  0  0  0  0
 22 23  1  0  0  0  0
 22 27  1  0  0  0  0
 23 24  1  0  0  0  0
 24 25  1  0  0  0  0
 25 26  1  0  0  0  0
 25 28  1  0  0  0  0
 26 27  1  0  0  0  0
 29 30  4  0  0  0  0
M  END
>  <Name_Molregno>
564541

>  <HISTAMINE H3>
7.44

$$$$
564556
  Marvin  02231216192D 0   1.00000     0.00000     0

 28 31  0  0  1  0  0  0  0  0999 V2000
   -4.0221   -1.8176    0.0000 O   0  0  0  0  0  0  0  0  0
   -4.7366   -1.4051    0.0000 C   0  0  0  0  0  0  0  0  0
   -5.4903   -1.7407    0.0000 C   0  0  0  0  0  0  0  0  0
   -6.0423   -1.1276    0.0000 C   0  0  0  0  0  0  0  0  0
   -5.6298   -0.4131    0.0000 N   0  0  0  0  0  0  0  0  0
   -4.8228   -0.5846    0.0000 C   0  0  0  0  0  0  0  0  0
   -5.9654    0.3406    0.0000 C   0  0  0  0  0  0  0  0  0
   -6.7858    0.4268    0.0000 C   0  0  0  0  0  0  0  0  0
   -5.4804    1.0080    0.0000 C   0  0  0  0  0  0  0  0  0
   -3.3076   -1.4051    0.0000 C   0  0  0  0  0  0  0  0  0
   -2.5932   -1.8176    0.0000 C   0  0  0  0  0  0  0  0  0
   -1.8787   -1.4051    0.0000 C   0  0  0  0  0  0  0  0  0
   -1.8787   -0.5801    0.0000 C   0  0  0  0  0  0  0  0  0
   -1.1642   -0.1676    0.0000 C   0  0  0  0  0  0  0  0  0
   -0.4498   -0.5801    0.0000 C   0  0  0  0  0  0  0  0  0
   -0.4498   -1.4051    0.0000 C   0  0  0  0  0  0  0  0  0
   -1.1642   -1.8176    0.0000 C   0  0  0  0  0  0  0  0  0
    0.2647   -0.1676    0.0000 C   0  0  0  0  0  0  0  0  0
    0.2647    0.6574    0.0000 O   0  0  0  0  0  0  0  0  0
    0.9792   -0.5801    0.0000 N   0  0  0  0  0  0  0  0  0
    1.6937   -0.1676    0.0000 C   0  0  0  0  0  0  0  0  0
    2.4081   -0.5801    0.0000 C   0  0  0  0  0  0  0  0  0
    2.4081   -1.4051    0.0000 C   0  0  0  0  0  0  0  0  0
    1.6937   -1.8176    0.0000 C   0  0  0  0  0  0  0  0  0
    0.9792   -1.4051    0.0000 C   0  0  0  0  0  0  0  0  0
    3.1226   -1.8176    0.0000 C   0  0  0  0  0  0  0  0  0
   -2.5932   -0.1676    0.0000 C   0  0  0  0  0  0  0  0  0
   -3.3076   -0.5801    0.0000 C   0  0  0  0  0  0  0  0  0
  1  2  1  0  0  0  0
  1 10  1  0  0  0  0
  2  3  1  0  0  0  0
  2  6  1  0  0  0  0
  3  4  1  0  0  0  0
  4  5  1  0  0  0  0
  5  6  1  0  0  0  0
  5  7  1  0  0  0  0
  7  8  1  0  0  0  0
  7  9  1  0  0  0  0
 10 11  4  0  0  0  0
 10 28  4  0  0  0  0
 11 12  4  0  0  0  0
 12 13  4  0  0  0  0
 12 17  4  0  0  0  0
 13 14  4  0  0  0  0
 13 27  4  0  0  0  0
 14 15  4  0  0  0  0
 15 16  4  0  0  0  0
 15 18  1  0  0  0  0
 16 17  4  0  0  0  0
 18 19  2  0  0  0  0
 18 20  1  0  0  0  0
 20 21  1  0  0  0  0
 20 25  1  0  0  0  0
 21 22  1  0  0  0  0
 22 23  1  0  0  0  0
 23 24  1  0  0  0  0
 23 26  1  0  0  0  0
 24 25  1  0  0  0  0
 27 28  4  0  0  0  0
M  END
>  <Name_Molregno>
564556

>  <HISTAMINE H3>
6.63

$$$$
564557
  Marvin  02231216192D 0   1.00000     0.00000     0

 30 33  0  0  0  0  0  0  0  0999 V2000
   -3.5250   -0.0108    0.0000 O   0  0  0  0  0  0  0  0  0
   -4.2395    0.4017    0.0000 C   0  0  0  0  0  0  0  0  0
   -4.9540   -0.0108    0.0000 C   0  0  0  0  0  0  0  0  0
   -5.6684    0.4017    0.0000 C   0  0  0  0  0  0  0  0  0
   -6.3829   -0.0108    0.0000 N   0  0  0  0  0  0  0  0  0
   -6.3829   -0.8358    0.0000 C   0  0  0  0  0  0  0  0  0
   -7.0974   -1.2483    0.0000 C   0  0  0  0  0  0  0  0  0
   -7.8119   -0.8358    0.0000 C   0  0  0  0  0  0  0  0  0
   -7.8119   -0.0108    0.0000 C   0  0  0  0  0  0  0  0  0
   -7.0974    0.4017    0.0000 C   0  0  0  0  0  0  0  0  0
   -2.8106    0.4017    0.0000 C   0  0  0  0  0  0  0  0  0
   -2.0961   -0.0108    0.0000 C   0  0  0  0  0  0  0  0  0
   -1.3816    0.4017    0.0000 C   0  0  0  0  0  0  0  0  0
   -1.3816    1.2267    0.0000 C   0  0  0  0  0  0  0  0  0
   -0.6672    1.6392    0.0000 C   0  0  0  0  0  0  0  0  0
    0.0473    1.2267    0.0000 C   0  0  0  0  0  0  0  0  0
    0.0473    0.4017    0.0000 C   0  0  0  0  0  0  0  0  0
   -0.6672   -0.0108    0.0000 C   0  0  0  0  0  0  0  0  0
    0.7618    1.6392    0.0000 C   0  0  0  0  0  0  0  0  0
    0.7618    2.4642    0.0000 O   0  0  0  0  0  0  0  0  0
    1.4763    1.2267    0.0000 N   0  0  0  0  0  0  0  0  0
    2.1907    1.6392    0.0000 C   0  0  0  0  0  0  0  0  0
    2.9052    1.2267    0.0000 C   0  0  0  0  0  0  0  0  0
    2.9052    0.4017    0.0000 C   0  0  0  0  0  0  0  0  0
    2.1907   -0.0108    0.0000 C   0  0  0  0  0  0  0  0  0
    1.4763    0.4017    0.0000 C   0  0  0  0  0  0  0  0  0
    3.6197   -0.0108    0.0000 C   0  0  0  0  0  0  0  0  0
    4.3341    0.4017    0.0000 O   0  0  0  0  0  0  0  0  0
   -2.0961    1.6392    0.0000 C   0  0  0  0  0  0  0  0  0
   -2.8106    1.2267    0.0000 C   0  0  0  0  0  0  0  0  0
  1  2  1  0  0  0  0
  1 11  1  0  0  0  0
  2  3  1  0  0  0  0
  3  4  1  0  0  0  0
  4  5  1  0  0  0  0
  5  6  1  0  0  0  0
  5 10  1  0  0  0  0
  6  7  1  0  0  0  0
  7  8  1  0  0  0  0
  8  9  1  0  0  0  0
  9 10  1  0  0  0  0
 11 12  4  0  0  0  0
 11 30  4  0  0  0  0
 12 13  4  0  0  0  0
 13 14  4  0  0  0  0
 13 18  4  0  0  0  0
 14 15  4  0  0  0  0
 14 29  4  0  0  0  0
 15 16  4  0  0  0  0
 16 17  4  0  0  0  0
 16 19  1  0  0  0  0
 17 18  4  0  0  0  0
 19 20  2  0  0  0  0
 19 21  1  0  0  0  0
 21 22  1  0  0  0  0
 21 26  1  0  0  0  0
 22 23  1  0  0  0  0
 23 24  1  0  0  0  0
 24 25  1  0  0  0  0
 24 27  1  0  0  0  0
 25 26  1  0  0  0  0
 27 28  1  0  0  0  0
 29 30  4  0  0  0  0
M  END
>  <Name_Molregno>
564557

>  <HISTAMINE H3>
6.99

$$$$
564570
  Marvin  02231216192D 0   1.00000     0.00000     0

 28 31  0  0  1  0  0  0  0  0999 V2000
   -3.4970   -1.0640    0.0000 O   0  0  0  0  0  0  0  0  0
   -4.2115   -0.6515    0.0000 C   0  0  0  0  0  0  0  0  0
   -4.9260   -1.0640    0.0000 C   0  0  0  0  0  0  0  0  0
   -5.6404   -0.6515    0.0000 C   0  0  0  0  0  0  0  0  0
   -5.6404    0.1735    0.0000 N   0  0  0  0  0  0  0  0  0
   -4.9260    0.5860    0.0000 C   0  0  0  0  0  0  0  0  0
   -4.2115    0.1735    0.0000 C   0  0  0  0  0  0  0  0  0
   -6.3549    0.5860    0.0000 C   0  0  0  0  0  0  0  0  0
   -6.3549    1.4110    0.0000 C   0  0  0  0  0  0  0  0  0
   -7.0694    0.1735    0.0000 C   0  0  0  0  0  0  0  0  0
   -2.7825   -0.6515    0.0000 C   0  0  0  0  0  0  0  0  0
   -2.0681   -1.0640    0.0000 C   0  0  0  0  0  0  0  0  0
   -1.3536   -0.6515    0.0000 C   0  0  0  0  0  0  0  0  0
   -1.3536    0.1735    0.0000 C   0  0  0  0  0  0  0  0  0
   -0.6391    0.5860    0.0000 C   0  0  0  0  0  0  0  0  0
    0.0753    0.1735    0.0000 C   0  0  0  0  0  0  0  0  0
    0.0753   -0.6515    0.0000 C   0  0  0  0  0  0  0  0  0
   -0.6391   -1.0640    0.0000 C   0  0  0  0  0  0  0  0  0
    0.7898    0.5860    0.0000 C   0  0  0  0  0  0  0  0  0
    0.7898    1.4110    0.0000 O   0  0  0  0  0  0  0  0  0
    1.5043    0.1735    0.0000 N   0  0  0  0  0  0  0  0  0
    2.2580    0.5091    0.0000 C   0  0  0  0  0  0  0  0  0
    2.8100   -0.1040    0.0000 C   0  0  0  0  0  0  0  0  0
    2.3975   -0.8185    0.0000 C   0  0  0  0  0  0  0  0  0
    1.5905   -0.6469    0.0000 C   0  0  0  0  0  0  0  0  0
    0.9774   -1.1990    0.0000 C   0  0  0  0  0  0  0  0  0
   -2.0681    0.5860    0.0000 C   0  0  0  0  0  0  0  0  0
   -2.7825    0.1735    0.0000 C   0  0  0  0  0  0  0  0  0
  1  2  1  0  0  0  0
  1 11  1  0  0  0  0
  2  3  1  0  0  0  0
  2  7  1  0  0  0  0
  3  4  1  0  0  0  0
  4  5  1  0  0  0  0
  5  6  1  0  0  0  0
  5  8  1  0  0  0  0
  6  7  1  0  0  0  0
  8  9  1  0  0  0  0
  8 10  1  0  0  0  0
 11 12  4  0  0  0  0
 11 28  4  0  0  0  0
 12 13  4  0  0  0  0
 13 14  4  0  0  0  0
 13 18  4  0  0  0  0
 14 15  4  0  0  0  0
 14 27  4  0  0  0  0
 15 16  4  0  0  0  0
 16 17  4  0  0  0  0
 16 19  1  0  0  0  0
 17 18  4  0  0  0  0
 19 20  2  0  0  0  0
 19 21  1  0  0  0  0
 21 22  1  0  0  0  0
 21 25  1  0  0  0  0
 22 23  1  0  0  0  0
 23 24  1  0  0  0  0
 24 25  1  0  0  0  0
 25 26  1  0  0  0  0
 27 28  4  0  0  0  0
M  END
>  <Name_Molregno>
564570

>  <HISTAMINE H3>
7.82

$$$$
564571
  Marvin  02231216192D 0   1.00000     0.00000     0

 30 33  0  0  0  0  0  0  0  0999 V2000
   -4.0495   -0.0386    0.0000 O   0  0  0  0  0  0  0  0  0
   -4.7640    0.3739    0.0000 C   0  0  0  0  0  0  0  0  0
   -5.4785   -0.0386    0.0000 C   0  0  0  0  0  0  0  0  0
   -6.1930    0.3739    0.0000 C   0  0  0  0  0  0  0  0  0
   -6.1930    1.1989    0.0000 N   0  0  0  0  0  0  0  0  0
   -5.4785    1.6114    0.0000 C   0  0  0  0  0  0  0  0  0
   -4.7640    1.1989    0.0000 C   0  0  0  0  0  0  0  0  0
   -6.9074    1.6114    0.0000 C   0  0  0  0  0  0  0  0  0
   -6.9074    2.4364    0.0000 C   0  0  0  0  0  0  0  0  0
   -7.6219    1.1989    0.0000 C   0  0  0  0  0  0  0  0  0
   -3.3351    0.3739    0.0000 C   0  0  0  0  0  0  0  0  0
   -2.6206   -0.0386    0.0000 C   0  0  0  0  0  0  0  0  0
   -1.9061    0.3739    0.0000 C   0  0  0  0  0  0  0  0  0
   -1.9061    1.1989    0.0000 C   0  0  0  0  0  0  0  0  0
   -1.1917    1.6114    0.0000 C   0  0  0  0  0  0  0  0  0
   -0.4772    1.1989    0.0000 C   0  0  0  0  0  0  0  0  0
   -0.4772    0.3739    0.0000 C   0  0  0  0  0  0  0  0  0
   -1.1917   -0.0386    0.0000 C   0  0  0  0  0  0  0  0  0
    0.2373    1.6114    0.0000 C   0  0  0  0  0  0  0  0  0
    0.2373    2.4364    0.0000 O   0  0  0  0  0  0  0  0  0
    0.9518    1.1989    0.0000 N   0  0  0  0  0  0  0  0  0
    1.6662    1.6114    0.0000 C   0  0  0  0  0  0  0  0  0
    2.3807    1.1989    0.0000 C   0  0  0  0  0  0  0  0  0
    2.3807    0.3739    0.0000 C   0  0  0  0  0  0  0  0  0
    1.6662   -0.0386    0.0000 C   0  0  0  0  0  0  0  0  0
    0.9518    0.3739    0.0000 C   0  0  0  0  0  0  0  0  0
    3.0952   -0.0386    0.0000 C   0  0  0  0  0  0  0  0  0
    3.8096    0.3739    0.0000 O   0  0  0  0  0  0  0  0  0
   -2.6206    1.6114    0.0000 C   0  0  0  0  0  0  0  0  0
   -3.3351    1.1989    0.0000 C   0  0  0  0  0  0  0  0  0
  1  2  1  0  0  0  0
  1 11  1  0  0  0  0
  2  3  1  0  0  0  0
  2  7  1  0  0  0  0
  3  4  1  0  0  0  0
  4  5  1  0  0  0  0
  5  6  1  0  0  0  0
  5  8  1  0  0  0  0
  6  7  1  0  0  0  0
  8  9  1  0  0  0  0
  8 10  1  0  0  0  0
 11 12  4  0  0  0  0
 11 30  4  0  0  0  0
 12 13  4  0  0  0  0
 13 14  4  0  0  0  0
 13 18  4  0  0  0  0
 14 15  4  0  0  0  0
 14 29  4  0  0  0  0
 15 16  4  0  0  0  0
 16 17  4  0  0  0  0
 16 19  1  0  0  0  0
 17 18  4  0  0  0  0
 19 20  2  0  0  0  0
 19 21  1  0  0  0  0
 21 22  1  0  0  0  0
 21 26  1  0  0  0  0
 22 23  1  0  0  0  0
 23 24  1  0  0  0  0
 24 25  1  0  0  0  0
 24 27  1  0  0  0  0
 25 26  1  0  0  0  0
 27 28  1  0  0  0  0
 29 30  4  0  0  0  0
M  END
>  <Name_Molregno>
564571

>  <HISTAMINE H3>
6.81

$$$$
564583
  Marvin  02231216192D 0   1.00000     0.00000     0

 26 29  0  0  0  0  0  0  0  0999 V2000
   -1.9934   -0.0067    0.0000 O   0  0  0  0  0  0  0  0  0
   -2.7079    0.4058    0.0000 C   0  0  0  0  0  0  0  0  0
   -3.4224   -0.0067    0.0000 C   0  0  0  0  0  0  0  0  0
   -4.1368    0.4058    0.0000 C   0  0  0  0  0  0  0  0  0
   -4.8513   -0.0067    0.0000 N   0  0  0  0  0  0  0  0  0
   -4.8513   -0.8317    0.0000 C   0  0  0  0  0  0  0  0  0
   -5.5658   -1.2442    0.0000 C   0  0  0  0  0  0  0  0  0
   -6.2802   -0.8317    0.0000 C   0  0  0  0  0  0  0  0  0
   -6.2802   -0.0067    0.0000 C   0  0  0  0  0  0  0  0  0
   -5.5658    0.4058    0.0000 C   0  0  0  0  0  0  0  0  0
   -1.2789    0.4058    0.0000 C   0  0  0  0  0  0  0  0  0
   -0.5645   -0.0067    0.0000 C   0  0  0  0  0  0  0  0  0
    0.1500    0.4058    0.0000 C   0  0  0  0  0  0  0  0  0
    0.1500    1.2308    0.0000 C   0  0  0  0  0  0  0  0  0
    0.8645    1.6433    0.0000 N   0  0  0  0  0  0  0  0  0
    1.5789    1.2308    0.0000 C   0  0  0  0  0  0  0  0  0
    1.5789    0.4058    0.0000 C   0  0  0  0  0  0  0  0  0
    0.8645   -0.0067    0.0000 C   0  0  0  0  0  0  0  0  0
    2.2934    1.6433    0.0000 C   0  0  0  0  0  0  0  0  0
    2.2934    2.4683    0.0000 O   0  0  0  0  0  0  0  0  0
    3.0079    1.2308    0.0000 N   0  0  0  0  0  0  0  0  0
    3.8048    1.4443    0.0000 C   0  0  0  0  0  0  0  0  0
    4.0183    0.6475    0.0000 C   0  0  0  0  0  0  0  0  0
    3.2214    0.4339    0.0000 C   0  0  0  0  0  0  0  0  0
   -0.5645    1.6433    0.0000 C   0  0  0  0  0  0  0  0  0
   -1.2789    1.2308    0.0000 C   0  0  0  0  0  0  0  0  0
  1  2  1  0  0  0  0
  1 11  1  0  0  0  0
  2  3  1  0  0  0  0
  3  4  1  0  0  0  0
  4  5  1  0  0  0  0
  5  6  1  0  0  0  0
  5 10  1  0  0  0  0
  6  7  1  0  0  0  0
  7  8  1  0  0  0  0
  8  9  1  0  0  0  0
  9 10  1  0  0  0  0
 11 12  4  0  0  0  0
 11 26  4  0  0  0  0
 12 13  4  0  0  0  0
 13 14  4  0  0  0  0
 13 18  4  0  0  0  0
 14 15  4  0  0  0  0
 14 25  4  0  0  0  0
 15 16  4  0  0  0  0
 16 17  4  0  0  0  0
 16 19  1  0  0  0  0
 17 18  4  0  0  0  0
 19 20  2  0  0  0  0
 19 21  1  0  0  0  0
 21 22  1  0  0  0  0
 21 24  1  0  0  0  0
 22 23  1  0  0  0  0
 23 24  1  0  0  0  0
 25 26  4  0  0  0  0
M  END
>  <Name_Molregno>
564583

>  <HISTAMINE H3>
6.92

$$$$
564594
  Marvin  02231216192D 0   1.00000     0.00000     0

 29 32  0  0  1  0  0  0  0  0999 V2000
   -3.6727   -1.3778    0.0000 O   0  0  0  0  0  0  0  0  0
   -4.3871   -0.9653    0.0000 C   0  0  0  0  0  0  0  0  0
   -5.1016   -1.3778    0.0000 C   0  0  0  0  0  0  0  0  0
   -5.8161   -0.9653    0.0000 C   0  0  0  0  0  0  0  0  0
   -5.8161   -0.1403    0.0000 N   0  0  0  0  0  0  0  0  0
   -5.1016    0.2722    0.0000 C   0  0  0  0  0  0  0  0  0
   -4.3871   -0.1403    0.0000 C   0  0  0  0  0  0  0  0  0
   -6.5305    0.2722    0.0000 C   0  0  0  0  0  0  0  0  0
   -6.5305    1.0972    0.0000 C   0  0  0  0  0  0  0  0  0
   -7.2450   -0.1403    0.0000 C   0  0  0  0  0  0  0  0  0
   -2.9582   -0.9653    0.0000 C   0  0  0  0  0  0  0  0  0
   -2.2437   -1.3778    0.0000 C   0  0  0  0  0  0  0  0  0
   -1.5292   -0.9653    0.0000 C   0  0  0  0  0  0  0  0  0
   -1.5292   -0.1403    0.0000 C   0  0  0  0  0  0  0  0  0
   -0.8148    0.2722    0.0000 N   0  0  0  0  0  0  0  0  0
   -0.1003   -0.1403    0.0000 C   0  0  0  0  0  0  0  0  0
   -0.1003   -0.9653    0.0000 C   0  0  0  0  0  0  0  0  0
   -0.8148   -1.3778    0.0000 C   0  0  0  0  0  0  0  0  0
    0.6142    0.2722    0.0000 C   0  0  0  0  0  0  0  0  0
    1.3286   -0.1403    0.0000 O   0  0  0  0  0  0  0  0  0
    0.6142    1.0972    0.0000 N   0  0  0  0  0  0  0  0  0
   -0.0533    1.5821    0.0000 C   0  0  0  0  0  0  0  0  0
    0.2017    2.3667    0.0000 C   0  0  0  0  0  0  0  0  0
    1.0267    2.3667    0.0000 C   0  0  0  0  0  0  0  0  0
    1.2816    1.5821    0.0000 C   0  0  0  0  0  0  0  0  0
    2.0662    1.3272    0.0000 C   0  0  0  0  0  0  0  0  0
    2.8508    1.0722    0.0000 N   0  0  0  0  0  0  0  0  0
   -2.2437    0.2722    0.0000 C   0  0  0  0  0  0  0  0  0
   -2.9582   -0.1403    0.0000 C   0  0  0  0  0  0  0  0  0
  1  2  1  0  0  0  0
  1 11  1  0  0  0  0
  2  3  1  0  0  0  0
  2  7  1  0  0  0  0
  3  4  1  0  0  0  0
  4  5  1  0  0  0  0
  5  6  1  0  0  0  0
  5  8  1  0  0  0  0
  6  7  1  0  0  0  0
  8  9  1  0  0  0  0
  8 10  1  0  0  0  0
 11 12  4  0  0  0  0
 11 29  4  0  0  0  0
 12 13  4  0  0  0  0
 13 14  4  0  0  0  0
 13 18  4  0  0  0  0
 14 15  4  0  0  0  0
 14 28  4  0  0  0  0
 15 16  4  0  0  0  0
 16 17  4  0  0  0  0
 16 19  1  0  0  0  0
 17 18  4  0  0  0  0
 19 20  2  0  0  0  0
 19 21  1  0  0  0  0
 21 22  1  0  0  0  0
 21 25  1  0  0  0  0
 22 23  1  0  0  0  0
 23 24  1  0  0  0  0
 24 25  1  0  0  0  0
 25 26  1  0  0  0  0
 26 27  3  0  0  0  0
 28 29  4  0  0  0  0
M  END
>  <Name_Molregno>
564594

>  <HISTAMINE H3>
7.06

$$$$
564861
  Marvin  02231216192D 0   1.00000     0.00000     0

 22 25  0  0  1  0  0  0  0  0999 V2000
   -0.6774    0.6603    0.0000 N   0  0  0  0  0  0  0  0  0
    0.1073    0.9152    0.0000 C   0  0  0  0  0  0  0  0  0
    0.1073    1.7402    0.0000 C   0  0  0  0  0  0  0  0  0
   -0.6774    1.9952    0.0000 C   0  0  0  0  0  0  0  0  0
   -1.1623    1.3277    0.0000 C   0  0  0  0  0  0  0  0  0
    0.8919    1.9952    0.0000 C   0  0  0  0  0  0  0  0  0
    1.3768    1.3277    0.0000 N   0  0  0  0  0  0  0  0  0
    0.8919    0.6603    0.0000 C   0  0  0  0  0  0  0  0  0
    2.2018    1.3277    0.0000 C   0  0  0  0  0  0  0  0  0
   -0.9323   -0.1243    0.0000 C   0  0  0  0  0  0  0  0  0
   -0.3803   -0.7374    0.0000 C   0  0  0  0  0  0  0  0  0
   -0.6352   -1.5220    0.0000 C   0  0  0  0  0  0  0  0  0
   -1.4422   -1.6936    0.0000 C   0  0  0  0  0  0  0  0  0
   -1.9942   -1.0805    0.0000 C   0  0  0  0  0  0  0  0  0
   -1.7393   -0.2958    0.0000 C   0  0  0  0  0  0  0  0  0
   -1.6971   -2.4782    0.0000 C   0  0  0  0  0  0  0  0  0
   -2.5041   -2.6497    0.0000 C   0  0  0  0  0  0  0  0  0
   -2.7590   -3.4343    0.0000 C   0  0  0  0  0  0  0  0  0
   -3.5660   -3.6059    0.0000 C   0  0  0  0  0  0  0  0  0
   -4.1180   -2.9928    0.0000 C   0  0  0  0  0  0  0  0  0
   -3.8631   -2.2081    0.0000 C   0  0  0  0  0  0  0  0  0
   -3.0561   -2.0366    0.0000 C   0  0  0  0  0  0  0  0  0
  1  2  1  0  0  0  0
  1  5  1  0  0  0  0
  1 10  1  0  0  0  0
  2  3  1  0  0  0  0
  2  8  1  0  0  0  0
  3  4  1  0  0  0  0
  3  6  1  0  0  0  0
  4  5  1  0  0  0  0
  6  7  1  0  0  0  0
  7  8  1  0  0  0  0
  7  9  1  0  0  0  0
 10 11  4  0  0  0  0
 10 15  4  0  0  0  0
 11 12  4  0  0  0  0
 12 13  4  0  0  0  0
 13 14  4  0  0  0  0
 13 16  1  0  0  0  0
 14 15  4  0  0  0  0
 16 17  1  0  0  0  0
 17 18  4  0  0  0  0
 17 22  4  0  0  0  0
 18 19  4  0  0  0  0
 19 20  4  0  0  0  0
 20 21  4  0  0  0  0
 21 22  4  0  0  0  0
M  END
>  <Name_Molregno>
564861

>  <HISTAMINE H3>
7.58

$$$$
564862
  Marvin  02231216192D 0   1.00000     0.00000     0

 24 27  0  0  1  0  0  0  0  0999 V2000
    3.3002   -5.2209    0.0000 O   0  0  0  0  0  0  0  0  0
    2.7481   -4.6078    0.0000 C   0  0  0  0  0  0  0  0  0
    1.9412   -4.7793    0.0000 C   0  0  0  0  0  0  0  0  0
    3.0031   -3.8232    0.0000 C   0  0  0  0  0  0  0  0  0
    2.4510   -3.2101    0.0000 C   0  0  0  0  0  0  0  0  0
    2.7060   -2.4254    0.0000 C   0  0  0  0  0  0  0  0  0
    3.5130   -2.2539    0.0000 C   0  0  0  0  0  0  0  0  0
    4.0650   -2.8670    0.0000 C   0  0  0  0  0  0  0  0  0
    3.8100   -3.6516    0.0000 C   0  0  0  0  0  0  0  0  0
    3.7679   -1.4693    0.0000 C   0  0  0  0  0  0  0  0  0
    3.2159   -0.8562    0.0000 C   0  0  0  0  0  0  0  0  0
    3.4708   -0.0716    0.0000 C   0  0  0  0  0  0  0  0  0
    4.2778    0.1000    0.0000 C   0  0  0  0  0  0  0  0  0
    4.5327    0.8846    0.0000 N   0  0  0  0  0  0  0  0  0
    5.3173    1.1395    0.0000 C   0  0  0  0  0  0  0  0  0
    5.3173    1.9645    0.0000 C   0  0  0  0  0  0  0  0  0
    4.5327    2.2195    0.0000 C   0  0  0  0  0  0  0  0  0
    4.0478    1.5520    0.0000 C   0  0  0  0  0  0  0  0  0
    6.1019    2.2195    0.0000 C   0  0  0  0  0  0  0  0  0
    6.5869    1.5520    0.0000 N   0  0  0  0  0  0  0  0  0
    6.1019    0.8846    0.0000 C   0  0  0  0  0  0  0  0  0
    7.4119    1.5520    0.0000 C   0  0  0  0  0  0  0  0  0
    4.8298   -0.5131    0.0000 C   0  0  0  0  0  0  0  0  0
    4.5749   -1.2978    0.0000 C   0  0  0  0  0  0  0  0  0
  1  2  2  0  0  0  0
  2  3  1  0  0  0  0
  2  4  1  0  0  0  0
  4  5  4  0  0  0  0
  4  9  4  0  0  0  0
  5  6  4  0  0  0  0
  6  7  4  0  0  0  0
  7  8  4  0  0  0  0
  7 10  1  0  0  0  0
  8  9  4  0  0  0  0
 10 11  4  0  0  0  0
 10 24  4  0  0  0  0
 11 12  4  0  0  0  0
 12 13  4  0  0  0  0
 13 14  1  0  0  0  0
 13 23  4  0  0  0  0
 14 15  1  0  0  0  0
 14 18  1  0  0  0  0
 15 16  1  0  0  0  0
 15 21  1  0  0  0  0
 16 17  1  0  0  0  0
 16 19  1  0  0  0  0
 17 18  1  0  0  0  0
 19 20  1  0  0  0  0
 20 21  1  0  0  0  0
 20 22  1  0  0  0  0
 23 24  4  0  0  0  0
M  END
>  <Name_Molregno>
564862

>  <HISTAMINE H3>
8.49

$$$$
564864
  Marvin  02231216192D 0   1.00000     0.00000     0

 25 27  0  0  0  0  0  0  0  0999 V2000
   -1.6804    0.5012    0.0000 Br  0  0  0  0  0  0  0  0  0
   -1.6804   -0.3238    0.0000 C   0  0  0  0  0  0  0  0  0
   -0.9659   -0.7363    0.0000 C   0  0  0  0  0  0  0  0  0
   -0.9659   -1.5613    0.0000 C   0  0  0  0  0  0  0  0  0
   -1.6804   -1.9738    0.0000 C   0  0  0  0  0  0  0  0  0
   -2.3949   -1.5613    0.0000 C   0  0  0  0  0  0  0  0  0
   -2.3949   -0.7363    0.0000 C   0  0  0  0  0  0  0  0  0
   -3.1093   -0.3238    0.0000 O   0  0  0  0  0  0  0  0  0
   -3.8238   -0.7363    0.0000 C   0  0  0  0  0  0  0  0  0
   -4.5383   -0.3238    0.0000 C   0  0  0  0  0  0  0  0  0
   -5.2527   -0.7363    0.0000 N   0  0  0  0  0  0  0  0  0
   -5.3390   -1.5568    0.0000 C   0  0  0  0  0  0  0  0  0
   -6.1460   -1.7284    0.0000 C   0  0  0  0  0  0  0  0  0
   -6.5585   -1.0139    0.0000 C   0  0  0  0  0  0  0  0  0
   -6.0064   -0.4008    0.0000 C   0  0  0  0  0  0  0  0  0
   -0.2514   -1.9738    0.0000 C   0  0  0  0  0  0  0  0  0
    0.4630   -1.5613    0.0000 C   0  0  0  0  0  0  0  0  0
    1.1775   -1.9738    0.0000 N   0  0  0  0  0  0  0  0  0
    1.8920   -1.5613    0.0000 C   0  0  0  0  0  0  0  0  0
    1.8920   -0.7363    0.0000 O   0  0  0  0  0  0  0  0  0
    2.6064   -1.9738    0.0000 C   0  0  0  0  0  0  0  0  0
    3.3601   -1.6383    0.0000 O   0  0  0  0  0  0  0  0  0
    3.9121   -2.2514    0.0000 C   0  0  0  0  0  0  0  0  0
    3.4996   -2.9659    0.0000 N   0  0  0  0  0  0  0  0  0
    2.6927   -2.7943    0.0000 C   0  0  0  0  0  0  0  0  0
  1  2  1  0  0  0  0
  2  3  4  0  0  0  0
  2  7  4  0  0  0  0
  3  4  4  0  0  0  0
  4  5  4  0  0  0  0
  4 16  1  0  0  0  0
  5  6  4  0  0  0  0
  6  7  4  0  0  0  0
  7  8  1  0  0  0  0
  8  9  1  0  0  0  0
  9 10  1  0  0  0  0
 10 11  1  0  0  0  0
 11 12  1  0  0  0  0
 11 15  1  0  0  0  0
 12 13  1  0  0  0  0
 13 14  1  0  0  0  0
 14 15  1  0  0  0  0
 16 17  1  0  0  0  0
 17 18  1  0  0  0  0
 18 19  1  0  0  0  0
 19 20  2  0  0  0  0
 19 21  1  0  0  0  0
 21 22  4  0  0  0  0
 21 25  4  0  0  0  0
 22 23  4  0  0  0  0
 23 24  4  0  0  0  0
 24 25  4  0  0  0  0
M  END
>  <Name_Molregno>
564864

>  <HISTAMINE H3>
7.52

$$$$
564873
  Marvin  02231216192D 0   1.00000     0.00000     0

 23 26  0  0  1  0  0  0  0  0999 V2000
   -5.5997   -3.5713    0.0000 O   0  0  0  0  0  0  0  0  0
   -5.0476   -4.1844    0.0000 C   0  0  0  0  0  0  0  0  0
   -5.3447   -2.7867    0.0000 C   0  0  0  0  0  0  0  0  0
   -5.8968   -2.1736    0.0000 C   0  0  0  0  0  0  0  0  0
   -5.6418   -1.3890    0.0000 C   0  0  0  0  0  0  0  0  0
   -4.8348   -1.2174    0.0000 C   0  0  0  0  0  0  0  0  0
   -4.2828   -1.8305    0.0000 C   0  0  0  0  0  0  0  0  0
   -4.5377   -2.6152    0.0000 C   0  0  0  0  0  0  0  0  0
   -4.5799   -0.4328    0.0000 C   0  0  0  0  0  0  0  0  0
   -5.1319    0.1803    0.0000 C   0  0  0  0  0  0  0  0  0
   -4.8770    0.9649    0.0000 C   0  0  0  0  0  0  0  0  0
   -4.0700    1.1364    0.0000 C   0  0  0  0  0  0  0  0  0
   -3.8151    1.9210    0.0000 N   0  0  0  0  0  0  0  0  0
   -3.0305    2.1760    0.0000 C   0  0  0  0  0  0  0  0  0
   -3.0305    3.0010    0.0000 C   0  0  0  0  0  0  0  0  0
   -3.8151    3.2559    0.0000 C   0  0  0  0  0  0  0  0  0
   -4.3000    2.5885    0.0000 C   0  0  0  0  0  0  0  0  0
   -2.2458    3.2559    0.0000 C   0  0  0  0  0  0  0  0  0
   -1.7609    2.5885    0.0000 N   0  0  0  0  0  0  0  0  0
   -2.2458    1.9210    0.0000 C   0  0  0  0  0  0  0  0  0
   -0.9359    2.5885    0.0000 C   0  0  0  0  0  0  0  0  0
   -3.5180    0.5233    0.0000 C   0  0  0  0  0  0  0  0  0
   -3.7729   -0.2613    0.0000 C   0  0  0  0  0  0  0  0  0
  1  2  1  0  0  0  0
  1  3  1  0  0  0  0
  3  4  4  0  0  0  0
  3  8  4  0  0  0  0
  4  5  4  0  0  0  0
  5  6  4  0  0  0  0
  6  7  4  0  0  0  0
  6  9  1  0  0  0  0
  7  8  4  0  0  0  0
  9 10  4  0  0  0  0
  9 23  4  0  0  0  0
 10 11  4  0  0  0  0
 11 12  4  0  0  0  0
 12 13  1  0  0  0  0
 12 22  4  0  0  0  0
 13 14  1  0  0  0  0
 13 17  1  0  0  0  0
 14 15  1  0  0  0  0
 14 20  1  0  0  0  0
 15 16  1  0  0  0  0
 15 18  1  0  0  0  0
 16 17  1  0  0  0  0
 18 19  1  0  0  0  0
 19 20  1  0  0  0  0
 19 21  1  0  0  0  0
 22 23  4  0  0  0  0
M  END
>  <Name_Molregno>
564873

>  <HISTAMINE H3>
8.82

$$$$
564936
  Marvin  02231216192D 0   1.00000     0.00000     0

 27 29  0  0  0  0  0  0  0  0999 V2000
   -3.2904   -1.1245    0.0000 Br  0  0  0  0  0  0  0  0  0
   -2.5760   -1.5370    0.0000 C   0  0  0  0  0  0  0  0  0
   -1.8615   -1.1245    0.0000 C   0  0  0  0  0  0  0  0  0
   -1.1470   -1.5370    0.0000 C   0  0  0  0  0  0  0  0  0
   -1.1470   -2.3620    0.0000 C   0  0  0  0  0  0  0  0  0
   -1.8615   -2.7745    0.0000 C   0  0  0  0  0  0  0  0  0
   -2.5760   -2.3620    0.0000 C   0  0  0  0  0  0  0  0  0
   -3.2904   -2.7745    0.0000 O   0  0  0  0  0  0  0  0  0
   -4.0049   -2.3620    0.0000 C   0  0  0  0  0  0  0  0  0
   -4.0049   -1.5370    0.0000 C   0  0  0  0  0  0  0  0  0
   -4.7194   -1.1245    0.0000 N   0  0  0  0  0  0  0  0  0
   -5.4338   -1.5370    0.0000 C   0  0  0  0  0  0  0  0  0
   -6.1483   -1.1245    0.0000 C   0  0  0  0  0  0  0  0  0
   -6.1483   -0.2995    0.0000 O   0  0  0  0  0  0  0  0  0
   -5.4338    0.1130    0.0000 C   0  0  0  0  0  0  0  0  0
   -4.7194   -0.2995    0.0000 C   0  0  0  0  0  0  0  0  0
   -0.4325   -1.1245    0.0000 C   0  0  0  0  0  0  0  0  0
    0.2819   -1.5370    0.0000 C   0  0  0  0  0  0  0  0  0
    0.9964   -1.1245    0.0000 N   0  0  0  0  0  0  0  0  0
    1.7109   -1.5370    0.0000 C   0  0  0  0  0  0  0  0  0
    1.7109   -2.3620    0.0000 O   0  0  0  0  0  0  0  0  0
    2.4253   -1.1245    0.0000 C   0  0  0  0  0  0  0  0  0
    2.5116   -0.3040    0.0000 N   0  0  0  0  0  0  0  0  0
    3.3186   -0.1325    0.0000 C   0  0  0  0  0  0  0  0  0
    3.7311   -0.8470    0.0000 C   0  0  0  0  0  0  0  0  0
    4.5515   -0.9332    0.0000 Br  0  0  0  0  0  0  0  0  0
    3.1790   -1.4601    0.0000 C   0  0  0  0  0  0  0  0  0
  1  2  1  0  0  0  0
  2  3  4  0  0  0  0
  2  7  4  0  0  0  0
  3  4  4  0  0  0  0
  4  5  4  0  0  0  0
  4 17  1  0  0  0  0
  5  6  4  0  0  0  0
  6  7  4  0  0  0  0
  7  8  1  0  0  0  0
  8  9  1  0  0  0  0
  9 10  1  0  0  0  0
 10 11  1  0  0  0  0
 11 12  1  0  0  0  0
 11 16  1  0  0  0  0
 12 13  1  0  0  0  0
 13 14  1  0  0  0  0
 14 15  1  0  0  0  0
 15 16  1  0  0  0  0
 17 18  1  0  0  0  0
 18 19  1  0  0  0  0
 19 20  1  0  0  0  0
 20 21  2  0  0  0  0
 20 22  1  0  0  0  0
 22 23  4  0  0  0  0
 22 27  4  0  0  0  0
 23 24  4  0  0  0  0
 24 25  4  0  0  0  0
 25 26  1  0  0  0  0
 25 27  4  0  0  0  0
M  STY  1   1 DAT
M  SAL   1  1  23
M  SDT   1 MRV_IMPLICIT_H                                        
M  SDD   1     0.0000    0.0000    DR    ALL  0       0  
M  SED   1 IMPL_H1
M  END
>  <Name_Molregno>
564936

>  <HISTAMINE H3>
4.89

$$$$
564948
  Marvin  02231216192D 0   1.00000     0.00000     0

 27 29  0  0  1  0  0  0  0  0999 V2000
   -0.0073   -0.0654    0.0000 Br  0  0  0  0  0  0  0  0  0
    0.7072   -0.4779    0.0000 C   0  0  0  0  0  0  0  0  0
    1.4216   -0.0654    0.0000 C   0  0  0  0  0  0  0  0  0
    2.1361   -0.4779    0.0000 C   0  0  0  0  0  0  0  0  0
    2.1361   -1.3029    0.0000 C   0  0  0  0  0  0  0  0  0
    1.4216   -1.7154    0.0000 C   0  0  0  0  0  0  0  0  0
    0.7072   -1.3029    0.0000 C   0  0  0  0  0  0  0  0  0
   -0.0073   -1.7154    0.0000 O   0  0  0  0  0  0  0  0  0
   -0.0073   -2.5404    0.0000 C   0  0  0  0  0  0  0  0  0
   -0.7218   -2.9529    0.0000 C   0  0  0  0  0  0  0  0  0
   -0.7218   -3.7779    0.0000 C   0  0  0  0  0  0  0  0  0
   -1.4362   -4.1904    0.0000 C   0  0  0  0  0  0  0  0  0
   -2.1507   -3.7779    0.0000 C   0  0  0  0  0  0  0  0  0
   -2.1507   -2.9529    0.0000 N   0  0  0  0  0  0  0  0  0
   -1.4362   -2.5404    0.0000 C   0  0  0  0  0  0  0  0  0
   -2.8652   -2.5404    0.0000 C   0  0  0  0  0  0  0  0  0
    2.8506   -0.0654    0.0000 C   0  0  0  0  0  0  0  0  0
    3.5651   -0.4779    0.0000 C   0  0  0  0  0  0  0  0  0
    4.2795   -0.0654    0.0000 N   0  0  0  0  0  0  0  0  0
    4.9940   -0.4779    0.0000 C   0  0  0  0  0  0  0  0  0
    4.9940   -1.3029    0.0000 O   0  0  0  0  0  0  0  0  0
    5.7085   -0.0654    0.0000 C   0  0  0  0  0  0  0  0  0
    5.7947    0.7551    0.0000 N   0  0  0  0  0  0  0  0  0
    6.6017    0.9266    0.0000 C   0  0  0  0  0  0  0  0  0
    7.0142    0.2122    0.0000 C   0  0  0  0  0  0  0  0  0
    7.8347    0.1259    0.0000 Br  0  0  0  0  0  0  0  0  0
    6.4621   -0.4009    0.0000 C   0  0  0  0  0  0  0  0  0
  1  2  1  0  0  0  0
  2  3  4  0  0  0  0
  2  7  4  0  0  0  0
  3  4  4  0  0  0  0
  4  5  4  0  0  0  0
  4 17  1  0  0  0  0
  5  6  4  0  0  0  0
  6  7  4  0  0  0  0
  7  8  1  0  0  0  0
  8  9  1  0  0  0  0
  9 10  1  0  0  0  0
 10 11  1  0  0  0  0
 10 15  1  0  0  0  0
 11 12  1  0  0  0  0
 12 13  1  0  0  0  0
 13 14  1  0  0  0  0
 14 15  1  0  0  0  0
 14 16  1  0  0  0  0
 17 18  1  0  0  0  0
 18 19  1  0  0  0  0
 19 20  1  0  0  0  0
 20 21  2  0  0  0  0
 20 22  1  0  0  0  0
 22 23  4  0  0  0  0
 22 27  4  0  0  0  0
 23 24  4  0  0  0  0
 24 25  4  0  0  0  0
 25 26  1  0  0  0  0
 25 27  4  0  0  0  0
M  STY  1   1 DAT
M  SAL   1  1  23
M  SDT   1 MRV_IMPLICIT_H                                        
M  SDD   1     0.0000    0.0000    DR    ALL  0       0  
M  SED   1 IMPL_H1
M  END
>  <Name_Molregno>
564948

>  <HISTAMINE H3>
5.88

$$$$
564949
  Marvin  02231216192D 0   1.00000     0.00000     0

 25 27  0  0  0  0  0  0  0  0999 V2000
   -1.6804    0.5012    0.0000 Br  0  0  0  0  0  0  0  0  0
   -1.6804   -0.3238    0.0000 C   0  0  0  0  0  0  0  0  0
   -0.9659   -0.7363    0.0000 C   0  0  0  0  0  0  0  0  0
   -0.9659   -1.5613    0.0000 C   0  0  0  0  0  0  0  0  0
   -1.6804   -1.9738    0.0000 C   0  0  0  0  0  0  0  0  0
   -2.3949   -1.5613    0.0000 C   0  0  0  0  0  0  0  0  0
   -2.3949   -0.7363    0.0000 C   0  0  0  0  0  0  0  0  0
   -3.1093   -0.3238    0.0000 O   0  0  0  0  0  0  0  0  0
   -3.8238   -0.7363    0.0000 C   0  0  0  0  0  0  0  0  0
   -4.5383   -0.3238    0.0000 C   0  0  0  0  0  0  0  0  0
   -5.2527   -0.7363    0.0000 N   0  0  0  0  0  0  0  0  0
   -5.3390   -1.5568    0.0000 C   0  0  0  0  0  0  0  0  0
   -6.1460   -1.7284    0.0000 C   0  0  0  0  0  0  0  0  0
   -6.5585   -1.0139    0.0000 C   0  0  0  0  0  0  0  0  0
   -6.0064   -0.4008    0.0000 C   0  0  0  0  0  0  0  0  0
   -0.2514   -1.9738    0.0000 C   0  0  0  0  0  0  0  0  0
    0.4630   -1.5613    0.0000 C   0  0  0  0  0  0  0  0  0
    1.1775   -1.9738    0.0000 N   0  0  0  0  0  0  0  0  0
    1.8920   -1.5613    0.0000 C   0  0  0  0  0  0  0  0  0
    1.8920   -0.7363    0.0000 O   0  0  0  0  0  0  0  0  0
    2.6064   -1.9738    0.0000 C   0  0  0  0  0  0  0  0  0
    3.3601   -1.6383    0.0000 N   0  0  0  0  0  0  0  0  0
    3.9121   -2.2514    0.0000 C   0  0  0  0  0  0  0  0  0
    3.4996   -2.9659    0.0000 C   0  0  0  0  0  0  0  0  0
    2.6927   -2.7943    0.0000 C   0  0  0  0  0  0  0  0  0
  1  2  1  0  0  0  0
  2  3  4  0  0  0  0
  2  7  4  0  0  0  0
  3  4  4  0  0  0  0
  4  5  4  0  0  0  0
  4 16  1  0  0  0  0
  5  6  4  0  0  0  0
  6  7  4  0  0  0  0
  7  8  1  0  0  0  0
  8  9  1  0  0  0  0
  9 10  1  0  0  0  0
 10 11  1  0  0  0  0
 11 12  1  0  0  0  0
 11 15  1  0  0  0  0
 12 13  1  0  0  0  0
 13 14  1  0  0  0  0
 14 15  1  0  0  0  0
 16 17  1  0  0  0  0
 17 18  1  0  0  0  0
 18 19  1  0  0  0  0
 19 20  2  0  0  0  0
 19 21  1  0  0  0  0
 21 22  4  0  0  0  0
 21 25  4  0  0  0  0
 22 23  4  0  0  0  0
 23 24  4  0  0  0  0
 24 25  4  0  0  0  0
M  STY  1   1 DAT
M  SAL   1  1  22
M  SDT   1 MRV_IMPLICIT_H                                        
M  SDD   1     0.0000    0.0000    DR    ALL  0       0  
M  SED   1 IMPL_H1
M  END
>  <Name_Molregno>
564949

>  <HISTAMINE H3>
6.82

$$$$
564959
  Marvin  02231216192D 0   1.00000     0.00000     0

 26 28  0  0  1  0  0  0  0  0999 V2000
    1.5529    0.1839    0.0000 Br  0  0  0  0  0  0  0  0  0
    1.5529   -0.6411    0.0000 C   0  0  0  0  0  0  0  0  0
    2.2674   -1.0536    0.0000 C   0  0  0  0  0  0  0  0  0
    2.2674   -1.8786    0.0000 C   0  0  0  0  0  0  0  0  0
    1.5529   -2.2911    0.0000 C   0  0  0  0  0  0  0  0  0
    0.8384   -1.8786    0.0000 C   0  0  0  0  0  0  0  0  0
    0.8384   -1.0536    0.0000 C   0  0  0  0  0  0  0  0  0
    0.1240   -0.6411    0.0000 O   0  0  0  0  0  0  0  0  0
   -0.5905   -1.0536    0.0000 C   0  0  0  0  0  0  0  0  0
   -1.3050   -0.6411    0.0000 C   0  0  0  0  0  0  0  0  0
   -2.0195   -1.0536    0.0000 C   0  0  0  0  0  0  0  0  0
   -2.7339   -0.6411    0.0000 C   0  0  0  0  0  0  0  0  0
   -2.7339    0.1839    0.0000 C   0  0  0  0  0  0  0  0  0
   -2.0195    0.5964    0.0000 N   0  0  0  0  0  0  0  0  0
   -1.3050    0.1839    0.0000 C   0  0  0  0  0  0  0  0  0
   -2.0195    1.4214    0.0000 C   0  0  0  0  0  0  0  0  0
    2.9818   -2.2911    0.0000 C   0  0  0  0  0  0  0  0  0
    3.6963   -1.8786    0.0000 C   0  0  0  0  0  0  0  0  0
    4.4108   -2.2911    0.0000 N   0  0  0  0  0  0  0  0  0
    5.1253   -1.8786    0.0000 C   0  0  0  0  0  0  0  0  0
    5.1253   -1.0536    0.0000 O   0  0  0  0  0  0  0  0  0
    5.8397   -2.2911    0.0000 C   0  0  0  0  0  0  0  0  0
    6.5934   -1.9555    0.0000 N   0  0  0  0  0  0  0  0  0
    7.1454   -2.5686    0.0000 C   0  0  0  0  0  0  0  0  0
    6.7329   -3.2831    0.0000 C   0  0  0  0  0  0  0  0  0
    5.9260   -3.1115    0.0000 C   0  0  0  0  0  0  0  0  0
  1  2  1  0  0  0  0
  2  3  4  0  0  0  0
  2  7  4  0  0  0  0
  3  4  4  0  0  0  0
  4  5  4  0  0  0  0
  4 17  1  0  0  0  0
  5  6  4  0  0  0  0
  6  7  4  0  0  0  0
  7  8  1  0  0  0  0
  8  9  1  0  0  0  0
  9 10  1  0  0  0  0
 10 11  1  0  0  0  0
 10 15  1  0  0  0  0
 11 12  1  0  0  0  0
 12 13  1  0  0  0  0
 13 14  1  0  0  0  0
 14 15  1  0  0  0  0
 14 16  1  0  0  0  0
 17 18  1  0  0  0  0
 18 19  1  0  0  0  0
 19 20  1  0  0  0  0
 20 21  2  0  0  0  0
 20 22  1  0  0  0  0
 22 23  4  0  0  0  0
 22 26  4  0  0  0  0
 23 24  4  0  0  0  0
 24 25  4  0  0  0  0
 25 26  4  0  0  0  0
M  STY  1   1 DAT
M  SAL   1  1  23
M  SDT   1 MRV_IMPLICIT_H                                        
M  SDD   1     0.0000    0.0000    DR    ALL  0       0  
M  SED   1 IMPL_H1
M  END
>  <Name_Molregno>
564959

>  <HISTAMINE H3>
5.82

$$$$
564960
  Marvin  02231216192D 0   1.00000     0.00000     0

 24 25  0  0  0  0  0  0  0  0999 V2000
   -2.8228   -0.4215    0.0000 Br  0  0  0  0  0  0  0  0  0
   -2.8228   -1.2465    0.0000 C   0  0  0  0  0  0  0  0  0
   -2.1083   -1.6590    0.0000 C   0  0  0  0  0  0  0  0  0
   -2.1083   -2.4840    0.0000 C   0  0  0  0  0  0  0  0  0
   -2.8228   -2.8965    0.0000 C   0  0  0  0  0  0  0  0  0
   -3.5373   -2.4840    0.0000 C   0  0  0  0  0  0  0  0  0
   -3.5373   -1.6590    0.0000 C   0  0  0  0  0  0  0  0  0
   -4.2518   -1.2465    0.0000 O   0  0  0  0  0  0  0  0  0
   -4.9662   -1.6590    0.0000 C   0  0  0  0  0  0  0  0  0
   -5.6807   -1.2465    0.0000 C   0  0  0  0  0  0  0  0  0
   -6.3952   -1.6590    0.0000 N   0  0  0  0  0  0  0  0  0
   -7.1096   -1.2465    0.0000 C   0  0  0  0  0  0  0  0  0
   -6.3952   -2.4840    0.0000 C   0  0  0  0  0  0  0  0  0
   -1.3939   -2.8965    0.0000 C   0  0  0  0  0  0  0  0  0
   -0.6794   -2.4840    0.0000 C   0  0  0  0  0  0  0  0  0
    0.0351   -2.8965    0.0000 N   0  0  0  0  0  0  0  0  0
    0.7495   -2.4840    0.0000 C   0  0  0  0  0  0  0  0  0
    0.7495   -1.6590    0.0000 O   0  0  0  0  0  0  0  0  0
    1.4640   -2.8965    0.0000 C   0  0  0  0  0  0  0  0  0
    2.2177   -2.5610    0.0000 N   0  0  0  0  0  0  0  0  0
    2.7697   -3.1740    0.0000 C   0  0  0  0  0  0  0  0  0
    2.3572   -3.8885    0.0000 C   0  0  0  0  0  0  0  0  0
    1.5503   -3.7170    0.0000 C   0  0  0  0  0  0  0  0  0
    2.3892   -1.7540    0.0000 C   0  0  0  0  0  0  0  0  0
  1  2  1  0  0  0  0
  2  3  4  0  0  0  0
  2  7  4  0  0  0  0
  3  4  4  0  0  0  0
  4  5  4  0  0  0  0
  4 14  1  0  0  0  0
  5  6  4  0  0  0  0
  6  7  4  0  0  0  0
  7  8  1  0  0  0  0
  8  9  1  0  0  0  0
  9 10  1  0  0  0  0
 10 11  1  0  0  0  0
 11 12  1  0  0  0  0
 11 13  1  0  0  0  0
 14 15  1  0  0  0  0
 15 16  1  0  0  0  0
 16 17  1  0  0  0  0
 17 18  2  0  0  0  0
 17 19  1  0  0  0  0
 19 20  4  0  0  0  0
 19 23  4  0  0  0  0
 20 21  4  0  0  0  0
 20 24  1  0  0  0  0
 21 22  4  0  0  0  0
 22 23  4  0  0  0  0
M  END
>  <Name_Molregno>
564960

>  <HISTAMINE H3>
5.67

$$$$
564967
  Marvin  02231216192D 0   1.00000     0.00000     0

 24 27  0  0  1  0  0  0  0  0999 V2000
    3.0114   -4.3693    0.0000 N   0  0  0  0  0  0  0  0  0
    3.2663   -3.5847    0.0000 C   0  0  0  0  0  0  0  0  0
    3.5213   -2.8000    0.0000 C   0  0  0  0  0  0  0  0  0
    2.9692   -2.1870    0.0000 C   0  0  0  0  0  0  0  0  0
    3.2242   -1.4023    0.0000 C   0  0  0  0  0  0  0  0  0
    4.0312   -1.2308    0.0000 C   0  0  0  0  0  0  0  0  0
    4.5832   -1.8439    0.0000 C   0  0  0  0  0  0  0  0  0
    4.3282   -2.6285    0.0000 C   0  0  0  0  0  0  0  0  0
    4.2861   -0.4462    0.0000 C   0  0  0  0  0  0  0  0  0
    3.7341    0.1669    0.0000 C   0  0  0  0  0  0  0  0  0
    3.9890    0.9515    0.0000 C   0  0  0  0  0  0  0  0  0
    4.7960    1.1231    0.0000 C   0  0  0  0  0  0  0  0  0
    5.0509    1.9077    0.0000 N   0  0  0  0  0  0  0  0  0
    5.8355    2.1626    0.0000 C   0  0  0  0  0  0  0  0  0
    5.8355    2.9876    0.0000 C   0  0  0  0  0  0  0  0  0
    5.0509    3.2426    0.0000 C   0  0  0  0  0  0  0  0  0
    4.5660    2.5751    0.0000 C   0  0  0  0  0  0  0  0  0
    6.6201    3.2426    0.0000 C   0  0  0  0  0  0  0  0  0
    7.1051    2.5751    0.0000 N   0  0  0  0  0  0  0  0  0
    6.6201    1.9077    0.0000 C   0  0  0  0  0  0  0  0  0
    7.9301    2.5751    0.0000 C   0  0  0  0  0  0  0  0  0
    8.3426    3.2896    0.0000 C   0  0  0  0  0  0  0  0  0
    5.3480    0.5100    0.0000 C   0  0  0  0  0  0  0  0  0
    5.0931   -0.2747    0.0000 C   0  0  0  0  0  0  0  0  0
  1  2  3  0  0  0  0
  2  3  1  0  0  0  0
  3  4  4  0  0  0  0
  3  8  4  0  0  0  0
  4  5  4  0  0  0  0
  5  6  4  0  0  0  0
  6  7  4  0  0  0  0
  6  9  1  0  0  0  0
  7  8  4  0  0  0  0
  9 10  4  0  0  0  0
  9 24  4  0  0  0  0
 10 11  4  0  0  0  0
 11 12  4  0  0  0  0
 12 13  1  0  0  0  0
 12 23  4  0  0  0  0
 13 14  1  0  0  0  0
 13 17  1  0  0  0  0
 14 15  1  0  0  0  0
 14 20  1  0  0  0  0
 15 16  1  0  0  0  0
 15 18  1  0  0  0  0
 16 17  1  0  0  0  0
 18 19  1  0  0  0  0
 19 20  1  0  0  0  0
 19 21  1  0  0  0  0
 21 22  1  0  0  0  0
 23 24  4  0  0  0  0
M  END
>  <Name_Molregno>
564967

>  <HISTAMINE H3>
8.18

$$$$
564968
  Marvin  02231216192D 0   1.00000     0.00000     0

 27 29  0  0  0  0  0  0  0  0999 V2000
   -3.2904   -1.1245    0.0000 Br  0  0  0  0  0  0  0  0  0
   -2.5760   -1.5370    0.0000 C   0  0  0  0  0  0  0  0  0
   -1.8615   -1.1245    0.0000 C   0  0  0  0  0  0  0  0  0
   -1.1470   -1.5370    0.0000 C   0  0  0  0  0  0  0  0  0
   -1.1470   -2.3620    0.0000 C   0  0  0  0  0  0  0  0  0
   -1.8615   -2.7745    0.0000 C   0  0  0  0  0  0  0  0  0
   -2.5760   -2.3620    0.0000 C   0  0  0  0  0  0  0  0  0
   -3.2904   -2.7745    0.0000 O   0  0  0  0  0  0  0  0  0
   -4.0049   -2.3620    0.0000 C   0  0  0  0  0  0  0  0  0
   -4.0049   -1.5370    0.0000 C   0  0  0  0  0  0  0  0  0
   -4.7194   -1.1245    0.0000 N   0  0  0  0  0  0  0  0  0
   -5.4338   -1.5370    0.0000 C   0  0  0  0  0  0  0  0  0
   -6.1483   -1.1245    0.0000 C   0  0  0  0  0  0  0  0  0
   -6.1483   -0.2995    0.0000 O   0  0  0  0  0  0  0  0  0
   -5.4338    0.1130    0.0000 C   0  0  0  0  0  0  0  0  0
   -4.7194   -0.2995    0.0000 C   0  0  0  0  0  0  0  0  0
   -0.4325   -1.1245    0.0000 C   0  0  0  0  0  0  0  0  0
    0.2819   -1.5370    0.0000 C   0  0  0  0  0  0  0  0  0
    0.9964   -1.1245    0.0000 N   0  0  0  0  0  0  0  0  0
    1.7109   -1.5370    0.0000 C   0  0  0  0  0  0  0  0  0
    1.7109   -2.3620    0.0000 O   0  0  0  0  0  0  0  0  0
    2.4253   -1.1245    0.0000 C   0  0  0  0  0  0  0  0  0
    2.5116   -0.3040    0.0000 S   0  0  0  0  0  0  0  0  0
    3.3186   -0.1325    0.0000 C   0  0  0  0  0  0  0  0  0
    3.7311   -0.8470    0.0000 C   0  0  0  0  0  0  0  0  0
    4.5515   -0.9332    0.0000 Br  0  0  0  0  0  0  0  0  0
    3.1790   -1.4601    0.0000 C   0  0  0  0  0  0  0  0  0
  1  2  1  0  0  0  0
  2  3  4  0  0  0  0
  2  7  4  0  0  0  0
  3  4  4  0  0  0  0
  4  5  4  0  0  0  0
  4 17  1  0  0  0  0
  5  6  4  0  0  0  0
  6  7  4  0  0  0  0
  7  8  1  0  0  0  0
  8  9  1  0  0  0  0
  9 10  1  0  0  0  0
 10 11  1  0  0  0  0
 11 12  1  0  0  0  0
 11 16  1  0  0  0  0
 12 13  1  0  0  0  0
 13 14  1  0  0  0  0
 14 15  1  0  0  0  0
 15 16  1  0  0  0  0
 17 18  1  0  0  0  0
 18 19  1  0  0  0  0
 19 20  1  0  0  0  0
 20 21  2  0  0  0  0
 20 22  1  0  0  0  0
 22 23  4  0  0  0  0
 22 27  4  0  0  0  0
 23 24  4  0  0  0  0
 24 25  4  0  0  0  0
 25 26  1  0  0  0  0
 25 27  4  0  0  0  0
M  END
>  <Name_Molregno>
564968

>  <HISTAMINE H3>
4.87

$$$$
566336
  Marvin  02231216192D 0   1.00000     0.00000     0

 29 32  0  0  0  0  0  0  0  0999 V2000
   -3.1104   -0.0079    0.0000 O   0  0  0  0  0  0  0  0  0
   -3.8249    0.4046    0.0000 C   0  0  0  0  0  0  0  0  0
   -4.5394   -0.0079    0.0000 C   0  0  0  0  0  0  0  0  0
   -5.2538    0.4046    0.0000 C   0  0  0  0  0  0  0  0  0
   -5.9683   -0.0079    0.0000 N   0  0  0  0  0  0  0  0  0
   -5.9683   -0.8329    0.0000 C   0  0  0  0  0  0  0  0  0
   -6.6828   -1.2454    0.0000 C   0  0  0  0  0  0  0  0  0
   -7.3972   -0.8329    0.0000 C   0  0  0  0  0  0  0  0  0
   -7.3972   -0.0079    0.0000 C   0  0  0  0  0  0  0  0  0
   -6.6828    0.4046    0.0000 C   0  0  0  0  0  0  0  0  0
   -2.3960    0.4046    0.0000 C   0  0  0  0  0  0  0  0  0
   -1.6815   -0.0079    0.0000 C   0  0  0  0  0  0  0  0  0
   -0.9670    0.4046    0.0000 C   0  0  0  0  0  0  0  0  0
   -0.9670    1.2296    0.0000 C   0  0  0  0  0  0  0  0  0
   -0.2525    1.6421    0.0000 C   0  0  0  0  0  0  0  0  0
    0.4619    1.2296    0.0000 C   0  0  0  0  0  0  0  0  0
    0.4619    0.4046    0.0000 C   0  0  0  0  0  0  0  0  0
   -0.2525   -0.0079    0.0000 C   0  0  0  0  0  0  0  0  0
    1.1764    1.6421    0.0000 C   0  0  0  0  0  0  0  0  0
    1.1764    2.4671    0.0000 O   0  0  0  0  0  0  0  0  0
    1.8909    1.2296    0.0000 N   0  0  0  0  0  0  0  0  0
    2.6053    1.6421    0.0000 C   0  0  0  0  0  0  0  0  0
    3.3198    1.2296    0.0000 C   0  0  0  0  0  0  0  0  0
    3.3198    0.4046    0.0000 C   0  0  0  0  0  0  0  0  0
    2.6053   -0.0079    0.0000 C   0  0  0  0  0  0  0  0  0
    1.8909    0.4046    0.0000 C   0  0  0  0  0  0  0  0  0
    4.0343   -0.0079    0.0000 C   0  0  0  0  0  0  0  0  0
   -1.6815    1.6421    0.0000 C   0  0  0  0  0  0  0  0  0
   -2.3960    1.2296    0.0000 C   0  0  0  0  0  0  0  0  0
  1  2  1  0  0  0  0
  1 11  1  0  0  0  0
  2  3  1  0  0  0  0
  3  4  1  0  0  0  0
  4  5  1  0  0  0  0
  5  6  1  0  0  0  0
  5 10  1  0  0  0  0
  6  7  1  0  0  0  0
  7  8  1  0  0  0  0
  8  9  1  0  0  0  0
  9 10  1  0  0  0  0
 11 12  4  0  0  0  0
 11 29  4  0  0  0  0
 12 13  4  0  0  0  0
 13 14  4  0  0  0  0
 13 18  4  0  0  0  0
 14 15  4  0  0  0  0
 14 28  4  0  0  0  0
 15 16  4  0  0  0  0
 16 17  4  0  0  0  0
 16 19  1  0  0  0  0
 17 18  4  0  0  0  0
 19 20  2  0  0  0  0
 19 21  1  0  0  0  0
 21 22  1  0  0  0  0
 21 26  1  0  0  0  0
 22 23  1  0  0  0  0
 23 24  1  0  0  0  0
 24 25  1  0  0  0  0
 24 27  1  0  0  0  0
 25 26  1  0  0  0  0
 28 29  4  0  0  0  0
M  END
>  <Name_Molregno>
566336

>  <HISTAMINE H3>
8.15

$$$$
566348
  Marvin  02231216192D 0   1.00000     0.00000     0

 30 33  0  0  0  0  0  0  0  0999 V2000
   -7.8400   -4.8029    0.0000 O   0  0  0  0  0  0  0  0  0
   -7.1255   -5.2154    0.0000 C   0  0  0  0  0  0  0  0  0
   -7.8400   -3.9779    0.0000 C   0  0  0  0  0  0  0  0  0
   -8.5545   -3.5654    0.0000 C   0  0  0  0  0  0  0  0  0
   -8.5545   -2.7404    0.0000 C   0  0  0  0  0  0  0  0  0
   -7.8400   -2.3279    0.0000 N   0  0  0  0  0  0  0  0  0
   -7.1255   -2.7404    0.0000 C   0  0  0  0  0  0  0  0  0
   -7.1255   -3.5654    0.0000 C   0  0  0  0  0  0  0  0  0
   -7.8400   -1.5029    0.0000 C   0  0  0  0  0  0  0  0  0
   -8.5545   -1.0904    0.0000 O   0  0  0  0  0  0  0  0  0
   -7.1255   -1.0904    0.0000 C   0  0  0  0  0  0  0  0  0
   -6.4111   -1.5029    0.0000 C   0  0  0  0  0  0  0  0  0
   -5.6966   -1.0904    0.0000 C   0  0  0  0  0  0  0  0  0
   -5.6966   -0.2654    0.0000 C   0  0  0  0  0  0  0  0  0
   -4.9821    0.1471    0.0000 C   0  0  0  0  0  0  0  0  0
   -4.2676   -0.2654    0.0000 C   0  0  0  0  0  0  0  0  0
   -3.5532    0.1471    0.0000 O   0  0  0  0  0  0  0  0  0
   -3.5532    0.9721    0.0000 C   0  0  0  0  0  0  0  0  0
   -2.8387    1.3846    0.0000 C   0  0  0  0  0  0  0  0  0
   -2.8387    2.2096    0.0000 C   0  0  0  0  0  0  0  0  0
   -2.1242    2.6221    0.0000 N   0  0  0  0  0  0  0  0  0
   -2.1242    3.4471    0.0000 C   0  0  0  0  0  0  0  0  0
   -1.4098    3.8596    0.0000 C   0  0  0  0  0  0  0  0  0
   -0.6953    3.4471    0.0000 C   0  0  0  0  0  0  0  0  0
   -0.6953    2.6221    0.0000 C   0  0  0  0  0  0  0  0  0
   -1.4098    2.2096    0.0000 C   0  0  0  0  0  0  0  0  0
   -4.2676   -1.0904    0.0000 C   0  0  0  0  0  0  0  0  0
   -4.9821   -1.5029    0.0000 C   0  0  0  0  0  0  0  0  0
   -6.4111    0.1471    0.0000 C   0  0  0  0  0  0  0  0  0
   -7.1255   -0.2654    0.0000 C   0  0  0  0  0  0  0  0  0
  1  2  1  0  0  0  0
  1  3  1  0  0  0  0
  3  4  1  0  0  0  0
  3  8  1  0  0  0  0
  4  5  1  0  0  0  0
  5  6  1  0  0  0  0
  6  7  1  0  0  0  0
  6  9  1  0  0  0  0
  7  8  1  0  0  0  0
  9 10  2  0  0  0  0
  9 11  1  0  0  0  0
 11 12  4  0  0  0  0
 11 30  4  0  0  0  0
 12 13  4  0  0  0  0
 13 14  4  0  0  0  0
 13 28  4  0  0  0  0
 14 15  4  0  0  0  0
 14 29  4  0  0  0  0
 15 16  4  0  0  0  0
 16 17  1  0  0  0  0
 16 27  4  0  0  0  0
 17 18  1  0  0  0  0
 18 19  1  0  0  0  0
 19 20  1  0  0  0  0
 20 21  1  0  0  0  0
 21 22  1  0  0  0  0
 21 26  1  0  0  0  0
 22 23  1  0  0  0  0
 23 24  1  0  0  0  0
 24 25  1  0  0  0  0
 25 26  1  0  0  0  0
 27 28  4  0  0  0  0
 29 30  4  0  0  0  0
M  END
>  <Name_Molregno>
566348

>  <HISTAMINE H3>
7.52

$$$$
566363
  Marvin  02231216192D 0   1.00000     0.00000     0

 30 34  0  0  1  0  0  0  0  0999 V2000
   -8.0157   -3.7570    0.0000 O   0  0  0  0  0  0  0  0  0
   -8.0157   -2.9320    0.0000 C   0  0  0  0  0  0  0  0  0
   -7.3012   -2.5195    0.0000 C   0  0  0  0  0  0  0  0  0
   -6.5867   -2.9320    0.0000 N   0  0  0  0  0  0  0  0  0
   -6.5867   -3.7570    0.0000 C   0  0  0  0  0  0  0  0  0
   -7.3012   -4.1695    0.0000 C   0  0  0  0  0  0  0  0  0
   -5.8722   -2.5195    0.0000 C   0  0  0  0  0  0  0  0  0
   -5.1578   -2.9320    0.0000 O   0  0  0  0  0  0  0  0  0
   -5.8722   -1.6945    0.0000 C   0  0  0  0  0  0  0  0  0
   -5.1578   -1.2820    0.0000 N   0  0  0  0  0  0  0  0  0
   -5.1578   -0.4570    0.0000 C   0  0  0  0  0  0  0  0  0
   -5.8722   -0.0445    0.0000 C   0  0  0  0  0  0  0  0  0
   -5.8722    0.7805    0.0000 C   0  0  0  0  0  0  0  0  0
   -5.1578    1.1930    0.0000 C   0  0  0  0  0  0  0  0  0
   -5.1578    2.0180    0.0000 O   0  0  0  0  0  0  0  0  0
   -4.4433    2.4305    0.0000 C   0  0  0  0  0  0  0  0  0
   -4.1984    3.0945    0.0000 C   0  0  0  0  0  0  0  0  0
   -3.5077    3.6111    0.0000 C   0  0  0  0  0  0  0  0  0
   -2.3595    4.0709    0.0000 N   0  0  0  0  0  0  0  0  0
   -2.9723    3.5185    0.0000 C   0  0  0  0  0  0  0  0  0
   -3.1928    2.8899    0.0000 C   0  0  0  0  0  0  0  0  0
   -3.9225    2.3410    0.0000 C   0  0  0  0  0  0  0  0  0
   -3.9774    4.2165    0.0000 C   0  0  0  0  0  0  0  0  0
   -1.6593    4.5071    0.0000 C   0  0  0  0  0  0  0  0  0
   -1.6870    5.3317    0.0000 C   0  0  0  0  0  0  0  0  0
   -0.9313    4.1188    0.0000 C   0  0  0  0  0  0  0  0  0
   -4.4433    0.7805    0.0000 C   0  0  0  0  0  0  0  0  0
   -4.4433   -0.0445    0.0000 C   0  0  0  0  0  0  0  0  0
   -6.5867   -0.4570    0.0000 C   0  0  0  0  0  0  0  0  0
   -6.5867   -1.2820    0.0000 C   0  0  0  0  0  0  0  0  0
  1  2  1  0  0  0  0
  1  6  1  0  0  0  0
  2  3  1  0  0  0  0
  3  4  1  0  0  0  0
  4  5  1  0  0  0  0
  4  7  1  0  0  0  0
  5  6  1  0  0  0  0
  7  8  2  0  0  0  0
  7  9  1  0  0  0  0
  9 10  4  0  0  0  0
  9 30  4  0  0  0  0
 10 11  4  0  0  0  0
 11 12  4  0  0  0  0
 11 28  4  0  0  0  0
 12 13  4  0  0  0  0
 12 29  4  0  0  0  0
 13 14  4  0  0  0  0
 14 15  1  0  0  0  0
 14 27  4  0  0  0  0
 15 16  1  0  0  0  0
 16 17  1  0  0  0  0
 16 22  1  0  0  0  0
 17 18  1  0  0  0  0
 18 19  1  0  0  0  0
 18 23  1  0  0  0  0
 19 20  1  0  0  0  0
 19 24  1  0  0  0  0
 20 21  1  0  0  0  0
 20 23  1  0  0  0  0
 21 22  1  0  0  0  0
 24 25  1  0  0  0  0
 24 26  1  0  0  0  0
 27 28  4  0  0  0  0
 29 30  4  0  0  0  0
M  END
>  <Name_Molregno>
566363

>  <HISTAMINE H3>
7.52

$$$$
566678
  Marvin  02231216192D 0   1.00000     0.00000     0

 24 27  0  0  1  0  0  0  0  0999 V2000
    1.4605   -4.1253    0.0000 O   0  0  0  0  0  0  0  0  0
    1.7155   -3.3407    0.0000 C   0  0  0  0  0  0  0  0  0
    1.1634   -2.7276    0.0000 C   0  0  0  0  0  0  0  0  0
    2.5224   -3.1692    0.0000 C   0  0  0  0  0  0  0  0  0
    2.7774   -2.3846    0.0000 C   0  0  0  0  0  0  0  0  0
    3.5843   -2.2130    0.0000 C   0  0  0  0  0  0  0  0  0
    4.1364   -2.8261    0.0000 C   0  0  0  0  0  0  0  0  0
    3.8814   -3.6108    0.0000 C   0  0  0  0  0  0  0  0  0
    3.0745   -3.7823    0.0000 C   0  0  0  0  0  0  0  0  0
    3.8393   -1.4284    0.0000 C   0  0  0  0  0  0  0  0  0
    3.2872   -0.8153    0.0000 C   0  0  0  0  0  0  0  0  0
    3.5422   -0.0307    0.0000 C   0  0  0  0  0  0  0  0  0
    4.3492    0.1408    0.0000 C   0  0  0  0  0  0  0  0  0
    4.6041    0.9254    0.0000 N   0  0  0  0  0  0  0  0  0
    5.3887    1.1804    0.0000 C   0  0  0  0  0  0  0  0  0
    5.3887    2.0054    0.0000 C   0  0  0  0  0  0  0  0  0
    4.6041    2.2603    0.0000 C   0  0  0  0  0  0  0  0  0
    4.1192    1.5929    0.0000 C   0  0  0  0  0  0  0  0  0
    6.1733    2.2603    0.0000 C   0  0  0  0  0  0  0  0  0
    6.6583    1.5929    0.0000 N   0  0  0  0  0  0  0  0  0
    6.1733    0.9254    0.0000 C   0  0  0  0  0  0  0  0  0
    7.4833    1.5929    0.0000 C   0  0  0  0  0  0  0  0  0
    4.9012   -0.4723    0.0000 C   0  0  0  0  0  0  0  0  0
    4.6463   -1.2569    0.0000 C   0  0  0  0  0  0  0  0  0
  1  2  2  0  0  0  0
  2  3  1  0  0  0  0
  2  4  1  0  0  0  0
  4  5  4  0  0  0  0
  4  9  4  0  0  0  0
  5  6  4  0  0  0  0
  6  7  4  0  0  0  0
  6 10  1  0  0  0  0
  7  8  4  0  0  0  0
  8  9  4  0  0  0  0
 10 11  4  0  0  0  0
 10 24  4  0  0  0  0
 11 12  4  0  0  0  0
 12 13  4  0  0  0  0
 13 14  1  0  0  0  0
 13 23  4  0  0  0  0
 14 15  1  0  0  0  0
 14 18  1  0  0  0  0
 15 16  1  0  0  0  0
 15 21  1  0  0  0  0
 16 17  1  0  0  0  0
 16 19  1  0  0  0  0
 17 18  1  0  0  0  0
 19 20  1  0  0  0  0
 20 21  1  0  0  0  0
 20 22  1  0  0  0  0
 23 24  4  0  0  0  0
M  END
>  <Name_Molregno>
566678

>  <HISTAMINE H3>
8.23

$$$$
566679
  Marvin  02231216192D 0   1.00000     0.00000     0

 22 25  0  0  1  0  0  0  0  0999 V2000
    2.5794   -3.7001    0.0000 Br  0  0  0  0  0  0  0  0  0
    2.8344   -2.9155    0.0000 C   0  0  0  0  0  0  0  0  0
    2.2823   -2.3024    0.0000 C   0  0  0  0  0  0  0  0  0
    2.5373   -1.5178    0.0000 C   0  0  0  0  0  0  0  0  0
    3.3442   -1.3462    0.0000 C   0  0  0  0  0  0  0  0  0
    3.8963   -1.9593    0.0000 C   0  0  0  0  0  0  0  0  0
    3.6413   -2.7440    0.0000 C   0  0  0  0  0  0  0  0  0
    3.5992   -0.5616    0.0000 C   0  0  0  0  0  0  0  0  0
    3.0472    0.0515    0.0000 C   0  0  0  0  0  0  0  0  0
    3.3021    0.8361    0.0000 C   0  0  0  0  0  0  0  0  0
    4.1091    1.0076    0.0000 C   0  0  0  0  0  0  0  0  0
    4.3640    1.7923    0.0000 N   0  0  0  0  0  0  0  0  0
    5.1486    2.0472    0.0000 C   0  0  0  0  0  0  0  0  0
    5.1486    2.8722    0.0000 C   0  0  0  0  0  0  0  0  0
    4.3640    3.1271    0.0000 C   0  0  0  0  0  0  0  0  0
    3.8791    2.4597    0.0000 C   0  0  0  0  0  0  0  0  0
    5.9332    3.1271    0.0000 C   0  0  0  0  0  0  0  0  0
    6.4182    2.4597    0.0000 N   0  0  0  0  0  0  0  0  0
    5.9332    1.7923    0.0000 C   0  0  0  0  0  0  0  0  0
    7.2432    2.4597    0.0000 C   0  0  0  0  0  0  0  0  0
    4.6611    0.3945    0.0000 C   0  0  0  0  0  0  0  0  0
    4.4062   -0.3901    0.0000 C   0  0  0  0  0  0  0  0  0
  1  2  1  0  0  0  0
  2  3  4  0  0  0  0
  2  7  4  0  0  0  0
  3  4  4  0  0  0  0
  4  5  4  0  0  0  0
  5  6  4  0  0  0  0
  5  8  1  0  0  0  0
  6  7  4  0  0  0  0
  8  9  4  0  0  0  0
  8 22  4  0  0  0  0
  9 10  4  0  0  0  0
 10 11  4  0  0  0  0
 11 12  1  0  0  0  0
 11 21  4  0  0  0  0
 12 13  1  0  0  0  0
 12 16  1  0  0  0  0
 13 14  1  0  0  0  0
 13 19  1  0  0  0  0
 14 15  1  0  0  0  0
 14 17  1  0  0  0  0
 15 16  1  0  0  0  0
 17 18  1  0  0  0  0
 18 19  1  0  0  0  0
 18 20  1  0  0  0  0
 21 22  4  0  0  0  0
M  END
>  <Name_Molregno>
566679

>  <HISTAMINE H3>
7.91

$$$$
568042
  Marvin  02231216192D 0   1.00000     0.00000     0

 30 33  0  0  1  0  0  0  0  0999 V2000
    2.8205    2.7768    0.0000 S   0  0  0  0  0  0  0  0  0
    1.9955    2.7768    0.0000 O   0  0  0  0  0  0  0  0  0
    3.6455    2.7768    0.0000 O   0  0  0  0  0  0  0  0  0
    2.8205    3.6018    0.0000 N   0  0  0  0  0  0  0  0  0
    2.1060    4.0143    0.0000 C   0  0  0  0  0  0  0  0  0
    1.3915    3.6018    0.0000 C   0  0  0  0  0  0  0  0  0
    0.6770    4.0143    0.0000 C   0  0  0  0  0  0  0  0  0
    0.6770    4.8393    0.0000 O   0  0  0  0  0  0  0  0  0
    1.3915    5.2518    0.0000 C   0  0  0  0  0  0  0  0  0
    2.1060    4.8393    0.0000 C   0  0  0  0  0  0  0  0  0
    2.8205    1.9518    0.0000 C   0  0  0  0  0  0  0  0  0
    3.5349    1.5393    0.0000 C   0  0  0  0  0  0  0  0  0
    3.5349    0.7143    0.0000 C   0  0  0  0  0  0  0  0  0
    2.8205    0.3018    0.0000 C   0  0  0  0  0  0  0  0  0
    2.1060    0.7143    0.0000 C   0  0  0  0  0  0  0  0  0
    2.1060    1.5393    0.0000 C   0  0  0  0  0  0  0  0  0
    2.8205   -0.5232    0.0000 C   0  0  0  0  0  0  0  0  0
    3.5349   -0.9357    0.0000 C   0  0  0  0  0  0  0  0  0
    3.5349   -1.7607    0.0000 C   0  0  0  0  0  0  0  0  0
    2.8205   -2.1732    0.0000 C   0  0  0  0  0  0  0  0  0
    2.1060   -1.7607    0.0000 C   0  0  0  0  0  0  0  0  0
    2.1060   -0.9357    0.0000 C   0  0  0  0  0  0  0  0  0
    2.8205   -2.9982    0.0000 C   0  0  0  0  0  0  0  0  0
    3.5349   -3.4107    0.0000 C   0  0  0  0  0  0  0  0  0
    3.5349   -4.2357    0.0000 N   0  0  0  0  0  0  0  0  0
    4.2024   -4.7206    0.0000 C   0  0  0  0  0  0  0  0  0
    3.9474   -5.5052    0.0000 C   0  0  0  0  0  0  0  0  0
    3.1224   -5.5052    0.0000 C   0  0  0  0  0  0  0  0  0
    2.8675   -4.7206    0.0000 C   0  0  0  0  0  0  0  0  0
    2.0829   -4.4656    0.0000 C   0  0  0  0  0  0  0  0  0
  1  2  2  0  0  0  0
  1  3  2  0  0  0  0
  1  4  1  0  0  0  0
  1 11  1  0  0  0  0
  4  5  1  0  0  0  0
  5  6  1  0  0  0  0
  5 10  1  0  0  0  0
  6  7  1  0  0  0  0
  7  8  1  0  0  0  0
  8  9  1  0  0  0  0
  9 10  1  0  0  0  0
 11 12  4  0  0  0  0
 11 16  4  0  0  0  0
 12 13  4  0  0  0  0
 13 14  4  0  0  0  0
 14 15  4  0  0  0  0
 14 17  1  0  0  0  0
 15 16  4  0  0  0  0
 17 18  4  0  0  0  0
 17 22  4  0  0  0  0
 18 19  4  0  0  0  0
 19 20  4  0  0  0  0
 20 21  4  0  0  0  0
 20 23  1  0  0  0  0
 21 22  4  0  0  0  0
 23 24  1  0  0  0  0
 24 25  1  0  0  0  0
 25 26  1  0  0  0  0
 25 29  1  0  0  0  0
 26 27  1  0  0  0  0
 27 28  1  0  0  0  0
 28 29  1  0  0  0  0
 29 30  1  0  0  0  0
M  END
>  <Name_Molregno>
568042

>  <HISTAMINE H3>
8.57

$$$$
568195
  Marvin  02231216192D 0   1.00000     0.00000     0

 29 32  0  0  0  0  0  0  0  0999 V2000
  -11.4815   -3.0468    0.0000 O   0  0  0  0  0  0  0  0  0
  -11.4815   -2.2218    0.0000 C   0  0  0  0  0  0  0  0  0
  -10.7671   -1.8093    0.0000 C   0  0  0  0  0  0  0  0  0
  -10.0526   -2.2218    0.0000 N   0  0  0  0  0  0  0  0  0
  -10.0526   -3.0468    0.0000 C   0  0  0  0  0  0  0  0  0
  -10.7671   -3.4593    0.0000 C   0  0  0  0  0  0  0  0  0
   -9.3381   -1.8093    0.0000 C   0  0  0  0  0  0  0  0  0
   -8.6236   -2.2218    0.0000 C   0  0  0  0  0  0  0  0  0
   -7.9092   -1.8093    0.0000 C   0  0  0  0  0  0  0  0  0
   -7.1947   -2.2218    0.0000 O   0  0  0  0  0  0  0  0  0
   -6.4802   -1.8093    0.0000 C   0  0  0  0  0  0  0  0  0
   -5.7658   -2.2218    0.0000 C   0  0  0  0  0  0  0  0  0
   -5.0513   -1.8093    0.0000 C   0  0  0  0  0  0  0  0  0
   -5.0513   -0.9843    0.0000 C   0  0  0  0  0  0  0  0  0
   -4.3368   -0.5718    0.0000 C   0  0  0  0  0  0  0  0  0
   -3.6224   -0.9843    0.0000 C   0  0  0  0  0  0  0  0  0
   -3.6224   -1.8093    0.0000 C   0  0  0  0  0  0  0  0  0
   -4.3368   -2.2218    0.0000 C   0  0  0  0  0  0  0  0  0
   -2.9079   -0.5718    0.0000 C   0  0  0  0  0  0  0  0  0
   -2.9079    0.2532    0.0000 O   0  0  0  0  0  0  0  0  0
   -2.1934   -0.9843    0.0000 N   0  0  0  0  0  0  0  0  0
   -1.4789   -0.5718    0.0000 C   0  0  0  0  0  0  0  0  0
   -0.7645   -0.9843    0.0000 C   0  0  0  0  0  0  0  0  0
   -0.7645   -1.8093    0.0000 C   0  0  0  0  0  0  0  0  0
   -1.4789   -2.2218    0.0000 C   0  0  0  0  0  0  0  0  0
   -2.1934   -1.8093    0.0000 C   0  0  0  0  0  0  0  0  0
   -0.0500   -2.2218    0.0000 C   0  0  0  0  0  0  0  0  0
   -5.7658   -0.5718    0.0000 C   0  0  0  0  0  0  0  0  0
   -6.4802   -0.9843    0.0000 C   0  0  0  0  0  0  0  0  0
  1  2  1  0  0  0  0
  1  6  1  0  0  0  0
  2  3  1  0  0  0  0
  3  4  1  0  0  0  0
  4  5  1  0  0  0  0
  4  7  1  0  0  0  0
  5  6  1  0  0  0  0
  7  8  1  0  0  0  0
  8  9  1  0  0  0  0
  9 10  1  0  0  0  0
 10 11  1  0  0  0  0
 11 12  4  0  0  0  0
 11 29  4  0  0  0  0
 12 13  4  0  0  0  0
 13 14  4  0  0  0  0
 13 18  4  0  0  0  0
 14 15  4  0  0  0  0
 14 28  4  0  0  0  0
 15 16  4  0  0  0  0
 16 17  4  0  0  0  0
 16 19  1  0  0  0  0
 17 18  4  0  0  0  0
 19 20  2  0  0  0  0
 19 21  1  0  0  0  0
 21 22  1  0  0  0  0
 21 26  1  0  0  0  0
 22 23  1  0  0  0  0
 23 24  1  0  0  0  0
 24 25  1  0  0  0  0
 24 27  1  0  0  0  0
 25 26  1  0  0  0  0
 28 29  4  0  0  0  0
M  END
>  <Name_Molregno>
568195

>  <HISTAMINE H3>
5.7

$$$$
569750
  Marvin  02231216192D 0   1.00000     0.00000     0

 23 25  0  0  0  0  0  0  0  0999 V2000
   -3.9179   -4.0439    0.0000 O   0  0  0  0  0  0  0  0  0
   -4.6324   -3.6314    0.0000 C   0  0  0  0  0  0  0  0  0
   -4.6324   -2.8064    0.0000 C   0  0  0  0  0  0  0  0  0
   -3.9179   -2.3939    0.0000 N   0  0  0  0  0  0  0  0  0
   -3.2035   -2.8064    0.0000 C   0  0  0  0  0  0  0  0  0
   -3.2035   -3.6314    0.0000 C   0  0  0  0  0  0  0  0  0
   -3.9179   -1.5689    0.0000 C   0  0  0  0  0  0  0  0  0
   -4.6324   -1.1564    0.0000 C   0  0  0  0  0  0  0  0  0
   -4.6324   -0.3314    0.0000 C   0  0  0  0  0  0  0  0  0
   -4.6324    0.4936    0.0000 C   0  0  0  0  0  0  0  0  0
   -4.6324    1.3186    0.0000 C   0  0  0  0  0  0  0  0  0
   -5.3469    1.7311    0.0000 C   0  0  0  0  0  0  0  0  0
   -5.3469    2.5561    0.0000 C   0  0  0  0  0  0  0  0  0
   -4.6324    2.9686    0.0000 C   0  0  0  0  0  0  0  0  0
   -3.9179    2.5561    0.0000 C   0  0  0  0  0  0  0  0  0
   -3.9179    1.7311    0.0000 C   0  0  0  0  0  0  0  0  0
   -6.0613    2.9686    0.0000 C   0  0  0  0  0  0  0  0  0
   -6.0613    3.7936    0.0000 N   0  0  0  0  0  0  0  0  0
   -6.7758    4.2061    0.0000 C   0  0  0  0  0  0  0  0  0
   -6.7758    5.0311    0.0000 C   0  0  0  0  0  0  0  0  0
   -6.0613    5.4436    0.0000 C   0  0  0  0  0  0  0  0  0
   -5.3469    5.0311    0.0000 C   0  0  0  0  0  0  0  0  0
   -5.3469    4.2061    0.0000 C   0  0  0  0  0  0  0  0  0
  1  2  1  0  0  0  0
  1  6  1  0  0  0  0
  2  3  1  0  0  0  0
  3  4  1  0  0  0  0
  4  5  1  0  0  0  0
  4  7  1  0  0  0  0
  5  6  1  0  0  0  0
  7  8  1  0  0  0  0
  8  9  1  0  0  0  0
  9 10  3  0  0  0  0
 10 11  1  0  0  0  0
 11 12  4  0  0  0  0
 11 16  4  0  0  0  0
 12 13  4  0  0  0  0
 13 14  4  0  0  0  0
 13 17  1  0  0  0  0
 14 15  4  0  0  0  0
 15 16  4  0  0  0  0
 17 18  1  0  0  0  0
 18 19  1  0  0  0  0
 18 23  1  0  0  0  0
 19 20  1  0  0  0  0
 20 21  1  0  0  0  0
 21 22  1  0  0  0  0
 22 23  1  0  0  0  0
M  END
>  <Name_Molregno>
569750

>  <HISTAMINE H3>
7.84

$$$$
569751
  Marvin  02231216192D 0   1.00000     0.00000     0

 20 21  0  0  0  0  0  0  0  0999 V2000
   -2.8918    3.0016    0.0000 N   0  0  0  0  0  0  0  0  0
   -3.6063    2.5891    0.0000 C   0  0  0  0  0  0  0  0  0
   -3.6063    1.7641    0.0000 C   0  0  0  0  0  0  0  0  0
   -2.8918    1.3516    0.0000 C   0  0  0  0  0  0  0  0  0
   -2.8918    0.5266    0.0000 C   0  0  0  0  0  0  0  0  0
   -3.6063    0.1141    0.0000 C   0  0  0  0  0  0  0  0  0
   -4.3208    0.5266    0.0000 C   0  0  0  0  0  0  0  0  0
   -4.3208    1.3516    0.0000 C   0  0  0  0  0  0  0  0  0
   -3.6063   -0.7109    0.0000 C   0  0  0  0  0  0  0  0  0
   -3.6063   -1.5359    0.0000 C   0  0  0  0  0  0  0  0  0
   -3.6063   -2.3609    0.0000 C   0  0  0  0  0  0  0  0  0
   -4.3208   -2.7734    0.0000 C   0  0  0  0  0  0  0  0  0
   -4.3208   -3.5984    0.0000 N   0  0  0  0  0  0  0  0  0
   -3.6063   -4.0109    0.0000 C   0  0  0  0  0  0  0  0  0
   -3.6063   -4.8359    0.0000 C   0  0  0  0  0  0  0  0  0
   -4.3208   -5.2484    0.0000 C   0  0  0  0  0  0  0  0  0
   -5.0352   -4.8359    0.0000 C   0  0  0  0  0  0  0  0  0
   -5.0352   -4.0109    0.0000 C   0  0  0  0  0  0  0  0  0
   -2.8918    3.8266    0.0000 C   0  0  0  0  0  0  0  0  0
   -2.1774    2.5891    0.0000 C   0  0  0  0  0  0  0  0  0
  1  2  1  0  0  0  0
  1 19  1  0  0  0  0
  1 20  1  0  0  0  0
  2  3  1  0  0  0  0
  3  4  4  0  0  0  0
  3  8  4  0  0  0  0
  4  5  4  0  0  0  0
  5  6  4  0  0  0  0
  6  7  4  0  0  0  0
  6  9  1  0  0  0  0
  7  8  4  0  0  0  0
  9 10  3  0  0  0  0
 10 11  1  0  0  0  0
 11 12  1  0  0  0  0
 12 13  1  0  0  0  0
 13 14  1  0  0  0  0
 13 18  1  0  0  0  0
 14 15  1  0  0  0  0
 15 16  1  0  0  0  0
 16 17  1  0  0  0  0
 17 18  1  0  0  0  0
M  END
>  <Name_Molregno>
569751

>  <HISTAMINE H3>
9.04

$$$$
569752
  Marvin  02231216192D 0   1.00000     0.00000     0

 30 33  0  0  0  0  0  0  0  0999 V2000
    0.1647   -0.9374    0.0000 N   0  0  0  0  0  0  0  0  0
    0.8792   -1.3499    0.0000 C   0  0  0  0  0  0  0  0  0
    0.8792   -2.1749    0.0000 C   0  0  0  0  0  0  0  0  0
    0.1647   -2.5874    0.0000 N   0  0  0  0  0  0  0  0  0
   -0.5498   -2.1749    0.0000 C   0  0  0  0  0  0  0  0  0
   -0.5498   -1.3499    0.0000 C   0  0  0  0  0  0  0  0  0
    0.1647   -3.4124    0.0000 C   0  0  0  0  0  0  0  0  0
   -0.5498   -3.8249    0.0000 C   0  0  0  0  0  0  0  0  0
   -0.5498   -4.6499    0.0000 C   0  0  0  0  0  0  0  0  0
   -1.2642   -5.0624    0.0000 C   0  0  0  0  0  0  0  0  0
   -1.9787   -4.6499    0.0000 C   0  0  0  0  0  0  0  0  0
   -1.9787   -3.8249    0.0000 C   0  0  0  0  0  0  0  0  0
   -1.2642   -3.4124    0.0000 C   0  0  0  0  0  0  0  0  0
    0.1647   -0.1124    0.0000 C   0  0  0  0  0  0  0  0  0
    0.8792    0.3001    0.0000 C   0  0  0  0  0  0  0  0  0
    0.8792    1.1251    0.0000 C   0  0  0  0  0  0  0  0  0
    1.5936    1.5376    0.0000 C   0  0  0  0  0  0  0  0  0
    2.3081    1.1251    0.0000 C   0  0  0  0  0  0  0  0  0
    2.3081    0.3001    0.0000 C   0  0  0  0  0  0  0  0  0
    1.5936   -0.1124    0.0000 C   0  0  0  0  0  0  0  0  0
    3.0226    1.5376    0.0000 C   0  0  0  0  0  0  0  0  0
    3.7371    1.9501    0.0000 C   0  0  0  0  0  0  0  0  0
    4.4515    2.3626    0.0000 C   0  0  0  0  0  0  0  0  0
    4.4515    3.1876    0.0000 C   0  0  0  0  0  0  0  0  0
    5.1660    3.6001    0.0000 N   0  0  0  0  0  0  0  0  0
    5.1660    4.4251    0.0000 C   0  0  0  0  0  0  0  0  0
    5.8805    4.8376    0.0000 C   0  0  0  0  0  0  0  0  0
    6.5949    4.4251    0.0000 C   0  0  0  0  0  0  0  0  0
    6.5949    3.6001    0.0000 C   0  0  0  0  0  0  0  0  0
    5.8805    3.1876    0.0000 C   0  0  0  0  0  0  0  0  0
  1  2  1  0  0  0  0
  1  6  1  0  0  0  0
  1 14  1  0  0  0  0
  2  3  1  0  0  0  0
  3  4  1  0  0  0  0
  4  5  1  0  0  0  0
  4  7  1  0  0  0  0
  5  6  1  0  0  0  0
  7  8  1  0  0  0  0
  8  9  4  0  0  0  0
  8 13  4  0  0  0  0
  9 10  4  0  0  0  0
 10 11  4  0  0  0  0
 11 12  4  0  0  0  0
 12 13  4  0  0  0  0
 14 15  1  0  0  0  0
 15 16  4  0  0  0  0
 15 20  4  0  0  0  0
 16 17  4  0  0  0  0
 17 18  4  0  0  0  0
 18 19  4  0  0  0  0
 18 21  1  0  0  0  0
 19 20  4  0  0  0  0
 21 22  3  0  0  0  0
 22 23  1  0  0  0  0
 23 24  1  0  0  0  0
 24 25  1  0  0  0  0
 25 26  1  0  0  0  0
 25 30  1  0  0  0  0
 26 27  1  0  0  0  0
 27 28  1  0  0  0  0
 28 29  1  0  0  0  0
 29 30  1  0  0  0  0
M  END
>  <Name_Molregno>
569752

>  <HISTAMINE H3>
8.72

$$$$
569754
  Marvin  02231216192D 0   1.00000     0.00000     0

 22 23  0  0  0  0  0  0  0  0999 V2000
    3.1346    2.7439    0.0000 N   0  0  0  0  0  0  0  0  0
    3.8491    2.3314    0.0000 C   0  0  0  0  0  0  0  0  0
    3.8491    1.5064    0.0000 C   0  0  0  0  0  0  0  0  0
    4.5636    1.0939    0.0000 C   0  0  0  0  0  0  0  0  0
    4.5636    0.2689    0.0000 C   0  0  0  0  0  0  0  0  0
    3.8491   -0.1436    0.0000 C   0  0  0  0  0  0  0  0  0
    3.1346    0.2689    0.0000 C   0  0  0  0  0  0  0  0  0
    3.1346    1.0939    0.0000 C   0  0  0  0  0  0  0  0  0
    3.8491   -0.9686    0.0000 C   0  0  0  0  0  0  0  0  0
    3.8491   -1.7936    0.0000 C   0  0  0  0  0  0  0  0  0
    3.8491   -2.6186    0.0000 C   0  0  0  0  0  0  0  0  0
    3.1346   -3.0311    0.0000 C   0  0  0  0  0  0  0  0  0
    3.1346   -3.8561    0.0000 N   0  0  0  0  0  0  0  0  0
    3.8491   -4.2686    0.0000 C   0  0  0  0  0  0  0  0  0
    3.8491   -5.0936    0.0000 C   0  0  0  0  0  0  0  0  0
    3.1346   -5.5061    0.0000 C   0  0  0  0  0  0  0  0  0
    2.4201   -5.0936    0.0000 C   0  0  0  0  0  0  0  0  0
    2.4201   -4.2686    0.0000 C   0  0  0  0  0  0  0  0  0
    3.1346    3.5689    0.0000 C   0  0  0  0  0  0  0  0  0
    2.4201    3.9814    0.0000 C   0  0  0  0  0  0  0  0  0
    2.4201    2.3314    0.0000 C   0  0  0  0  0  0  0  0  0
    1.7057    2.7439    0.0000 C   0  0  0  0  0  0  0  0  0
  1  2  1  0  0  0  0
  1 19  1  0  0  0  0
  1 21  1  0  0  0  0
  2  3  1  0  0  0  0
  3  4  4  0  0  0  0
  3  8  4  0  0  0  0
  4  5  4  0  0  0  0
  5  6  4  0  0  0  0
  6  7  4  0  0  0  0
  6  9  1  0  0  0  0
  7  8  4  0  0  0  0
  9 10  3  0  0  0  0
 10 11  1  0  0  0  0
 11 12  1  0  0  0  0
 12 13  1  0  0  0  0
 13 14  1  0  0  0  0
 13 18  1  0  0  0  0
 14 15  1  0  0  0  0
 15 16  1  0  0  0  0
 16 17  1  0  0  0  0
 17 18  1  0  0  0  0
 19 20  1  0  0  0  0
 21 22  1  0  0  0  0
M  END
>  <Name_Molregno>
569754

>  <HISTAMINE H3>
8.96

$$$$
569755
  Marvin  02231216192D 0   1.00000     0.00000     0

 22 24  0  0  0  0  0  0  0  0999 V2000
   -5.9949   -2.5566    0.0000 N   0  0  0  0  0  0  0  0  0
   -5.3275   -3.0416    0.0000 C   0  0  0  0  0  0  0  0  0
   -5.5824   -3.8262    0.0000 C   0  0  0  0  0  0  0  0  0
   -6.4074   -3.8262    0.0000 C   0  0  0  0  0  0  0  0  0
   -6.6623   -3.0416    0.0000 C   0  0  0  0  0  0  0  0  0
   -5.9949   -1.7316    0.0000 C   0  0  0  0  0  0  0  0  0
   -5.2804   -1.3191    0.0000 C   0  0  0  0  0  0  0  0  0
   -5.2804   -0.4941    0.0000 C   0  0  0  0  0  0  0  0  0
   -4.5660   -0.0816    0.0000 C   0  0  0  0  0  0  0  0  0
   -3.8515   -0.4941    0.0000 C   0  0  0  0  0  0  0  0  0
   -3.8515   -1.3191    0.0000 C   0  0  0  0  0  0  0  0  0
   -4.5660   -1.7316    0.0000 C   0  0  0  0  0  0  0  0  0
   -3.1370   -0.0816    0.0000 C   0  0  0  0  0  0  0  0  0
   -2.4226    0.3309    0.0000 C   0  0  0  0  0  0  0  0  0
   -1.7081    0.7434    0.0000 C   0  0  0  0  0  0  0  0  0
   -1.7081    1.5684    0.0000 C   0  0  0  0  0  0  0  0  0
   -0.9936    1.9809    0.0000 N   0  0  0  0  0  0  0  0  0
   -0.9936    2.8059    0.0000 C   0  0  0  0  0  0  0  0  0
   -0.2791    3.2184    0.0000 C   0  0  0  0  0  0  0  0  0
    0.4353    2.8059    0.0000 C   0  0  0  0  0  0  0  0  0
    0.4353    1.9809    0.0000 C   0  0  0  0  0  0  0  0  0
   -0.2791    1.5684    0.0000 C   0  0  0  0  0  0  0  0  0
  1  2  1  0  0  0  0
  1  5  1  0  0  0  0
  1  6  1  0  0  0  0
  2  3  1  0  0  0  0
  3  4  1  0  0  0  0
  4  5  1  0  0  0  0
  6  7  1  0  0  0  0
  7  8  4  0  0  0  0
  7 12  4  0  0  0  0
  8  9  4  0  0  0  0
  9 10  4  0  0  0  0
 10 11  4  0  0  0  0
 10 13  1  0  0  0  0
 11 12  4  0  0  0  0
 13 14  3  0  0  0  0
 14 15  1  0  0  0  0
 15 16  1  0  0  0  0
 16 17  1  0  0  0  0
 17 18  1  0  0  0  0
 17 22  1  0  0  0  0
 18 19  1  0  0  0  0
 19 20  1  0  0  0  0
 20 21  1  0  0  0  0
 21 22  1  0  0  0  0
M  END
>  <Name_Molregno>
569755

>  <HISTAMINE H3>
9.21

$$$$
569757
  Marvin  02231216192D 0   1.00000     0.00000     0

 23 25  0  0  0  0  0  0  0  0999 V2000
   -6.4497   -5.7141    0.0000 O   0  0  0  0  0  0  0  0  0
   -7.1642   -5.3016    0.0000 C   0  0  0  0  0  0  0  0  0
   -7.1642   -4.4766    0.0000 C   0  0  0  0  0  0  0  0  0
   -6.4497   -4.0641    0.0000 N   0  0  0  0  0  0  0  0  0
   -5.7352   -4.4766    0.0000 C   0  0  0  0  0  0  0  0  0
   -5.7352   -5.3016    0.0000 C   0  0  0  0  0  0  0  0  0
   -6.4497   -3.2391    0.0000 C   0  0  0  0  0  0  0  0  0
   -5.7352   -2.8266    0.0000 C   0  0  0  0  0  0  0  0  0
   -5.7352   -2.0016    0.0000 C   0  0  0  0  0  0  0  0  0
   -5.0208   -1.5891    0.0000 C   0  0  0  0  0  0  0  0  0
   -4.3063   -2.0016    0.0000 C   0  0  0  0  0  0  0  0  0
   -4.3063   -2.8266    0.0000 C   0  0  0  0  0  0  0  0  0
   -5.0208   -3.2391    0.0000 C   0  0  0  0  0  0  0  0  0
   -3.5918   -1.5891    0.0000 C   0  0  0  0  0  0  0  0  0
   -2.8773   -1.1766    0.0000 C   0  0  0  0  0  0  0  0  0
   -2.1629   -0.7641    0.0000 C   0  0  0  0  0  0  0  0  0
   -2.1629    0.0609    0.0000 C   0  0  0  0  0  0  0  0  0
   -1.4484    0.4734    0.0000 N   0  0  0  0  0  0  0  0  0
   -1.4484    1.2984    0.0000 C   0  0  0  0  0  0  0  0  0
   -0.7339    1.7109    0.0000 C   0  0  0  0  0  0  0  0  0
   -0.0195    1.2984    0.0000 C   0  0  0  0  0  0  0  0  0
   -0.0195    0.4734    0.0000 C   0  0  0  0  0  0  0  0  0
   -0.7339    0.0609    0.0000 C   0  0  0  0  0  0  0  0  0
  1  2  1  0  0  0  0
  1  6  1  0  0  0  0
  2  3  1  0  0  0  0
  3  4  1  0  0  0  0
  4  5  1  0  0  0  0
  4  7  1  0  0  0  0
  5  6  1  0  0  0  0
  7  8  1  0  0  0  0
  8  9  4  0  0  0  0
  8 13  4  0  0  0  0
  9 10  4  0  0  0  0
 10 11  4  0  0  0  0
 11 12  4  0  0  0  0
 11 14  1  0  0  0  0
 12 13  4  0  0  0  0
 14 15  3  0  0  0  0
 15 16  1  0  0  0  0
 16 17  1  0  0  0  0
 17 18  1  0  0  0  0
 18 19  1  0  0  0  0
 18 23  1  0  0  0  0
 19 20  1  0  0  0  0
 20 21  1  0  0  0  0
 21 22  1  0  0  0  0
 22 23  1  0  0  0  0
M  END
>  <Name_Molregno>
569757

>  <HISTAMINE H3>
8.76

$$$$
569761
  Marvin  02231216192D 0   1.00000     0.00000     0

 24 26  0  0  0  0  0  0  0  0999 V2000
    0.5542   -1.4900    0.0000 N   0  0  0  0  0  0  0  0  0
    1.2687   -1.9025    0.0000 C   0  0  0  0  0  0  0  0  0
    1.2687   -2.7275    0.0000 C   0  0  0  0  0  0  0  0  0
    0.5542   -3.1400    0.0000 N   0  0  0  0  0  0  0  0  0
   -0.1602   -2.7275    0.0000 C   0  0  0  0  0  0  0  0  0
   -0.1602   -1.9025    0.0000 C   0  0  0  0  0  0  0  0  0
    0.5542   -3.9650    0.0000 C   0  0  0  0  0  0  0  0  0
    0.5542   -0.6650    0.0000 C   0  0  0  0  0  0  0  0  0
    1.2687   -0.2525    0.0000 C   0  0  0  0  0  0  0  0  0
    1.2687    0.5725    0.0000 C   0  0  0  0  0  0  0  0  0
    1.9832    0.9850    0.0000 C   0  0  0  0  0  0  0  0  0
    2.6977    0.5725    0.0000 C   0  0  0  0  0  0  0  0  0
    2.6977   -0.2525    0.0000 C   0  0  0  0  0  0  0  0  0
    1.9832   -0.6650    0.0000 C   0  0  0  0  0  0  0  0  0
    3.4121    0.9850    0.0000 C   0  0  0  0  0  0  0  0  0
    4.1266    1.3975    0.0000 C   0  0  0  0  0  0  0  0  0
    4.8411    1.8100    0.0000 C   0  0  0  0  0  0  0  0  0
    4.8411    2.6350    0.0000 C   0  0  0  0  0  0  0  0  0
    5.5555    3.0475    0.0000 N   0  0  0  0  0  0  0  0  0
    5.5555    3.8725    0.0000 C   0  0  0  0  0  0  0  0  0
    6.2700    4.2850    0.0000 C   0  0  0  0  0  0  0  0  0
    6.9845    3.8725    0.0000 C   0  0  0  0  0  0  0  0  0
    6.9845    3.0475    0.0000 C   0  0  0  0  0  0  0  0  0
    6.2700    2.6350    0.0000 C   0  0  0  0  0  0  0  0  0
  1  2  1  0  0  0  0
  1  6  1  0  0  0  0
  1  8  1  0  0  0  0
  2  3  1  0  0  0  0
  3  4  1  0  0  0  0
  4  5  1  0  0  0  0
  4  7  1  0  0  0  0
  5  6  1  0  0  0  0
  8  9  1  0  0  0  0
  9 10  4  0  0  0  0
  9 14  4  0  0  0  0
 10 11  4  0  0  0  0
 11 12  4  0  0  0  0
 12 13  4  0  0  0  0
 12 15  1  0  0  0  0
 13 14  4  0  0  0  0
 15 16  3  0  0  0  0
 16 17  1  0  0  0  0
 17 18  1  0  0  0  0
 18 19  1  0  0  0  0
 19 20  1  0  0  0  0
 19 24  1  0  0  0  0
 20 21  1  0  0  0  0
 21 22  1  0  0  0  0
 22 23  1  0  0  0  0
 23 24  1  0  0  0  0
M  END
>  <Name_Molregno>
569761

>  <HISTAMINE H3>
9.01

$$$$
569768
  Marvin  02231216192D 0   1.00000     0.00000     0

 30 33  0  0  0  0  0  0  0  0999 V2000
    0.1647   -0.7951    0.0000 N   0  0  0  0  0  0  0  0  0
    0.8792   -1.2076    0.0000 C   0  0  0  0  0  0  0  0  0
    0.8792   -2.0326    0.0000 C   0  0  0  0  0  0  0  0  0
    0.1647   -2.4451    0.0000 C   0  0  0  0  0  0  0  0  0
   -0.5498   -2.0326    0.0000 C   0  0  0  0  0  0  0  0  0
   -0.5498   -1.2076    0.0000 C   0  0  0  0  0  0  0  0  0
    0.1647   -3.2701    0.0000 C   0  0  0  0  0  0  0  0  0
   -0.5498   -3.6826    0.0000 C   0  0  0  0  0  0  0  0  0
   -0.5498   -4.5076    0.0000 C   0  0  0  0  0  0  0  0  0
   -1.2642   -4.9201    0.0000 C   0  0  0  0  0  0  0  0  0
   -1.9787   -4.5076    0.0000 C   0  0  0  0  0  0  0  0  0
   -1.9787   -3.6826    0.0000 C   0  0  0  0  0  0  0  0  0
   -1.2642   -3.2701    0.0000 C   0  0  0  0  0  0  0  0  0
    0.1647    0.0299    0.0000 C   0  0  0  0  0  0  0  0  0
    0.8792    0.4424    0.0000 C   0  0  0  0  0  0  0  0  0
    0.8792    1.2674    0.0000 C   0  0  0  0  0  0  0  0  0
    1.5936    1.6799    0.0000 C   0  0  0  0  0  0  0  0  0
    2.3081    1.2674    0.0000 C   0  0  0  0  0  0  0  0  0
    2.3081    0.4424    0.0000 C   0  0  0  0  0  0  0  0  0
    1.5936    0.0299    0.0000 C   0  0  0  0  0  0  0  0  0
    3.0226    1.6799    0.0000 C   0  0  0  0  0  0  0  0  0
    3.7371    2.0924    0.0000 C   0  0  0  0  0  0  0  0  0
    4.4515    2.5049    0.0000 C   0  0  0  0  0  0  0  0  0
    4.4515    3.3299    0.0000 C   0  0  0  0  0  0  0  0  0
    5.1660    3.7424    0.0000 N   0  0  0  0  0  0  0  0  0
    5.1660    4.5674    0.0000 C   0  0  0  0  0  0  0  0  0
    5.8805    4.9799    0.0000 C   0  0  0  0  0  0  0  0  0
    6.5949    4.5674    0.0000 C   0  0  0  0  0  0  0  0  0
    6.5949    3.7424    0.0000 C   0  0  0  0  0  0  0  0  0
    5.8805    3.3299    0.0000 C   0  0  0  0  0  0  0  0  0
  1  2  1  0  0  0  0
  1  6  1  0  0  0  0
  1 14  1  0  0  0  0
  2  3  1  0  0  0  0
  3  4  1  0  0  0  0
  4  5  1  0  0  0  0
  4  7  1  0  0  0  0
  5  6  1  0  0  0  0
  7  8  1  0  0  0  0
  8  9  4  0  0  0  0
  8 13  4  0  0  0  0
  9 10  4  0  0  0  0
 10 11  4  0  0  0  0
 11 12  4  0  0  0  0
 12 13  4  0  0  0  0
 14 15  1  0  0  0  0
 15 16  4  0  0  0  0
 15 20  4  0  0  0  0
 16 17  4  0  0  0  0
 17 18  4  0  0  0  0
 18 19  4  0  0  0  0
 18 21  1  0  0  0  0
 19 20  4  0  0  0  0
 21 22  3  0  0  0  0
 22 23  1  0  0  0  0
 23 24  1  0  0  0  0
 24 25  1  0  0  0  0
 25 26  1  0  0  0  0
 25 30  1  0  0  0  0
 26 27  1  0  0  0  0
 27 28  1  0  0  0  0
 28 29  1  0  0  0  0
 29 30  1  0  0  0  0
M  END
>  <Name_Molregno>
569768

>  <HISTAMINE H3>
8.46

$$$$
569769
  Marvin  02231216192D 0   1.00000     0.00000     0

 22 23  0  0  0  0  0  0  0  0999 V2000
    6.2276   -3.4276    0.0000 N   0  0  0  0  0  0  0  0  0
    5.5131   -3.0151    0.0000 C   0  0  0  0  0  0  0  0  0
    5.5131   -2.1901    0.0000 C   0  0  0  0  0  0  0  0  0
    4.7987   -1.7776    0.0000 C   0  0  0  0  0  0  0  0  0
    4.0842   -1.3651    0.0000 C   0  0  0  0  0  0  0  0  0
    3.3697   -0.9526    0.0000 C   0  0  0  0  0  0  0  0  0
    2.6552   -1.3651    0.0000 C   0  0  0  0  0  0  0  0  0
    1.9408   -0.9526    0.0000 C   0  0  0  0  0  0  0  0  0
    1.9408   -0.1276    0.0000 C   0  0  0  0  0  0  0  0  0
    2.6552    0.2849    0.0000 C   0  0  0  0  0  0  0  0  0
    3.3697   -0.1276    0.0000 C   0  0  0  0  0  0  0  0  0
    1.2263    0.2849    0.0000 C   0  0  0  0  0  0  0  0  0
    1.2263    1.1099    0.0000 N   0  0  0  0  0  0  0  0  0
    0.5118    1.5224    0.0000 C   0  0  0  0  0  0  0  0  0
    0.5118    2.3474    0.0000 C   0  0  0  0  0  0  0  0  0
    1.2263    2.7599    0.0000 C   0  0  0  0  0  0  0  0  0
    1.9408    2.3474    0.0000 C   0  0  0  0  0  0  0  0  0
    1.9408    1.5224    0.0000 C   0  0  0  0  0  0  0  0  0
    6.2276   -4.2526    0.0000 C   0  0  0  0  0  0  0  0  0
    6.9421   -4.6651    0.0000 C   0  0  0  0  0  0  0  0  0
    6.9421   -3.0151    0.0000 C   0  0  0  0  0  0  0  0  0
    7.6565   -3.4276    0.0000 C   0  0  0  0  0  0  0  0  0
  1  2  1  0  0  0  0
  1 19  1  0  0  0  0
  1 21  1  0  0  0  0
  2  3  1  0  0  0  0
  3  4  1  0  0  0  0
  4  5  3  0  0  0  0
  5  6  1  0  0  0  0
  6  7  4  0  0  0  0
  6 11  4  0  0  0  0
  7  8  4  0  0  0  0
  8  9  4  0  0  0  0
  9 10  4  0  0  0  0
  9 12  1  0  0  0  0
 10 11  4  0  0  0  0
 12 13  1  0  0  0  0
 13 14  1  0  0  0  0
 13 18  1  0  0  0  0
 14 15  1  0  0  0  0
 15 16  1  0  0  0  0
 16 17  1  0  0  0  0
 17 18  1  0  0  0  0
 19 20  1  0  0  0  0
 21 22  1  0  0  0  0
M  END
>  <Name_Molregno>
569769

>  <HISTAMINE H3>
8.87

$$$$
569770
  Marvin  02231216192D 0   1.00000     0.00000     0

 22 24  0  0  0  0  0  0  0  0999 V2000
    2.4114    2.5014    0.0000 N   0  0  0  0  0  0  0  0  0
    1.6969    2.0889    0.0000 C   0  0  0  0  0  0  0  0  0
    0.9824    2.5014    0.0000 C   0  0  0  0  0  0  0  0  0
    0.9824    3.3264    0.0000 C   0  0  0  0  0  0  0  0  0
    1.6969    3.7389    0.0000 C   0  0  0  0  0  0  0  0  0
    2.4114    3.3264    0.0000 C   0  0  0  0  0  0  0  0  0
    3.1258    2.0889    0.0000 C   0  0  0  0  0  0  0  0  0
    3.1258    1.2639    0.0000 C   0  0  0  0  0  0  0  0  0
    3.8403    0.8514    0.0000 C   0  0  0  0  0  0  0  0  0
    3.8403    0.0264    0.0000 C   0  0  0  0  0  0  0  0  0
    3.1258   -0.3861    0.0000 C   0  0  0  0  0  0  0  0  0
    2.4114    0.0264    0.0000 C   0  0  0  0  0  0  0  0  0
    2.4114    0.8514    0.0000 C   0  0  0  0  0  0  0  0  0
    3.1258   -1.2111    0.0000 C   0  0  0  0  0  0  0  0  0
    3.1258   -2.0361    0.0000 C   0  0  0  0  0  0  0  0  0
    3.1258   -2.8611    0.0000 C   0  0  0  0  0  0  0  0  0
    3.8403   -3.2736    0.0000 C   0  0  0  0  0  0  0  0  0
    3.8403   -4.0986    0.0000 N   0  0  0  0  0  0  0  0  0
    4.5077   -4.5836    0.0000 C   0  0  0  0  0  0  0  0  0
    4.2528   -5.3682    0.0000 C   0  0  0  0  0  0  0  0  0
    3.4278   -5.3682    0.0000 C   0  0  0  0  0  0  0  0  0
    3.1729   -4.5836    0.0000 C   0  0  0  0  0  0  0  0  0
  1  2  1  0  0  0  0
  1  6  1  0  0  0  0
  1  7  1  0  0  0  0
  2  3  1  0  0  0  0
  3  4  1  0  0  0  0
  4  5  1  0  0  0  0
  5  6  1  0  0  0  0
  7  8  1  0  0  0  0
  8  9  4  0  0  0  0
  8 13  4  0  0  0  0
  9 10  4  0  0  0  0
 10 11  4  0  0  0  0
 11 12  4  0  0  0  0
 11 14  1  0  0  0  0
 12 13  4  0  0  0  0
 14 15  3  0  0  0  0
 15 16  1  0  0  0  0
 16 17  1  0  0  0  0
 17 18  1  0  0  0  0
 18 19  1  0  0  0  0
 18 22  1  0  0  0  0
 19 20  1  0  0  0  0
 20 21  1  0  0  0  0
 21 22  1  0  0  0  0
M  END
>  <Name_Molregno>
569770

>  <HISTAMINE H3>
9.17

$$$$
569772
  Marvin  02231216192D 0   1.00000     0.00000     0

 26 28  0  0  0  0  0  0  0  0999 V2000
    0.4023   -1.3395    0.0000 N   0  0  0  0  0  0  0  0  0
    1.1168   -1.7520    0.0000 C   0  0  0  0  0  0  0  0  0
    1.1168   -2.5770    0.0000 C   0  0  0  0  0  0  0  0  0
    0.4023   -2.9895    0.0000 N   0  0  0  0  0  0  0  0  0
   -0.3122   -2.5770    0.0000 C   0  0  0  0  0  0  0  0  0
   -0.3122   -1.7520    0.0000 C   0  0  0  0  0  0  0  0  0
    0.4023   -3.8145    0.0000 C   0  0  0  0  0  0  0  0  0
   -0.3122   -4.2270    0.0000 C   0  0  0  0  0  0  0  0  0
    1.1168   -4.2270    0.0000 C   0  0  0  0  0  0  0  0  0
    0.4023   -0.5145    0.0000 C   0  0  0  0  0  0  0  0  0
    1.1168   -0.1020    0.0000 C   0  0  0  0  0  0  0  0  0
    1.1168    0.7230    0.0000 C   0  0  0  0  0  0  0  0  0
    1.8312    1.1355    0.0000 C   0  0  0  0  0  0  0  0  0
    2.5457    0.7230    0.0000 C   0  0  0  0  0  0  0  0  0
    2.5457   -0.1020    0.0000 C   0  0  0  0  0  0  0  0  0
    1.8312   -0.5145    0.0000 C   0  0  0  0  0  0  0  0  0
    3.2602    1.1355    0.0000 C   0  0  0  0  0  0  0  0  0
    3.9747    1.5480    0.0000 C   0  0  0  0  0  0  0  0  0
    4.6891    1.9605    0.0000 C   0  0  0  0  0  0  0  0  0
    4.6891    2.7855    0.0000 C   0  0  0  0  0  0  0  0  0
    5.4036    3.1980    0.0000 N   0  0  0  0  0  0  0  0  0
    5.4036    4.0230    0.0000 C   0  0  0  0  0  0  0  0  0
    6.1181    4.4355    0.0000 C   0  0  0  0  0  0  0  0  0
    6.8325    4.0230    0.0000 C   0  0  0  0  0  0  0  0  0
    6.8325    3.1980    0.0000 C   0  0  0  0  0  0  0  0  0
    6.1181    2.7855    0.0000 C   0  0  0  0  0  0  0  0  0
  1  2  1  0  0  0  0
  1  6  1  0  0  0  0
  1 10  1  0  0  0  0
  2  3  1  0  0  0  0
  3  4  1  0  0  0  0
  4  5  1  0  0  0  0
  4  7  1  0  0  0  0
  5  6  1  0  0  0  0
  7  8  1  0  0  0  0
  7  9  1  0  0  0  0
 10 11  1  0  0  0  0
 11 12  4  0  0  0  0
 11 16  4  0  0  0  0
 12 13  4  0  0  0  0
 13 14  4  0  0  0  0
 14 15  4  0  0  0  0
 14 17  1  0  0  0  0
 15 16  4  0  0  0  0
 17 18  3  0  0  0  0
 18 19  1  0  0  0  0
 19 20  1  0  0  0  0
 20 21  1  0  0  0  0
 21 22  1  0  0  0  0
 21 26  1  0  0  0  0
 22 23  1  0  0  0  0
 23 24  1  0  0  0  0
 24 25  1  0  0  0  0
 25 26  1  0  0  0  0
M  END
>  <Name_Molregno>
569772

>  <HISTAMINE H3>
9.06

$$$$
569774
  Marvin  02231216192D 0   1.00000     0.00000     0

 23 25  0  0  0  0  0  0  0  0999 V2000
   -4.7606   -4.1382    0.0000 S   0  0  0  0  0  0  0  0  0
   -5.4751   -3.7257    0.0000 C   0  0  0  0  0  0  0  0  0
   -5.4751   -2.9007    0.0000 C   0  0  0  0  0  0  0  0  0
   -4.7606   -2.4882    0.0000 N   0  0  0  0  0  0  0  0  0
   -4.0461   -2.9007    0.0000 C   0  0  0  0  0  0  0  0  0
   -4.0461   -3.7257    0.0000 C   0  0  0  0  0  0  0  0  0
   -4.7606   -1.6632    0.0000 C   0  0  0  0  0  0  0  0  0
   -5.4751   -1.2507    0.0000 C   0  0  0  0  0  0  0  0  0
   -5.4751   -0.4257    0.0000 C   0  0  0  0  0  0  0  0  0
   -5.4751    0.3993    0.0000 C   0  0  0  0  0  0  0  0  0
   -5.4751    1.2243    0.0000 C   0  0  0  0  0  0  0  0  0
   -6.1896    1.6368    0.0000 C   0  0  0  0  0  0  0  0  0
   -6.1896    2.4618    0.0000 C   0  0  0  0  0  0  0  0  0
   -5.4751    2.8743    0.0000 C   0  0  0  0  0  0  0  0  0
   -4.7606    2.4618    0.0000 C   0  0  0  0  0  0  0  0  0
   -4.7606    1.6368    0.0000 C   0  0  0  0  0  0  0  0  0
   -5.4751    3.6993    0.0000 C   0  0  0  0  0  0  0  0  0
   -4.7606    4.1118    0.0000 N   0  0  0  0  0  0  0  0  0
   -4.7606    4.9368    0.0000 C   0  0  0  0  0  0  0  0  0
   -4.0461    5.3493    0.0000 C   0  0  0  0  0  0  0  0  0
   -3.3317    4.9368    0.0000 C   0  0  0  0  0  0  0  0  0
   -3.3317    4.1118    0.0000 C   0  0  0  0  0  0  0  0  0
   -4.0461    3.6993    0.0000 C   0  0  0  0  0  0  0  0  0
  1  2  1  0  0  0  0
  1  6  1  0  0  0  0
  2  3  1  0  0  0  0
  3  4  1  0  0  0  0
  4  5  1  0  0  0  0
  4  7  1  0  0  0  0
  5  6  1  0  0  0  0
  7  8  1  0  0  0  0
  8  9  1  0  0  0  0
  9 10  3  0  0  0  0
 10 11  1  0  0  0  0
 11 12  4  0  0  0  0
 11 16  4  0  0  0  0
 12 13  4  0  0  0  0
 13 14  4  0  0  0  0
 14 15  4  0  0  0  0
 14 17  1  0  0  0  0
 15 16  4  0  0  0  0
 17 18  1  0  0  0  0
 18 19  1  0  0  0  0
 18 23  1  0  0  0  0
 19 20  1  0  0  0  0
 20 21  1  0  0  0  0
 21 22  1  0  0  0  0
 22 23  1  0  0  0  0
M  END
>  <Name_Molregno>
569774

>  <HISTAMINE H3>
8.42

$$$$
569778
  Marvin  02231216192D 0   1.00000     0.00000     0

 23 25  0  0  0  0  0  0  0  0999 V2000
   -4.7606   -4.1382    0.0000 O   0  0  0  0  0  0  0  0  0
   -5.4751   -3.7257    0.0000 C   0  0  0  0  0  0  0  0  0
   -5.4751   -2.9007    0.0000 C   0  0  0  0  0  0  0  0  0
   -4.7606   -2.4882    0.0000 N   0  0  0  0  0  0  0  0  0
   -4.0461   -2.9007    0.0000 C   0  0  0  0  0  0  0  0  0
   -4.0461   -3.7257    0.0000 C   0  0  0  0  0  0  0  0  0
   -4.7606   -1.6632    0.0000 C   0  0  0  0  0  0  0  0  0
   -5.4751   -1.2507    0.0000 C   0  0  0  0  0  0  0  0  0
   -5.4751   -0.4257    0.0000 C   0  0  0  0  0  0  0  0  0
   -5.4751    0.3993    0.0000 C   0  0  0  0  0  0  0  0  0
   -5.4751    1.2243    0.0000 C   0  0  0  0  0  0  0  0  0
   -6.1896    1.6368    0.0000 C   0  0  0  0  0  0  0  0  0
   -6.1896    2.4618    0.0000 C   0  0  0  0  0  0  0  0  0
   -5.4751    2.8743    0.0000 C   0  0  0  0  0  0  0  0  0
   -4.7606    2.4618    0.0000 C   0  0  0  0  0  0  0  0  0
   -4.7606    1.6368    0.0000 C   0  0  0  0  0  0  0  0  0
   -5.4751    3.6993    0.0000 C   0  0  0  0  0  0  0  0  0
   -4.7606    4.1118    0.0000 N   0  0  0  0  0  0  0  0  0
   -4.7606    4.9368    0.0000 C   0  0  0  0  0  0  0  0  0
   -4.0461    5.3493    0.0000 C   0  0  0  0  0  0  0  0  0
   -3.3317    4.9368    0.0000 C   0  0  0  0  0  0  0  0  0
   -3.3317    4.1118    0.0000 C   0  0  0  0  0  0  0  0  0
   -4.0461    3.6993    0.0000 C   0  0  0  0  0  0  0  0  0
  1  2  1  0  0  0  0
  1  6  1  0  0  0  0
  2  3  1  0  0  0  0
  3  4  1  0  0  0  0
  4  5  1  0  0  0  0
  4  7  1  0  0  0  0
  5  6  1  0  0  0  0
  7  8  1  0  0  0  0
  8  9  1  0  0  0  0
  9 10  3  0  0  0  0
 10 11  1  0  0  0  0
 11 12  4  0  0  0  0
 11 16  4  0  0  0  0
 12 13  4  0  0  0  0
 13 14  4  0  0  0  0
 14 15  4  0  0  0  0
 14 17  1  0  0  0  0
 15 16  4  0  0  0  0
 17 18  1  0  0  0  0
 18 19  1  0  0  0  0
 18 23  1  0  0  0  0
 19 20  1  0  0  0  0
 20 21  1  0  0  0  0
 21 22  1  0  0  0  0
 22 23  1  0  0  0  0
M  END
>  <Name_Molregno>
569778

>  <HISTAMINE H3>
8.3

$$$$
569779
  Marvin  02231216192D 0   1.00000     0.00000     0

 24 26  0  0  0  0  0  0  0  0999 V2000
    0.6718   -1.6664    0.0000 N   0  0  0  0  0  0  0  0  0
    1.3862   -2.0789    0.0000 C   0  0  0  0  0  0  0  0  0
    1.3862   -2.9039    0.0000 C   0  0  0  0  0  0  0  0  0
    0.6718   -3.3164    0.0000 C   0  0  0  0  0  0  0  0  0
   -0.0427   -2.9039    0.0000 C   0  0  0  0  0  0  0  0  0
   -0.0427   -2.0789    0.0000 C   0  0  0  0  0  0  0  0  0
    0.6718   -0.8414    0.0000 C   0  0  0  0  0  0  0  0  0
    1.3862   -0.4289    0.0000 C   0  0  0  0  0  0  0  0  0
    1.3862    0.3961    0.0000 C   0  0  0  0  0  0  0  0  0
    2.1007    0.8086    0.0000 C   0  0  0  0  0  0  0  0  0
    2.8152    0.3961    0.0000 C   0  0  0  0  0  0  0  0  0
    2.8152   -0.4289    0.0000 C   0  0  0  0  0  0  0  0  0
    2.1007   -0.8414    0.0000 C   0  0  0  0  0  0  0  0  0
    3.5297    0.8086    0.0000 C   0  0  0  0  0  0  0  0  0
    4.2441    1.2211    0.0000 C   0  0  0  0  0  0  0  0  0
    4.9586    1.6336    0.0000 C   0  0  0  0  0  0  0  0  0
    4.9586    2.4586    0.0000 C   0  0  0  0  0  0  0  0  0
    5.6731    2.8711    0.0000 N   0  0  0  0  0  0  0  0  0
    5.6731    3.6961    0.0000 C   0  0  0  0  0  0  0  0  0
    6.3875    4.1086    0.0000 C   0  0  0  0  0  0  0  0  0
    7.1020    3.6961    0.0000 N   0  0  0  0  0  0  0  0  0
    7.1020    2.8711    0.0000 C   0  0  0  0  0  0  0  0  0
    6.3875    2.4586    0.0000 C   0  0  0  0  0  0  0  0  0
    7.8165    4.1086    0.0000 C   0  0  0  0  0  0  0  0  0
  1  2  1  0  0  0  0
  1  6  1  0  0  0  0
  1  7  1  0  0  0  0
  2  3  1  0  0  0  0
  3  4  1  0  0  0  0
  4  5  1  0  0  0  0
  5  6  1  0  0  0  0
  7  8  1  0  0  0  0
  8  9  4  0  0  0  0
  8 13  4  0  0  0  0
  9 10  4  0  0  0  0
 10 11  4  0  0  0  0
 11 12  4  0  0  0  0
 11 14  1  0  0  0  0
 12 13  4  0  0  0  0
 14 15  3  0  0  0  0
 15 16  1  0  0  0  0
 16 17  1  0  0  0  0
 17 18  1  0  0  0  0
 18 19  1  0  0  0  0
 18 23  1  0  0  0  0
 19 20  1  0  0  0  0
 20 21  1  0  0  0  0
 21 22  1  0  0  0  0
 21 24  1  0  0  0  0
 22 23  1  0  0  0  0
M  END
>  <Name_Molregno>
569779

>  <HISTAMINE H3>
8.28

$$$$
570278
  Marvin  02231216192D 0   1.00000     0.00000     0

 24 26  0  0  0  0  0  0  0  0999 V2000
    1.8248   -3.7430    0.0000 N   0  0  0  0  0  0  0  0  0
    2.5393   -4.1555    0.0000 C   0  0  0  0  0  0  0  0  0
    2.5393   -4.9805    0.0000 C   0  0  0  0  0  0  0  0  0
    1.8248   -5.3930    0.0000 N   0  0  0  0  0  0  0  0  0
    1.1104   -4.9805    0.0000 C   0  0  0  0  0  0  0  0  0
    1.1104   -4.1555    0.0000 C   0  0  0  0  0  0  0  0  0
    1.8248   -6.2180    0.0000 C   0  0  0  0  0  0  0  0  0
    1.8248   -2.9180    0.0000 C   0  0  0  0  0  0  0  0  0
    2.5393   -2.5055    0.0000 C   0  0  0  0  0  0  0  0  0
    2.5393   -1.6805    0.0000 C   0  0  0  0  0  0  0  0  0
    3.2538   -1.2680    0.0000 C   0  0  0  0  0  0  0  0  0
    3.9682   -1.6805    0.0000 C   0  0  0  0  0  0  0  0  0
    3.9682   -2.5055    0.0000 C   0  0  0  0  0  0  0  0  0
    3.2538   -2.9180    0.0000 C   0  0  0  0  0  0  0  0  0
    3.2538   -0.4430    0.0000 C   0  0  0  0  0  0  0  0  0
    3.2538    0.3820    0.0000 C   0  0  0  0  0  0  0  0  0
    3.2538    1.2070    0.0000 C   0  0  0  0  0  0  0  0  0
    2.5393    1.6195    0.0000 C   0  0  0  0  0  0  0  0  0
    2.5393    2.4445    0.0000 N   0  0  0  0  0  0  0  0  0
    1.8248    2.8570    0.0000 C   0  0  0  0  0  0  0  0  0
    1.8248    3.6820    0.0000 C   0  0  0  0  0  0  0  0  0
    2.5393    4.0945    0.0000 C   0  0  0  0  0  0  0  0  0
    3.2538    3.6820    0.0000 C   0  0  0  0  0  0  0  0  0
    3.2538    2.8570    0.0000 C   0  0  0  0  0  0  0  0  0
  1  2  1  0  0  0  0
  1  6  1  0  0  0  0
  1  8  1  0  0  0  0
  2  3  1  0  0  0  0
  3  4  1  0  0  0  0
  4  5  1  0  0  0  0
  4  7  1  0  0  0  0
  5  6  1  0  0  0  0
  8  9  1  0  0  0  0
  9 10  4  0  0  0  0
  9 14  4  0  0  0  0
 10 11  4  0  0  0  0
 11 12  4  0  0  0  0
 11 15  1  0  0  0  0
 12 13  4  0  0  0  0
 13 14  4  0  0  0  0
 15 16  3  0  0  0  0
 16 17  1  0  0  0  0
 17 18  1  0  0  0  0
 18 19  1  0  0  0  0
 19 20  1  0  0  0  0
 19 24  1  0  0  0  0
 20 21  1  0  0  0  0
 21 22  1  0  0  0  0
 22 23  1  0  0  0  0
 23 24  1  0  0  0  0
M  END
>  <Name_Molregno>
570278

>  <HISTAMINE H3>
9.14

$$$$
570280
  Marvin  02231216192D 0   1.00000     0.00000     0

 26 28  0  0  0  0  0  0  0  0999 V2000
    5.1390    6.0627    0.0000 O   0  0  0  0  0  0  0  0  0
    5.8535    5.6502    0.0000 C   0  0  0  0  0  0  0  0  0
    6.5680    6.0627    0.0000 N   0  0  0  0  0  0  0  0  0
    5.8535    4.8252    0.0000 C   0  0  0  0  0  0  0  0  0
    6.5680    4.4127    0.0000 C   0  0  0  0  0  0  0  0  0
    6.5680    3.5877    0.0000 C   0  0  0  0  0  0  0  0  0
    5.8535    3.1752    0.0000 N   0  0  0  0  0  0  0  0  0
    5.1390    3.5877    0.0000 C   0  0  0  0  0  0  0  0  0
    5.1390    4.4127    0.0000 C   0  0  0  0  0  0  0  0  0
    5.8535    2.3502    0.0000 C   0  0  0  0  0  0  0  0  0
    5.1390    1.9377    0.0000 C   0  0  0  0  0  0  0  0  0
    5.1390    1.1127    0.0000 C   0  0  0  0  0  0  0  0  0
    4.4246    0.7002    0.0000 C   0  0  0  0  0  0  0  0  0
    3.7101    1.1127    0.0000 C   0  0  0  0  0  0  0  0  0
    3.7101    1.9377    0.0000 C   0  0  0  0  0  0  0  0  0
    4.4246    2.3502    0.0000 C   0  0  0  0  0  0  0  0  0
    4.4246   -0.1248    0.0000 C   0  0  0  0  0  0  0  0  0
    4.4246   -0.9498    0.0000 C   0  0  0  0  0  0  0  0  0
    4.4246   -1.7748    0.0000 C   0  0  0  0  0  0  0  0  0
    5.1390   -2.1873    0.0000 C   0  0  0  0  0  0  0  0  0
    5.1390   -3.0123    0.0000 N   0  0  0  0  0  0  0  0  0
    5.8535   -3.4248    0.0000 C   0  0  0  0  0  0  0  0  0
    5.8535   -4.2498    0.0000 C   0  0  0  0  0  0  0  0  0
    5.1390   -4.6623    0.0000 C   0  0  0  0  0  0  0  0  0
    4.4246   -4.2498    0.0000 C   0  0  0  0  0  0  0  0  0
    4.4246   -3.4248    0.0000 C   0  0  0  0  0  0  0  0  0
  1  2  2  0  0  0  0
  2  3  1  0  0  0  0
  2  4  1  0  0  0  0
  4  5  1  0  0  0  0
  4  9  1  0  0  0  0
  5  6  1  0  0  0  0
  6  7  1  0  0  0  0
  7  8  1  0  0  0  0
  7 10  1  0  0  0  0
  8  9  1  0  0  0  0
 10 11  1  0  0  0  0
 11 12  4  0  0  0  0
 11 16  4  0  0  0  0
 12 13  4  0  0  0  0
 13 14  4  0  0  0  0
 13 17  1  0  0  0  0
 14 15  4  0  0  0  0
 15 16  4  0  0  0  0
 17 18  3  0  0  0  0
 18 19  1  0  0  0  0
 19 20  1  0  0  0  0
 20 21  1  0  0  0  0
 21 22  1  0  0  0  0
 21 26  1  0  0  0  0
 22 23  1  0  0  0  0
 23 24  1  0  0  0  0
 24 25  1  0  0  0  0
 25 26  1  0  0  0  0
M  END
>  <Name_Molregno>
570280

>  <HISTAMINE H3>
9.26

$$$$
570282
  Marvin  02231216192D 0   1.00000     0.00000     0

 22 24  0  0  0  0  0  0  0  0999 V2000
   -4.0210   -2.8712    0.0000 N   0  0  0  0  0  0  0  0  0
   -3.3535   -3.3561    0.0000 C   0  0  0  0  0  0  0  0  0
   -3.6085   -4.1408    0.0000 C   0  0  0  0  0  0  0  0  0
   -4.4335   -4.1408    0.0000 C   0  0  0  0  0  0  0  0  0
   -4.6884   -3.3561    0.0000 C   0  0  0  0  0  0  0  0  0
   -4.0210   -2.0462    0.0000 C   0  0  0  0  0  0  0  0  0
   -3.3065   -1.6337    0.0000 C   0  0  0  0  0  0  0  0  0
   -3.3065   -0.8087    0.0000 C   0  0  0  0  0  0  0  0  0
   -2.5920   -0.3962    0.0000 C   0  0  0  0  0  0  0  0  0
   -1.8776   -0.8087    0.0000 C   0  0  0  0  0  0  0  0  0
   -1.8776   -1.6337    0.0000 C   0  0  0  0  0  0  0  0  0
   -2.5920   -2.0462    0.0000 C   0  0  0  0  0  0  0  0  0
   -2.5920    0.4288    0.0000 C   0  0  0  0  0  0  0  0  0
   -2.5920    1.2538    0.0000 C   0  0  0  0  0  0  0  0  0
   -2.5920    2.0788    0.0000 C   0  0  0  0  0  0  0  0  0
   -3.3065    2.4913    0.0000 C   0  0  0  0  0  0  0  0  0
   -3.3065    3.3163    0.0000 N   0  0  0  0  0  0  0  0  0
   -4.0210    3.7288    0.0000 C   0  0  0  0  0  0  0  0  0
   -4.0210    4.5538    0.0000 C   0  0  0  0  0  0  0  0  0
   -3.3065    4.9663    0.0000 C   0  0  0  0  0  0  0  0  0
   -2.5920    4.5538    0.0000 C   0  0  0  0  0  0  0  0  0
   -2.5920    3.7288    0.0000 C   0  0  0  0  0  0  0  0  0
  1  2  1  0  0  0  0
  1  5  1  0  0  0  0
  1  6  1  0  0  0  0
  2  3  1  0  0  0  0
  3  4  1  0  0  0  0
  4  5  1  0  0  0  0
  6  7  1  0  0  0  0
  7  8  4  0  0  0  0
  7 12  4  0  0  0  0
  8  9  4  0  0  0  0
  9 10  4  0  0  0  0
  9 13  1  0  0  0  0
 10 11  4  0  0  0  0
 11 12  4  0  0  0  0
 13 14  3  0  0  0  0
 14 15  1  0  0  0  0
 15 16  1  0  0  0  0
 16 17  1  0  0  0  0
 17 18  1  0  0  0  0
 17 22  1  0  0  0  0
 18 19  1  0  0  0  0
 19 20  1  0  0  0  0
 20 21  1  0  0  0  0
 21 22  1  0  0  0  0
M  END
>  <Name_Molregno>
570282

>  <HISTAMINE H3>
7.09

$$$$
570287
  Marvin  02231216192D 0   1.00000     0.00000     0

 22 24  0  0  0  0  0  0  0  0999 V2000
   -0.0464   -0.0134    0.0000 N   0  0  0  0  0  0  0  0  0
    0.6681   -0.4259    0.0000 C   0  0  0  0  0  0  0  0  0
    0.6681   -1.2509    0.0000 C   0  0  0  0  0  0  0  0  0
   -0.0464   -1.6634    0.0000 C   0  0  0  0  0  0  0  0  0
   -0.7609   -1.2509    0.0000 C   0  0  0  0  0  0  0  0  0
   -0.7609   -0.4259    0.0000 C   0  0  0  0  0  0  0  0  0
   -0.0464    0.8116    0.0000 C   0  0  0  0  0  0  0  0  0
   -0.7609    1.2241    0.0000 C   0  0  0  0  0  0  0  0  0
   -0.7609    2.0491    0.0000 C   0  0  0  0  0  0  0  0  0
   -0.0464    2.4616    0.0000 C   0  0  0  0  0  0  0  0  0
    0.6681    2.0491    0.0000 C   0  0  0  0  0  0  0  0  0
    0.6681    1.2241    0.0000 C   0  0  0  0  0  0  0  0  0
    1.3826    0.8116    0.0000 C   0  0  0  0  0  0  0  0  0
    2.0970    0.3991    0.0000 C   0  0  0  0  0  0  0  0  0
    2.8115   -0.0134    0.0000 C   0  0  0  0  0  0  0  0  0
    3.5260    0.3991    0.0000 C   0  0  0  0  0  0  0  0  0
    4.2404   -0.0134    0.0000 N   0  0  0  0  0  0  0  0  0
    4.9549    0.3991    0.0000 C   0  0  0  0  0  0  0  0  0
    5.6694   -0.0134    0.0000 C   0  0  0  0  0  0  0  0  0
    5.6694   -0.8384    0.0000 C   0  0  0  0  0  0  0  0  0
    4.9549   -1.2509    0.0000 C   0  0  0  0  0  0  0  0  0
    4.2404   -0.8384    0.0000 C   0  0  0  0  0  0  0  0  0
  1  2  1  0  0  0  0
  1  6  1  0  0  0  0
  1  7  1  0  0  0  0
  2  3  1  0  0  0  0
  3  4  1  0  0  0  0
  4  5  1  0  0  0  0
  5  6  1  0  0  0  0
  7  8  4  0  0  0  0
  7 12  4  0  0  0  0
  8  9  4  0  0  0  0
  9 10  4  0  0  0  0
 10 11  4  0  0  0  0
 11 12  4  0  0  0  0
 12 13  1  0  0  0  0
 13 14  3  0  0  0  0
 14 15  1  0  0  0  0
 15 16  1  0  0  0  0
 16 17  1  0  0  0  0
 17 18  1  0  0  0  0
 17 22  1  0  0  0  0
 18 19  1  0  0  0  0
 19 20  1  0  0  0  0
 20 21  1  0  0  0  0
 21 22  1  0  0  0  0
M  END
>  <Name_Molregno>
570287

>  <HISTAMINE H3>
7.08

$$$$
570295
  Marvin  02231216192D 0   1.00000     0.00000     0

 26 28  0  0  0  0  0  0  0  0999 V2000
    6.6753    4.7799    0.0000 O   0  0  0  0  0  0  0  0  0
    7.3898    4.3674    0.0000 C   0  0  0  0  0  0  0  0  0
    8.1043    4.7799    0.0000 N   0  0  0  0  0  0  0  0  0
    7.3898    3.5424    0.0000 C   0  0  0  0  0  0  0  0  0
    8.1043    3.1299    0.0000 C   0  0  0  0  0  0  0  0  0
    8.1043    2.3049    0.0000 C   0  0  0  0  0  0  0  0  0
    7.3898    1.8924    0.0000 N   0  0  0  0  0  0  0  0  0
    6.6753    2.3049    0.0000 C   0  0  0  0  0  0  0  0  0
    6.6753    3.1299    0.0000 C   0  0  0  0  0  0  0  0  0
    7.3898    1.0674    0.0000 C   0  0  0  0  0  0  0  0  0
    6.6753    0.6549    0.0000 C   0  0  0  0  0  0  0  0  0
    6.6753   -0.1701    0.0000 C   0  0  0  0  0  0  0  0  0
    5.9609   -0.5826    0.0000 C   0  0  0  0  0  0  0  0  0
    5.2464   -0.1701    0.0000 C   0  0  0  0  0  0  0  0  0
    5.2464    0.6549    0.0000 C   0  0  0  0  0  0  0  0  0
    5.9609    1.0674    0.0000 C   0  0  0  0  0  0  0  0  0
    4.5319   -0.5826    0.0000 C   0  0  0  0  0  0  0  0  0
    3.8175   -0.9951    0.0000 C   0  0  0  0  0  0  0  0  0
    3.1030   -1.4076    0.0000 C   0  0  0  0  0  0  0  0  0
    3.1030   -2.2326    0.0000 C   0  0  0  0  0  0  0  0  0
    2.3885   -2.6451    0.0000 N   0  0  0  0  0  0  0  0  0
    2.3885   -3.4701    0.0000 C   0  0  0  0  0  0  0  0  0
    1.6740   -3.8826    0.0000 C   0  0  0  0  0  0  0  0  0
    0.9596   -3.4701    0.0000 C   0  0  0  0  0  0  0  0  0
    0.9596   -2.6451    0.0000 C   0  0  0  0  0  0  0  0  0
    1.6740   -2.2326    0.0000 C   0  0  0  0  0  0  0  0  0
  1  2  2  0  0  0  0
  2  3  1  0  0  0  0
  2  4  1  0  0  0  0
  4  5  1  0  0  0  0
  4  9  1  0  0  0  0
  5  6  1  0  0  0  0
  6  7  1  0  0  0  0
  7  8  1  0  0  0  0
  7 10  1  0  0  0  0
  8  9  1  0  0  0  0
 10 11  1  0  0  0  0
 11 12  4  0  0  0  0
 11 16  4  0  0  0  0
 12 13  4  0  0  0  0
 13 14  4  0  0  0  0
 14 15  4  0  0  0  0
 14 17  1  0  0  0  0
 15 16  4  0  0  0  0
 17 18  3  0  0  0  0
 18 19  1  0  0  0  0
 19 20  1  0  0  0  0
 20 21  1  0  0  0  0
 21 22  1  0  0  0  0
 21 26  1  0  0  0  0
 22 23  1  0  0  0  0
 23 24  1  0  0  0  0
 24 25  1  0  0  0  0
 25 26  1  0  0  0  0
M  END
>  <Name_Molregno>
570295

>  <HISTAMINE H3>
9.12

$$$$
570296
  Marvin  02231216192D 0   1.00000     0.00000     0

 24 26  0  0  0  0  0  0  0  0999 V2000
    7.2832    4.3107    0.0000 O   0  0  0  0  0  0  0  0  0
    7.2832    3.4857    0.0000 C   0  0  0  0  0  0  0  0  0
    7.9976    3.0732    0.0000 C   0  0  0  0  0  0  0  0  0
    7.9976    2.2482    0.0000 C   0  0  0  0  0  0  0  0  0
    7.2832    1.8357    0.0000 N   0  0  0  0  0  0  0  0  0
    6.5687    2.2482    0.0000 C   0  0  0  0  0  0  0  0  0
    6.5687    3.0732    0.0000 C   0  0  0  0  0  0  0  0  0
    7.2832    1.0107    0.0000 C   0  0  0  0  0  0  0  0  0
    6.5687    0.5982    0.0000 C   0  0  0  0  0  0  0  0  0
    6.5687   -0.2268    0.0000 C   0  0  0  0  0  0  0  0  0
    5.8542   -0.6393    0.0000 C   0  0  0  0  0  0  0  0  0
    5.1398   -0.2268    0.0000 C   0  0  0  0  0  0  0  0  0
    5.1398    0.5982    0.0000 C   0  0  0  0  0  0  0  0  0
    5.8542    1.0107    0.0000 C   0  0  0  0  0  0  0  0  0
    4.4253   -0.6393    0.0000 C   0  0  0  0  0  0  0  0  0
    3.7108   -1.0518    0.0000 C   0  0  0  0  0  0  0  0  0
    2.9963   -1.4643    0.0000 C   0  0  0  0  0  0  0  0  0
    2.9963   -2.2893    0.0000 C   0  0  0  0  0  0  0  0  0
    2.2819   -2.7018    0.0000 N   0  0  0  0  0  0  0  0  0
    2.2819   -3.5268    0.0000 C   0  0  0  0  0  0  0  0  0
    1.5674   -3.9393    0.0000 C   0  0  0  0  0  0  0  0  0
    0.8529   -3.5268    0.0000 C   0  0  0  0  0  0  0  0  0
    0.8529   -2.7018    0.0000 C   0  0  0  0  0  0  0  0  0
    1.5674   -2.2893    0.0000 C   0  0  0  0  0  0  0  0  0
  1  2  1  0  0  0  0
  2  3  1  0  0  0  0
  2  7  1  0  0  0  0
  3  4  1  0  0  0  0
  4  5  1  0  0  0  0
  5  6  1  0  0  0  0
  5  8  1  0  0  0  0
  6  7  1  0  0  0  0
  8  9  1  0  0  0  0
  9 10  4  0  0  0  0
  9 14  4  0  0  0  0
 10 11  4  0  0  0  0
 11 12  4  0  0  0  0
 12 13  4  0  0  0  0
 12 15  1  0  0  0  0
 13 14  4  0  0  0  0
 15 16  3  0  0  0  0
 16 17  1  0  0  0  0
 17 18  1  0  0  0  0
 18 19  1  0  0  0  0
 19 20  1  0  0  0  0
 19 24  1  0  0  0  0
 20 21  1  0  0  0  0
 21 22  1  0  0  0  0
 22 23  1  0  0  0  0
 23 24  1  0  0  0  0
M  END
>  <Name_Molregno>
570296

>  <HISTAMINE H3>
9.05

$$$$
570298
  Marvin  02231216192D 0   1.00000     0.00000     0

 23 25  0  0  0  0  0  0  0  0999 V2000
    1.9925   -4.0514    0.0000 N   0  0  0  0  0  0  0  0  0
    2.7070   -4.4639    0.0000 C   0  0  0  0  0  0  0  0  0
    2.7070   -5.2889    0.0000 C   0  0  0  0  0  0  0  0  0
    1.9925   -5.7014    0.0000 C   0  0  0  0  0  0  0  0  0
    1.2780   -5.2889    0.0000 C   0  0  0  0  0  0  0  0  0
    1.2780   -4.4639    0.0000 C   0  0  0  0  0  0  0  0  0
    1.9925   -3.2264    0.0000 C   0  0  0  0  0  0  0  0  0
    2.7070   -2.8139    0.0000 C   0  0  0  0  0  0  0  0  0
    2.7070   -1.9889    0.0000 C   0  0  0  0  0  0  0  0  0
    3.4215   -1.5764    0.0000 C   0  0  0  0  0  0  0  0  0
    4.1359   -1.9889    0.0000 C   0  0  0  0  0  0  0  0  0
    4.1359   -2.8139    0.0000 C   0  0  0  0  0  0  0  0  0
    3.4215   -3.2264    0.0000 C   0  0  0  0  0  0  0  0  0
    3.4215   -0.7514    0.0000 C   0  0  0  0  0  0  0  0  0
    3.4215    0.0736    0.0000 C   0  0  0  0  0  0  0  0  0
    3.4215    0.8986    0.0000 C   0  0  0  0  0  0  0  0  0
    2.7070    1.3111    0.0000 C   0  0  0  0  0  0  0  0  0
    2.7070    2.1361    0.0000 N   0  0  0  0  0  0  0  0  0
    1.9925    2.5486    0.0000 C   0  0  0  0  0  0  0  0  0
    1.9925    3.3736    0.0000 C   0  0  0  0  0  0  0  0  0
    2.7070    3.7861    0.0000 C   0  0  0  0  0  0  0  0  0
    3.4215    3.3736    0.0000 C   0  0  0  0  0  0  0  0  0
    3.4215    2.5486    0.0000 C   0  0  0  0  0  0  0  0  0
  1  2  1  0  0  0  0
  1  6  1  0  0  0  0
  1  7  1  0  0  0  0
  2  3  1  0  0  0  0
  3  4  1  0  0  0  0
  4  5  1  0  0  0  0
  5  6  1  0  0  0  0
  7  8  1  0  0  0  0
  8  9  4  0  0  0  0
  8 13  4  0  0  0  0
  9 10  4  0  0  0  0
 10 11  4  0  0  0  0
 10 14  1  0  0  0  0
 11 12  4  0  0  0  0
 12 13  4  0  0  0  0
 14 15  3  0  0  0  0
 15 16  1  0  0  0  0
 16 17  1  0  0  0  0
 17 18  1  0  0  0  0
 18 19  1  0  0  0  0
 18 23  1  0  0  0  0
 19 20  1  0  0  0  0
 20 21  1  0  0  0  0
 21 22  1  0  0  0  0
 22 23  1  0  0  0  0
M  END
>  <Name_Molregno>
570298

>  <HISTAMINE H3>
9.11

$$$$
570299
  Marvin  02231216192D 0   1.00000     0.00000     0

 16 17  0  0  0  0  0  0  0  0999 V2000
   -1.3795   -2.2284    0.0000 N   0  0  0  0  0  0  0  0  0
   -0.6651   -2.6409    0.0000 C   0  0  0  0  0  0  0  0  0
   -0.6651   -3.4659    0.0000 C   0  0  0  0  0  0  0  0  0
   -1.3795   -3.8784    0.0000 C   0  0  0  0  0  0  0  0  0
   -2.0940   -3.4659    0.0000 C   0  0  0  0  0  0  0  0  0
   -2.0940   -2.6409    0.0000 C   0  0  0  0  0  0  0  0  0
   -1.3795   -1.4034    0.0000 C   0  0  0  0  0  0  0  0  0
   -2.0940   -0.9909    0.0000 C   0  0  0  0  0  0  0  0  0
   -2.0940   -0.1659    0.0000 C   0  0  0  0  0  0  0  0  0
   -2.0940    0.6591    0.0000 C   0  0  0  0  0  0  0  0  0
   -2.0940    1.4841    0.0000 C   0  0  0  0  0  0  0  0  0
   -2.8085    1.8966    0.0000 C   0  0  0  0  0  0  0  0  0
   -2.8085    2.7216    0.0000 C   0  0  0  0  0  0  0  0  0
   -2.0940    3.1341    0.0000 C   0  0  0  0  0  0  0  0  0
   -1.3795    2.7216    0.0000 C   0  0  0  0  0  0  0  0  0
   -1.3795    1.8966    0.0000 C   0  0  0  0  0  0  0  0  0
  1  2  1  0  0  0  0
  1  6  1  0  0  0  0
  1  7  1  0  0  0  0
  2  3  1  0  0  0  0
  3  4  1  0  0  0  0
  4  5  1  0  0  0  0
  5  6  1  0  0  0  0
  7  8  1  0  0  0  0
  8  9  1  0  0  0  0
  9 10  3  0  0  0  0
 10 11  1  0  0  0  0
 11 12  4  0  0  0  0
 11 16  4  0  0  0  0
 12 13  4  0  0  0  0
 13 14  4  0  0  0  0
 14 15  4  0  0  0  0
 15 16  4  0  0  0  0
M  END
>  <Name_Molregno>
570299

>  <HISTAMINE H3>
7.25

$$$$
570776
  Marvin  02231216192D 0   1.00000     0.00000     0

 29 33  0  0  0  0  0  0  0  0999 V2000
    0.1364   -0.1617    0.0000 S   0  0  0  0  0  0  0  0  0
    0.9210   -0.4166    0.0000 C   0  0  0  0  0  0  0  0  0
    1.6355   -0.0041    0.0000 C   0  0  0  0  0  0  0  0  0
    2.3499   -0.4166    0.0000 C   0  0  0  0  0  0  0  0  0
    2.3499   -1.2416    0.0000 C   0  0  0  0  0  0  0  0  0
    1.6355   -1.6541    0.0000 N   0  0  0  0  0  0  0  0  0
    0.9210   -1.2416    0.0000 C   0  0  0  0  0  0  0  0  0
    0.1364   -1.4966    0.0000 N   0  0  0  0  0  0  0  0  0
   -0.3486   -0.8291    0.0000 C   0  0  0  0  0  0  0  0  0
   -1.1736   -0.8291    0.0000 N   0  0  0  0  0  0  0  0  0
   -1.5861   -1.5436    0.0000 C   0  0  0  0  0  0  0  0  0
   -2.4111   -1.5436    0.0000 C   0  0  0  0  0  0  0  0  0
   -2.8236   -0.8291    0.0000 C   0  0  0  0  0  0  0  0  0
   -3.6486   -0.8291    0.0000 N   0  0  0  0  0  0  0  0  0
   -4.0611   -1.5436    0.0000 C   0  0  0  0  0  0  0  0  0
   -4.8861   -1.5436    0.0000 C   0  0  0  0  0  0  0  0  0
   -5.2986   -0.8291    0.0000 C   0  0  0  0  0  0  0  0  0
   -4.8861   -0.1146    0.0000 C   0  0  0  0  0  0  0  0  0
   -4.0611   -0.1146    0.0000 C   0  0  0  0  0  0  0  0  0
   -2.4111   -0.1146    0.0000 C   0  0  0  0  0  0  0  0  0
   -1.5861   -0.1146    0.0000 C   0  0  0  0  0  0  0  0  0
    3.0644   -0.0041    0.0000 C   0  0  0  0  0  0  0  0  0
    3.0644    0.8209    0.0000 C   0  0  0  0  0  0  0  0  0
    3.7789    1.2334    0.0000 C   0  0  0  0  0  0  0  0  0
    3.7789    2.0584    0.0000 O   0  0  0  0  0  0  0  0  0
    3.0644    2.4709    0.0000 C   0  0  0  0  0  0  0  0  0
    4.4933    0.8209    0.0000 N   0  0  0  0  0  0  0  0  0
    4.4933   -0.0041    0.0000 C   0  0  0  0  0  0  0  0  0
    3.7789   -0.4166    0.0000 C   0  0  0  0  0  0  0  0  0
  1  2  4  0  0  0  0
  1  9  4  0  0  0  0
  2  3  4  0  0  0  0
  2  7  4  0  0  0  0
  3  4  4  0  0  0  0
  4  5  4  0  0  0  0
  4 22  1  0  0  0  0
  5  6  4  0  0  0  0
  6  7  4  0  0  0  0
  7  8  4  0  0  0  0
  8  9  4  0  0  0  0
  9 10  1  0  0  0  0
 10 11  1  0  0  0  0
 10 21  1  0  0  0  0
 11 12  1  0  0  0  0
 12 13  1  0  0  0  0
 13 14  1  0  0  0  0
 13 20  1  0  0  0  0
 14 15  1  0  0  0  0
 14 19  1  0  0  0  0
 15 16  1  0  0  0  0
 16 17  1  0  0  0  0
 17 18  1  0  0  0  0
 18 19  1  0  0  0  0
 20 21  1  0  0  0  0
 22 23  4  0  0  0  0
 22 29  4  0  0  0  0
 23 24  4  0  0  0  0
 24 25  1  0  0  0  0
 24 27  4  0  0  0  0
 25 26  1  0  0  0  0
 27 28  4  0  0  0  0
 28 29  4  0  0  0  0
M  END
>  <Name_Molregno>
570776

>  <HISTAMINE H3>
8.4

$$$$
570777
  Marvin  02231216192D 0   1.00000     0.00000     0

 28 32  0  0  0  0  0  0  0  0999 V2000
    0.4974    0.0370    0.0000 S   0  0  0  0  0  0  0  0  0
    1.2821   -0.2179    0.0000 C   0  0  0  0  0  0  0  0  0
    1.9965    0.1946    0.0000 C   0  0  0  0  0  0  0  0  0
    2.7110   -0.2179    0.0000 C   0  0  0  0  0  0  0  0  0
    2.7110   -1.0429    0.0000 N   0  0  0  0  0  0  0  0  0
    1.9965   -1.4554    0.0000 C   0  0  0  0  0  0  0  0  0
    1.2821   -1.0429    0.0000 C   0  0  0  0  0  0  0  0  0
    0.4974   -1.2979    0.0000 N   0  0  0  0  0  0  0  0  0
    0.0125   -0.6304    0.0000 C   0  0  0  0  0  0  0  0  0
   -0.8125   -0.6304    0.0000 N   0  0  0  0  0  0  0  0  0
   -1.2250   -1.3449    0.0000 C   0  0  0  0  0  0  0  0  0
   -2.0500   -1.3449    0.0000 C   0  0  0  0  0  0  0  0  0
   -2.4625   -0.6304    0.0000 C   0  0  0  0  0  0  0  0  0
   -3.2875   -0.6304    0.0000 N   0  0  0  0  0  0  0  0  0
   -3.7000   -1.3449    0.0000 C   0  0  0  0  0  0  0  0  0
   -4.5250   -1.3449    0.0000 C   0  0  0  0  0  0  0  0  0
   -4.9375   -0.6304    0.0000 C   0  0  0  0  0  0  0  0  0
   -4.5250    0.0840    0.0000 C   0  0  0  0  0  0  0  0  0
   -3.7000    0.0840    0.0000 C   0  0  0  0  0  0  0  0  0
   -2.0500    0.0840    0.0000 C   0  0  0  0  0  0  0  0  0
   -1.2250    0.0840    0.0000 C   0  0  0  0  0  0  0  0  0
    3.4255    0.1946    0.0000 C   0  0  0  0  0  0  0  0  0
    3.4255    1.0196    0.0000 C   0  0  0  0  0  0  0  0  0
    4.1399    1.4321    0.0000 C   0  0  0  0  0  0  0  0  0
    4.8544    1.0196    0.0000 C   0  0  0  0  0  0  0  0  0
    4.8544    0.1946    0.0000 N   0  0  0  0  0  0  0  0  0
    4.1399   -0.2179    0.0000 C   0  0  0  0  0  0  0  0  0
    4.1399   -1.0429    0.0000 F   0  0  0  0  0  0  0  0  0
  1  2  4  0  0  0  0
  1  9  4  0  0  0  0
  2  3  4  0  0  0  0
  2  7  4  0  0  0  0
  3  4  4  0  0  0  0
  4  5  4  0  0  0  0
  4 22  1  0  0  0  0
  5  6  4  0  0  0  0
  6  7  4  0  0  0  0
  7  8  4  0  0  0  0
  8  9  4  0  0  0  0
  9 10  1  0  0  0  0
 10 11  1  0  0  0  0
 10 21  1  0  0  0  0
 11 12  1  0  0  0  0
 12 13  1  0  0  0  0
 13 14  1  0  0  0  0
 13 20  1  0  0  0  0
 14 15  1  0  0  0  0
 14 19  1  0  0  0  0
 15 16  1  0  0  0  0
 16 17  1  0  0  0  0
 17 18  1  0  0  0  0
 18 19  1  0  0  0  0
 20 21  1  0  0  0  0
 22 23  4  0  0  0  0
 22 27  4  0  0  0  0
 23 24  4  0  0  0  0
 24 25  4  0  0  0  0
 25 26  4  0  0  0  0
 26 27  4  0  0  0  0
 27 28  1  0  0  0  0
M  END
>  <Name_Molregno>
570777

>  <HISTAMINE H3>
7.7

$$$$
570780
  Marvin  02231216192D 0   1.00000     0.00000     0

 22 25  0  0  0  0  0  0  0  0999 V2000
    2.5991    0.0043    0.0000 S   0  0  0  0  0  0  0  0  0
    3.3837   -0.2506    0.0000 C   0  0  0  0  0  0  0  0  0
    4.0982    0.1619    0.0000 C   0  0  0  0  0  0  0  0  0
    4.8127   -0.2506    0.0000 C   0  0  0  0  0  0  0  0  0
    4.8127   -1.0756    0.0000 N   0  0  0  0  0  0  0  0  0
    4.0982   -1.4881    0.0000 C   0  0  0  0  0  0  0  0  0
    3.3837   -1.0756    0.0000 C   0  0  0  0  0  0  0  0  0
    2.5991   -1.3306    0.0000 N   0  0  0  0  0  0  0  0  0
    2.1142   -0.6631    0.0000 C   0  0  0  0  0  0  0  0  0
    1.2892   -0.6631    0.0000 N   0  0  0  0  0  0  0  0  0
    0.8767   -1.3776    0.0000 C   0  0  0  0  0  0  0  0  0
    0.0517   -1.3776    0.0000 C   0  0  0  0  0  0  0  0  0
   -0.3608   -0.6631    0.0000 C   0  0  0  0  0  0  0  0  0
   -1.1858   -0.6631    0.0000 N   0  0  0  0  0  0  0  0  0
   -1.5983   -1.3776    0.0000 C   0  0  0  0  0  0  0  0  0
   -2.4233   -1.3776    0.0000 C   0  0  0  0  0  0  0  0  0
   -2.8358   -0.6631    0.0000 C   0  0  0  0  0  0  0  0  0
   -2.4233    0.0514    0.0000 C   0  0  0  0  0  0  0  0  0
   -1.5983    0.0514    0.0000 C   0  0  0  0  0  0  0  0  0
    0.0517    0.0514    0.0000 C   0  0  0  0  0  0  0  0  0
    0.8767    0.0514    0.0000 C   0  0  0  0  0  0  0  0  0
    5.5271    0.1619    0.0000 N   0  0  0  0  0  0  0  0  0
  1  2  4  0  0  0  0
  1  9  4  0  0  0  0
  2  3  4  0  0  0  0
  2  7  4  0  0  0  0
  3  4  4  0  0  0  0
  4  5  4  0  0  0  0
  4 22  1  0  0  0  0
  5  6  4  0  0  0  0
  6  7  4  0  0  0  0
  7  8  4  0  0  0  0
  8  9  4  0  0  0  0
  9 10  1  0  0  0  0
 10 11  1  0  0  0  0
 10 21  1  0  0  0  0
 11 12  1  0  0  0  0
 12 13  1  0  0  0  0
 13 14  1  0  0  0  0
 13 20  1  0  0  0  0
 14 15  1  0  0  0  0
 14 19  1  0  0  0  0
 15 16  1  0  0  0  0
 16 17  1  0  0  0  0
 17 18  1  0  0  0  0
 18 19  1  0  0  0  0
 20 21  1  0  0  0  0
M  END
>  <Name_Molregno>
570780

>  <HISTAMINE H3>
7.14

$$$$
570781
  Marvin  02231216192D 0   1.00000     0.00000     0

 23 26  0  0  0  0  0  0  0  0999 V2000
    2.1720    0.0017    0.0000 S   0  0  0  0  0  0  0  0  0
    2.9566   -0.2533    0.0000 C   0  0  0  0  0  0  0  0  0
    3.6711    0.1592    0.0000 C   0  0  0  0  0  0  0  0  0
    4.3855   -0.2533    0.0000 C   0  0  0  0  0  0  0  0  0
    4.3855   -1.0783    0.0000 N   0  0  0  0  0  0  0  0  0
    3.6711   -1.4908    0.0000 C   0  0  0  0  0  0  0  0  0
    2.9566   -1.0783    0.0000 C   0  0  0  0  0  0  0  0  0
    2.1720   -1.3332    0.0000 N   0  0  0  0  0  0  0  0  0
    1.6870   -0.6658    0.0000 C   0  0  0  0  0  0  0  0  0
    0.8620   -0.6658    0.0000 N   0  0  0  0  0  0  0  0  0
    0.4495   -1.3802    0.0000 C   0  0  0  0  0  0  0  0  0
   -0.3755   -1.3802    0.0000 C   0  0  0  0  0  0  0  0  0
   -0.7880   -0.6658    0.0000 C   0  0  0  0  0  0  0  0  0
   -1.6130   -0.6658    0.0000 N   0  0  0  0  0  0  0  0  0
   -2.0255   -1.3802    0.0000 C   0  0  0  0  0  0  0  0  0
   -2.8505   -1.3802    0.0000 C   0  0  0  0  0  0  0  0  0
   -3.2630   -0.6658    0.0000 C   0  0  0  0  0  0  0  0  0
   -2.8505    0.0487    0.0000 C   0  0  0  0  0  0  0  0  0
   -2.0255    0.0487    0.0000 C   0  0  0  0  0  0  0  0  0
   -0.3755    0.0487    0.0000 C   0  0  0  0  0  0  0  0  0
    0.4495    0.0487    0.0000 C   0  0  0  0  0  0  0  0  0
    5.1000    0.1592    0.0000 C   0  0  0  0  0  0  0  0  0
    5.8145    0.5717    0.0000 N   0  0  0  0  0  0  0  0  0
  1  2  4  0  0  0  0
  1  9  4  0  0  0  0
  2  3  4  0  0  0  0
  2  7  4  0  0  0  0
  3  4  4  0  0  0  0
  4  5  4  0  0  0  0
  4 22  1  0  0  0  0
  5  6  4  0  0  0  0
  6  7  4  0  0  0  0
  7  8  4  0  0  0  0
  8  9  4  0  0  0  0
  9 10  1  0  0  0  0
 10 11  1  0  0  0  0
 10 21  1  0  0  0  0
 11 12  1  0  0  0  0
 12 13  1  0  0  0  0
 13 14  1  0  0  0  0
 13 20  1  0  0  0  0
 14 15  1  0  0  0  0
 14 19  1  0  0  0  0
 15 16  1  0  0  0  0
 16 17  1  0  0  0  0
 17 18  1  0  0  0  0
 18 19  1  0  0  0  0
 20 21  1  0  0  0  0
 22 23  3  0  0  0  0
M  END
>  <Name_Molregno>
570781

>  <HISTAMINE H3>
7.46

$$$$
570782
  Marvin  02231216192D 0   1.00000     0.00000     0

 22 25  0  0  0  0  0  0  0  0999 V2000
    8.3910    0.0537    0.0000 Cl  0  0  0  0  0  0  0  0  0
    7.6765   -0.3588    0.0000 C   0  0  0  0  0  0  0  0  0
    7.6765   -1.1838    0.0000 N   0  0  0  0  0  0  0  0  0
    6.9621   -1.5963    0.0000 C   0  0  0  0  0  0  0  0  0
    6.2476   -1.1838    0.0000 C   0  0  0  0  0  0  0  0  0
    5.4630   -1.4388    0.0000 N   0  0  0  0  0  0  0  0  0
    4.9780   -0.7713    0.0000 C   0  0  0  0  0  0  0  0  0
    5.4630   -0.1039    0.0000 S   0  0  0  0  0  0  0  0  0
    6.2476   -0.3588    0.0000 C   0  0  0  0  0  0  0  0  0
    6.9621    0.0537    0.0000 C   0  0  0  0  0  0  0  0  0
    4.1530   -0.7713    0.0000 N   0  0  0  0  0  0  0  0  0
    3.7405   -1.4858    0.0000 C   0  0  0  0  0  0  0  0  0
    2.9155   -1.4858    0.0000 C   0  0  0  0  0  0  0  0  0
    2.5030   -0.7713    0.0000 C   0  0  0  0  0  0  0  0  0
    1.6780   -0.7713    0.0000 N   0  0  0  0  0  0  0  0  0
    1.2655   -1.4858    0.0000 C   0  0  0  0  0  0  0  0  0
    0.4405   -1.4858    0.0000 C   0  0  0  0  0  0  0  0  0
    0.0280   -0.7713    0.0000 C   0  0  0  0  0  0  0  0  0
    0.4405   -0.0569    0.0000 C   0  0  0  0  0  0  0  0  0
    1.2655   -0.0569    0.0000 C   0  0  0  0  0  0  0  0  0
    2.9155   -0.0569    0.0000 C   0  0  0  0  0  0  0  0  0
    3.7405   -0.0569    0.0000 C   0  0  0  0  0  0  0  0  0
  1  2  1  0  0  0  0
  2  3  4  0  0  0  0
  2 10  4  0  0  0  0
  3  4  4  0  0  0  0
  4  5  4  0  0  0  0
  5  6  4  0  0  0  0
  5  9  4  0  0  0  0
  6  7  4  0  0  0  0
  7  8  4  0  0  0  0
  7 11  1  0  0  0  0
  8  9  4  0  0  0  0
  9 10  4  0  0  0  0
 11 12  1  0  0  0  0
 11 22  1  0  0  0  0
 12 13  1  0  0  0  0
 13 14  1  0  0  0  0
 14 15  1  0  0  0  0
 14 21  1  0  0  0  0
 15 16  1  0  0  0  0
 15 20  1  0  0  0  0
 16 17  1  0  0  0  0
 17 18  1  0  0  0  0
 18 19  1  0  0  0  0
 19 20  1  0  0  0  0
 21 22  1  0  0  0  0
M  END
>  <Name_Molregno>
570782

>  <HISTAMINE H3>
8

$$$$
570783
  Marvin  02231216192D 0   1.00000     0.00000     0

 28 32  0  0  0  0  0  0  0  0999 V2000
    0.4474   -0.0561    0.0000 S   0  0  0  0  0  0  0  0  0
    1.2320   -0.3110    0.0000 C   0  0  0  0  0  0  0  0  0
    1.9465    0.1015    0.0000 C   0  0  0  0  0  0  0  0  0
    2.6610   -0.3110    0.0000 C   0  0  0  0  0  0  0  0  0
    2.6610   -1.1360    0.0000 C   0  0  0  0  0  0  0  0  0
    1.9465   -1.5485    0.0000 N   0  0  0  0  0  0  0  0  0
    1.2320   -1.1360    0.0000 C   0  0  0  0  0  0  0  0  0
    0.4474   -1.3910    0.0000 N   0  0  0  0  0  0  0  0  0
   -0.0375   -0.7235    0.0000 C   0  0  0  0  0  0  0  0  0
   -0.8625   -0.7235    0.0000 N   0  0  0  0  0  0  0  0  0
   -1.2750   -1.4380    0.0000 C   0  0  0  0  0  0  0  0  0
   -2.1000   -1.4380    0.0000 C   0  0  0  0  0  0  0  0  0
   -2.5125   -0.7235    0.0000 C   0  0  0  0  0  0  0  0  0
   -3.3375   -0.7235    0.0000 N   0  0  0  0  0  0  0  0  0
   -3.7500   -1.4380    0.0000 C   0  0  0  0  0  0  0  0  0
   -4.5750   -1.4380    0.0000 C   0  0  0  0  0  0  0  0  0
   -4.9875   -0.7235    0.0000 C   0  0  0  0  0  0  0  0  0
   -4.5750   -0.0090    0.0000 C   0  0  0  0  0  0  0  0  0
   -3.7500   -0.0090    0.0000 C   0  0  0  0  0  0  0  0  0
   -2.1000   -0.0090    0.0000 C   0  0  0  0  0  0  0  0  0
   -1.2750   -0.0090    0.0000 C   0  0  0  0  0  0  0  0  0
    3.3755    0.1015    0.0000 C   0  0  0  0  0  0  0  0  0
    3.3755    0.9265    0.0000 C   0  0  0  0  0  0  0  0  0
    4.0899    1.3390    0.0000 C   0  0  0  0  0  0  0  0  0
    4.0899    2.1640    0.0000 F   0  0  0  0  0  0  0  0  0
    4.8044    0.9265    0.0000 N   0  0  0  0  0  0  0  0  0
    4.8044    0.1015    0.0000 C   0  0  0  0  0  0  0  0  0
    4.0899   -0.3110    0.0000 C   0  0  0  0  0  0  0  0  0
  1  2  4  0  0  0  0
  1  9  4  0  0  0  0
  2  3  4  0  0  0  0
  2  7  4  0  0  0  0
  3  4  4  0  0  0  0
  4  5  4  0  0  0  0
  4 22  1  0  0  0  0
  5  6  4  0  0  0  0
  6  7  4  0  0  0  0
  7  8  4  0  0  0  0
  8  9  4  0  0  0  0
  9 10  1  0  0  0  0
 10 11  1  0  0  0  0
 10 21  1  0  0  0  0
 11 12  1  0  0  0  0
 12 13  1  0  0  0  0
 13 14  1  0  0  0  0
 13 20  1  0  0  0  0
 14 15  1  0  0  0  0
 14 19  1  0  0  0  0
 15 16  1  0  0  0  0
 16 17  1  0  0  0  0
 17 18  1  0  0  0  0
 18 19  1  0  0  0  0
 20 21  1  0  0  0  0
 22 23  4  0  0  0  0
 22 28  4  0  0  0  0
 23 24  4  0  0  0  0
 24 25  1  0  0  0  0
 24 26  4  0  0  0  0
 26 27  4  0  0  0  0
 27 28  4  0  0  0  0
M  END
>  <Name_Molregno>
570783

>  <HISTAMINE H3>
7.89

$$$$
570784
  Marvin  02231216192D 0   1.00000     0.00000     0

 28 32  0  0  0  0  0  0  0  0999 V2000
    0.4974    0.0370    0.0000 S   0  0  0  0  0  0  0  0  0
    1.2821   -0.2179    0.0000 C   0  0  0  0  0  0  0  0  0
    1.9965    0.1946    0.0000 C   0  0  0  0  0  0  0  0  0
    2.7110   -0.2179    0.0000 C   0  0  0  0  0  0  0  0  0
    2.7110   -1.0429    0.0000 C   0  0  0  0  0  0  0  0  0
    1.9965   -1.4554    0.0000 N   0  0  0  0  0  0  0  0  0
    1.2821   -1.0429    0.0000 C   0  0  0  0  0  0  0  0  0
    0.4974   -1.2979    0.0000 N   0  0  0  0  0  0  0  0  0
    0.0125   -0.6304    0.0000 C   0  0  0  0  0  0  0  0  0
   -0.8125   -0.6304    0.0000 N   0  0  0  0  0  0  0  0  0
   -1.2250   -1.3449    0.0000 C   0  0  0  0  0  0  0  0  0
   -2.0500   -1.3449    0.0000 C   0  0  0  0  0  0  0  0  0
   -2.4625   -0.6304    0.0000 C   0  0  0  0  0  0  0  0  0
   -3.2875   -0.6304    0.0000 N   0  0  0  0  0  0  0  0  0
   -3.7000   -1.3449    0.0000 C   0  0  0  0  0  0  0  0  0
   -4.5250   -1.3449    0.0000 C   0  0  0  0  0  0  0  0  0
   -4.9375   -0.6304    0.0000 C   0  0  0  0  0  0  0  0  0
   -4.5250    0.0840    0.0000 C   0  0  0  0  0  0  0  0  0
   -3.7000    0.0840    0.0000 C   0  0  0  0  0  0  0  0  0
   -2.0500    0.0840    0.0000 C   0  0  0  0  0  0  0  0  0
   -1.2250    0.0840    0.0000 C   0  0  0  0  0  0  0  0  0
    3.4255    0.1946    0.0000 C   0  0  0  0  0  0  0  0  0
    3.4255    1.0196    0.0000 C   0  0  0  0  0  0  0  0  0
    4.1399    1.4321    0.0000 C   0  0  0  0  0  0  0  0  0
    4.8544    1.0196    0.0000 C   0  0  0  0  0  0  0  0  0
    4.8544    0.1946    0.0000 N   0  0  0  0  0  0  0  0  0
    4.1399   -0.2179    0.0000 C   0  0  0  0  0  0  0  0  0
    4.1399   -1.0429    0.0000 F   0  0  0  0  0  0  0  0  0
  1  2  4  0  0  0  0
  1  9  4  0  0  0  0
  2  3  4  0  0  0  0
  2  7  4  0  0  0  0
  3  4  4  0  0  0  0
  4  5  4  0  0  0  0
  4 22  1  0  0  0  0
  5  6  4  0  0  0  0
  6  7  4  0  0  0  0
  7  8  4  0  0  0  0
  8  9  4  0  0  0  0
  9 10  1  0  0  0  0
 10 11  1  0  0  0  0
 10 21  1  0  0  0  0
 11 12  1  0  0  0  0
 12 13  1  0  0  0  0
 13 14  1  0  0  0  0
 13 20  1  0  0  0  0
 14 15  1  0  0  0  0
 14 19  1  0  0  0  0
 15 16  1  0  0  0  0
 16 17  1  0  0  0  0
 17 18  1  0  0  0  0
 18 19  1  0  0  0  0
 20 21  1  0  0  0  0
 22 23  4  0  0  0  0
 22 27  4  0  0  0  0
 23 24  4  0  0  0  0
 24 25  4  0  0  0  0
 25 26  4  0  0  0  0
 26 27  4  0  0  0  0
 27 28  1  0  0  0  0
M  END
>  <Name_Molregno>
570784

>  <HISTAMINE H3>
7.38

$$$$
570785
  Marvin  02231216192D 0   1.00000     0.00000     0

 28 32  0  0  0  0  0  0  0  0999 V2000
    0.4333    0.0663    0.0000 S   0  0  0  0  0  0  0  0  0
    1.2179   -0.1887    0.0000 C   0  0  0  0  0  0  0  0  0
    1.9324    0.2238    0.0000 C   0  0  0  0  0  0  0  0  0
    2.6468   -0.1887    0.0000 C   0  0  0  0  0  0  0  0  0
    2.6468   -1.0137    0.0000 C   0  0  0  0  0  0  0  0  0
    1.9324   -1.4262    0.0000 N   0  0  0  0  0  0  0  0  0
    1.2179   -1.0137    0.0000 C   0  0  0  0  0  0  0  0  0
    0.4333   -1.2686    0.0000 N   0  0  0  0  0  0  0  0  0
   -0.0516   -0.6012    0.0000 C   0  0  0  0  0  0  0  0  0
   -0.8766   -0.6012    0.0000 N   0  0  0  0  0  0  0  0  0
   -1.2891   -1.3157    0.0000 C   0  0  0  0  0  0  0  0  0
   -2.1141   -1.3157    0.0000 C   0  0  0  0  0  0  0  0  0
   -2.5266   -0.6012    0.0000 C   0  0  0  0  0  0  0  0  0
   -3.3516   -0.6012    0.0000 N   0  0  0  0  0  0  0  0  0
   -3.7641   -1.3157    0.0000 C   0  0  0  0  0  0  0  0  0
   -4.5891   -1.3157    0.0000 C   0  0  0  0  0  0  0  0  0
   -5.0016   -0.6012    0.0000 C   0  0  0  0  0  0  0  0  0
   -4.5891    0.1133    0.0000 C   0  0  0  0  0  0  0  0  0
   -3.7641    0.1133    0.0000 C   0  0  0  0  0  0  0  0  0
   -2.1141    0.1133    0.0000 C   0  0  0  0  0  0  0  0  0
   -1.2891    0.1133    0.0000 C   0  0  0  0  0  0  0  0  0
    3.3613    0.2238    0.0000 C   0  0  0  0  0  0  0  0  0
    3.3613    1.0488    0.0000 C   0  0  0  0  0  0  0  0  0
    4.0758    1.4613    0.0000 C   0  0  0  0  0  0  0  0  0
    4.7903    1.0488    0.0000 C   0  0  0  0  0  0  0  0  0
    4.7903    0.2238    0.0000 N   0  0  0  0  0  0  0  0  0
    4.0758   -0.1887    0.0000 C   0  0  0  0  0  0  0  0  0
    5.5047    1.4613    0.0000 C   0  0  0  0  0  0  0  0  0
  1  2  4  0  0  0  0
  1  9  4  0  0  0  0
  2  3  4  0  0  0  0
  2  7  4  0  0  0  0
  3  4  4  0  0  0  0
  4  5  4  0  0  0  0
  4 22  1  0  0  0  0
  5  6  4  0  0  0  0
  6  7  4  0  0  0  0
  7  8  4  0  0  0  0
  8  9  4  0  0  0  0
  9 10  1  0  0  0  0
 10 11  1  0  0  0  0
 10 21  1  0  0  0  0
 11 12  1  0  0  0  0
 12 13  1  0  0  0  0
 13 14  1  0  0  0  0
 13 20  1  0  0  0  0
 14 15  1  0  0  0  0
 14 19  1  0  0  0  0
 15 16  1  0  0  0  0
 16 17  1  0  0  0  0
 17 18  1  0  0  0  0
 18 19  1  0  0  0  0
 20 21  1  0  0  0  0
 22 23  4  0  0  0  0
 22 27  4  0  0  0  0
 23 24  4  0  0  0  0
 24 25  4  0  0  0  0
 25 26  4  0  0  0  0
 25 28  1  0  0  0  0
 26 27  4  0  0  0  0
M  END
>  <Name_Molregno>
570785

>  <HISTAMINE H3>
6.88

$$$$
570786
  Marvin  02231216192D 0   1.00000     0.00000     0

 28 32  0  0  0  0  0  0  0  0999 V2000
    0.4333    0.0663    0.0000 S   0  0  0  0  0  0  0  0  0
    1.2179   -0.1887    0.0000 C   0  0  0  0  0  0  0  0  0
    1.9324    0.2238    0.0000 C   0  0  0  0  0  0  0  0  0
    2.6468   -0.1887    0.0000 C   0  0  0  0  0  0  0  0  0
    2.6468   -1.0137    0.0000 C   0  0  0  0  0  0  0  0  0
    1.9324   -1.4262    0.0000 N   0  0  0  0  0  0  0  0  0
    1.2179   -1.0137    0.0000 C   0  0  0  0  0  0  0  0  0
    0.4333   -1.2686    0.0000 N   0  0  0  0  0  0  0  0  0
   -0.0516   -0.6012    0.0000 C   0  0  0  0  0  0  0  0  0
   -0.8766   -0.6012    0.0000 N   0  0  0  0  0  0  0  0  0
   -1.2891   -1.3157    0.0000 C   0  0  0  0  0  0  0  0  0
   -2.1141   -1.3157    0.0000 C   0  0  0  0  0  0  0  0  0
   -2.5266   -0.6012    0.0000 C   0  0  0  0  0  0  0  0  0
   -3.3516   -0.6012    0.0000 N   0  0  0  0  0  0  0  0  0
   -3.7641   -1.3157    0.0000 C   0  0  0  0  0  0  0  0  0
   -4.5891   -1.3157    0.0000 C   0  0  0  0  0  0  0  0  0
   -5.0016   -0.6012    0.0000 C   0  0  0  0  0  0  0  0  0
   -4.5891    0.1133    0.0000 C   0  0  0  0  0  0  0  0  0
   -3.7641    0.1133    0.0000 C   0  0  0  0  0  0  0  0  0
   -2.1141    0.1133    0.0000 C   0  0  0  0  0  0  0  0  0
   -1.2891    0.1133    0.0000 C   0  0  0  0  0  0  0  0  0
    3.3613    0.2238    0.0000 C   0  0  0  0  0  0  0  0  0
    3.3613    1.0488    0.0000 C   0  0  0  0  0  0  0  0  0
    4.0758    1.4613    0.0000 C   0  0  0  0  0  0  0  0  0
    4.7903    1.0488    0.0000 C   0  0  0  0  0  0  0  0  0
    5.5047    1.4613    0.0000 O   0  0  0  0  0  0  0  0  0
    4.7903    0.2238    0.0000 N   0  0  0  0  0  0  0  0  0
    4.0758   -0.1887    0.0000 C   0  0  0  0  0  0  0  0  0
  1  2  4  0  0  0  0
  1  9  4  0  0  0  0
  2  3  4  0  0  0  0
  2  7  4  0  0  0  0
  3  4  4  0  0  0  0
  4  5  4  0  0  0  0
  4 22  1  0  0  0  0
  5  6  4  0  0  0  0
  6  7  4  0  0  0  0
  7  8  4  0  0  0  0
  8  9  4  0  0  0  0
  9 10  1  0  0  0  0
 10 11  1  0  0  0  0
 10 21  1  0  0  0  0
 11 12  1  0  0  0  0
 12 13  1  0  0  0  0
 13 14  1  0  0  0  0
 13 20  1  0  0  0  0
 14 15  1  0  0  0  0
 14 19  1  0  0  0  0
 15 16  1  0  0  0  0
 16 17  1  0  0  0  0
 17 18  1  0  0  0  0
 18 19  1  0  0  0  0
 20 21  1  0  0  0  0
 22 23  4  0  0  0  0
 22 28  4  0  0  0  0
 23 24  4  0  0  0  0
 24 25  4  0  0  0  0
 25 26  1  0  0  0  0
 25 27  4  0  0  0  0
 27 28  4  0  0  0  0
M  END
>  <Name_Molregno>
570786

>  <HISTAMINE H3>
7.38

$$$$
570793
  Marvin  02231216192D 0   1.00000     0.00000     0

 25 28  0  0  0  0  0  0  0  0999 V2000
    1.3624    0.0035    0.0000 S   0  0  0  0  0  0  0  0  0
    2.1471   -0.2515    0.0000 C   0  0  0  0  0  0  0  0  0
    2.8615    0.1610    0.0000 C   0  0  0  0  0  0  0  0  0
    3.5760   -0.2515    0.0000 C   0  0  0  0  0  0  0  0  0
    3.5760   -1.0765    0.0000 N   0  0  0  0  0  0  0  0  0
    2.8615   -1.4890    0.0000 C   0  0  0  0  0  0  0  0  0
    2.1471   -1.0765    0.0000 C   0  0  0  0  0  0  0  0  0
    1.3624   -1.3314    0.0000 N   0  0  0  0  0  0  0  0  0
    0.8775   -0.6640    0.0000 C   0  0  0  0  0  0  0  0  0
    0.0525   -0.6640    0.0000 N   0  0  0  0  0  0  0  0  0
   -0.3600   -1.3784    0.0000 C   0  0  0  0  0  0  0  0  0
   -1.1850   -1.3784    0.0000 C   0  0  0  0  0  0  0  0  0
   -1.5975   -0.6640    0.0000 C   0  0  0  0  0  0  0  0  0
   -2.4225   -0.6640    0.0000 N   0  0  0  0  0  0  0  0  0
   -2.8350   -1.3784    0.0000 C   0  0  0  0  0  0  0  0  0
   -3.6600   -1.3784    0.0000 C   0  0  0  0  0  0  0  0  0
   -4.0725   -0.6640    0.0000 C   0  0  0  0  0  0  0  0  0
   -3.6600    0.0505    0.0000 C   0  0  0  0  0  0  0  0  0
   -2.8350    0.0505    0.0000 C   0  0  0  0  0  0  0  0  0
   -1.1850    0.0505    0.0000 C   0  0  0  0  0  0  0  0  0
   -0.3600    0.0505    0.0000 C   0  0  0  0  0  0  0  0  0
    4.2905    0.1610    0.0000 N   0  0  0  0  0  0  0  0  0
    5.0049   -0.2515    0.0000 C   0  0  0  0  0  0  0  0  0
    5.7194    0.1610    0.0000 O   0  0  0  0  0  0  0  0  0
    5.0049   -1.0765    0.0000 C   0  0  0  0  0  0  0  0  0
  1  2  4  0  0  0  0
  1  9  4  0  0  0  0
  2  3  4  0  0  0  0
  2  7  4  0  0  0  0
  3  4  4  0  0  0  0
  4  5  4  0  0  0  0
  4 22  1  0  0  0  0
  5  6  4  0  0  0  0
  6  7  4  0  0  0  0
  7  8  4  0  0  0  0
  8  9  4  0  0  0  0
  9 10  1  0  0  0  0
 10 11  1  0  0  0  0
 10 21  1  0  0  0  0
 11 12  1  0  0  0  0
 12 13  1  0  0  0  0
 13 14  1  0  0  0  0
 13 20  1  0  0  0  0
 14 15  1  0  0  0  0
 14 19  1  0  0  0  0
 15 16  1  0  0  0  0
 16 17  1  0  0  0  0
 17 18  1  0  0  0  0
 18 19  1  0  0  0  0
 20 21  1  0  0  0  0
 22 23  1  0  0  0  0
 23 24  2  0  0  0  0
 23 25  1  0  0  0  0
M  END
>  <Name_Molregno>
570793

>  <HISTAMINE H3>
7.28

$$$$
570794
  Marvin  02231216192D 0   1.00000     0.00000     0

 29 33  0  0  0  0  0  0  0  0999 V2000
    0.1157   -0.2034    0.0000 S   0  0  0  0  0  0  0  0  0
    0.9003   -0.4583    0.0000 C   0  0  0  0  0  0  0  0  0
    1.6148   -0.0458    0.0000 C   0  0  0  0  0  0  0  0  0
    2.3293   -0.4583    0.0000 C   0  0  0  0  0  0  0  0  0
    2.3293   -1.2833    0.0000 N   0  0  0  0  0  0  0  0  0
    1.6148   -1.6958    0.0000 C   0  0  0  0  0  0  0  0  0
    0.9003   -1.2833    0.0000 C   0  0  0  0  0  0  0  0  0
    0.1157   -1.5383    0.0000 N   0  0  0  0  0  0  0  0  0
   -0.3692   -0.8708    0.0000 C   0  0  0  0  0  0  0  0  0
   -1.1942   -0.8708    0.0000 N   0  0  0  0  0  0  0  0  0
   -1.6067   -1.5853    0.0000 C   0  0  0  0  0  0  0  0  0
   -2.4317   -1.5853    0.0000 C   0  0  0  0  0  0  0  0  0
   -2.8442   -0.8708    0.0000 C   0  0  0  0  0  0  0  0  0
   -3.6692   -0.8708    0.0000 N   0  0  0  0  0  0  0  0  0
   -4.0817   -1.5853    0.0000 C   0  0  0  0  0  0  0  0  0
   -4.9067   -1.5853    0.0000 C   0  0  0  0  0  0  0  0  0
   -5.3192   -0.8708    0.0000 C   0  0  0  0  0  0  0  0  0
   -4.9067   -0.1564    0.0000 C   0  0  0  0  0  0  0  0  0
   -4.0817   -0.1564    0.0000 C   0  0  0  0  0  0  0  0  0
   -2.4317   -0.1564    0.0000 C   0  0  0  0  0  0  0  0  0
   -1.6067   -0.1564    0.0000 C   0  0  0  0  0  0  0  0  0
    3.0437   -0.0458    0.0000 C   0  0  0  0  0  0  0  0  0
    3.0437    0.7792    0.0000 C   0  0  0  0  0  0  0  0  0
    3.7582    1.1917    0.0000 C   0  0  0  0  0  0  0  0  0
    4.4727    0.7792    0.0000 C   0  0  0  0  0  0  0  0  0
    4.4727   -0.0458    0.0000 N   0  0  0  0  0  0  0  0  0
    3.7582   -0.4583    0.0000 C   0  0  0  0  0  0  0  0  0
    3.7582    2.0167    0.0000 C   0  0  0  0  0  0  0  0  0
    3.7582    2.8417    0.0000 N   0  0  0  0  0  0  0  0  0
  1  2  4  0  0  0  0
  1  9  4  0  0  0  0
  2  3  4  0  0  0  0
  2  7  4  0  0  0  0
  3  4  4  0  0  0  0
  4  5  4  0  0  0  0
  4 22  1  0  0  0  0
  5  6  4  0  0  0  0
  6  7  4  0  0  0  0
  7  8  4  0  0  0  0
  8  9  4  0  0  0  0
  9 10  1  0  0  0  0
 10 11  1  0  0  0  0
 10 21  1  0  0  0  0
 11 12  1  0  0  0  0
 12 13  1  0  0  0  0
 13 14  1  0  0  0  0
 13 20  1  0  0  0  0
 14 15  1  0  0  0  0
 14 19  1  0  0  0  0
 15 16  1  0  0  0  0
 16 17  1  0  0  0  0
 17 18  1  0  0  0  0
 18 19  1  0  0  0  0
 20 21  1  0  0  0  0
 22 23  4  0  0  0  0
 22 27  4  0  0  0  0
 23 24  4  0  0  0  0
 24 25  4  0  0  0  0
 24 28  1  0  0  0  0
 25 26  4  0  0  0  0
 26 27  4  0  0  0  0
 28 29  3  0  0  0  0
M  END
>  <Name_Molregno>
570794

>  <HISTAMINE H3>
7.66

$$$$
570795
  Marvin  02231216192D 0   1.00000     0.00000     0

 29 33  0  0  0  0  0  0  0  0999 V2000
    0.0208   -0.0356    0.0000 S   0  0  0  0  0  0  0  0  0
    0.8054   -0.2905    0.0000 C   0  0  0  0  0  0  0  0  0
    1.5199    0.1220    0.0000 C   0  0  0  0  0  0  0  0  0
    2.2343   -0.2905    0.0000 C   0  0  0  0  0  0  0  0  0
    2.2343   -1.1155    0.0000 N   0  0  0  0  0  0  0  0  0
    1.5199   -1.5280    0.0000 C   0  0  0  0  0  0  0  0  0
    0.8054   -1.1155    0.0000 C   0  0  0  0  0  0  0  0  0
    0.0208   -1.3705    0.0000 N   0  0  0  0  0  0  0  0  0
   -0.4642   -0.7030    0.0000 C   0  0  0  0  0  0  0  0  0
   -1.2892   -0.7030    0.0000 N   0  0  0  0  0  0  0  0  0
   -1.7017   -1.4175    0.0000 C   0  0  0  0  0  0  0  0  0
   -2.5267   -1.4175    0.0000 C   0  0  0  0  0  0  0  0  0
   -2.9392   -0.7030    0.0000 C   0  0  0  0  0  0  0  0  0
   -3.7642   -0.7030    0.0000 N   0  0  0  0  0  0  0  0  0
   -4.1767   -1.4175    0.0000 C   0  0  0  0  0  0  0  0  0
   -5.0017   -1.4175    0.0000 C   0  0  0  0  0  0  0  0  0
   -5.4142   -0.7030    0.0000 C   0  0  0  0  0  0  0  0  0
   -5.0017    0.0114    0.0000 C   0  0  0  0  0  0  0  0  0
   -4.1767    0.0114    0.0000 C   0  0  0  0  0  0  0  0  0
   -2.5267    0.0114    0.0000 C   0  0  0  0  0  0  0  0  0
   -1.7017    0.0114    0.0000 C   0  0  0  0  0  0  0  0  0
    2.9488    0.1220    0.0000 C   0  0  0  0  0  0  0  0  0
    2.9488    0.9470    0.0000 C   0  0  0  0  0  0  0  0  0
    3.6633    1.3595    0.0000 C   0  0  0  0  0  0  0  0  0
    4.3777    0.9470    0.0000 C   0  0  0  0  0  0  0  0  0
    5.0922    1.3595    0.0000 O   0  0  0  0  0  0  0  0  0
    5.0922    2.1845    0.0000 C   0  0  0  0  0  0  0  0  0
    4.3777    0.1220    0.0000 N   0  0  0  0  0  0  0  0  0
    3.6633   -0.2905    0.0000 C   0  0  0  0  0  0  0  0  0
  1  2  4  0  0  0  0
  1  9  4  0  0  0  0
  2  3  4  0  0  0  0
  2  7  4  0  0  0  0
  3  4  4  0  0  0  0
  4  5  4  0  0  0  0
  4 22  1  0  0  0  0
  5  6  4  0  0  0  0
  6  7  4  0  0  0  0
  7  8  4  0  0  0  0
  8  9  4  0  0  0  0
  9 10  1  0  0  0  0
 10 11  1  0  0  0  0
 10 21  1  0  0  0  0
 11 12  1  0  0  0  0
 12 13  1  0  0  0  0
 13 14  1  0  0  0  0
 13 20  1  0  0  0  0
 14 15  1  0  0  0  0
 14 19  1  0  0  0  0
 15 16  1  0  0  0  0
 16 17  1  0  0  0  0
 17 18  1  0  0  0  0
 18 19  1  0  0  0  0
 20 21  1  0  0  0  0
 22 23  4  0  0  0  0
 22 29  4  0  0  0  0
 23 24  4  0  0  0  0
 24 25  4  0  0  0  0
 25 26  1  0  0  0  0
 25 28  4  0  0  0  0
 26 27  1  0  0  0  0
 28 29  4  0  0  0  0
M  END
>  <Name_Molregno>
570795

>  <HISTAMINE H3>
7.03

$$$$
570810
  Marvin  02231216192D 0   1.00000     0.00000     0

 29 33  0  0  0  0  0  0  0  0999 V2000
    0.1364   -0.1617    0.0000 S   0  0  0  0  0  0  0  0  0
    0.9210   -0.4166    0.0000 C   0  0  0  0  0  0  0  0  0
    1.6355   -0.0041    0.0000 C   0  0  0  0  0  0  0  0  0
    2.3499   -0.4166    0.0000 C   0  0  0  0  0  0  0  0  0
    2.3499   -1.2416    0.0000 N   0  0  0  0  0  0  0  0  0
    1.6355   -1.6541    0.0000 C   0  0  0  0  0  0  0  0  0
    0.9210   -1.2416    0.0000 C   0  0  0  0  0  0  0  0  0
    0.1364   -1.4966    0.0000 N   0  0  0  0  0  0  0  0  0
   -0.3486   -0.8291    0.0000 C   0  0  0  0  0  0  0  0  0
   -1.1736   -0.8291    0.0000 N   0  0  0  0  0  0  0  0  0
   -1.5861   -1.5436    0.0000 C   0  0  0  0  0  0  0  0  0
   -2.4111   -1.5436    0.0000 C   0  0  0  0  0  0  0  0  0
   -2.8236   -0.8291    0.0000 C   0  0  0  0  0  0  0  0  0
   -3.6486   -0.8291    0.0000 N   0  0  0  0  0  0  0  0  0
   -4.0611   -1.5436    0.0000 C   0  0  0  0  0  0  0  0  0
   -4.8861   -1.5436    0.0000 C   0  0  0  0  0  0  0  0  0
   -5.2986   -0.8291    0.0000 C   0  0  0  0  0  0  0  0  0
   -4.8861   -0.1146    0.0000 C   0  0  0  0  0  0  0  0  0
   -4.0611   -0.1146    0.0000 C   0  0  0  0  0  0  0  0  0
   -2.4111   -0.1146    0.0000 C   0  0  0  0  0  0  0  0  0
   -1.5861   -0.1146    0.0000 C   0  0  0  0  0  0  0  0  0
    3.0644   -0.0041    0.0000 C   0  0  0  0  0  0  0  0  0
    3.0644    0.8209    0.0000 C   0  0  0  0  0  0  0  0  0
    3.7789    1.2334    0.0000 C   0  0  0  0  0  0  0  0  0
    3.7789    2.0584    0.0000 O   0  0  0  0  0  0  0  0  0
    3.0644    2.4709    0.0000 C   0  0  0  0  0  0  0  0  0
    4.4933    0.8209    0.0000 N   0  0  0  0  0  0  0  0  0
    4.4933   -0.0041    0.0000 C   0  0  0  0  0  0  0  0  0
    3.7789   -0.4166    0.0000 C   0  0  0  0  0  0  0  0  0
  1  2  4  0  0  0  0
  1  9  4  0  0  0  0
  2  3  4  0  0  0  0
  2  7  4  0  0  0  0
  3  4  4  0  0  0  0
  4  5  4  0  0  0  0
  4 22  1  0  0  0  0
  5  6  4  0  0  0  0
  6  7  4  0  0  0  0
  7  8  4  0  0  0  0
  8  9  4  0  0  0  0
  9 10  1  0  0  0  0
 10 11  1  0  0  0  0
 10 21  1  0  0  0  0
 11 12  1  0  0  0  0
 12 13  1  0  0  0  0
 13 14  1  0  0  0  0
 13 20  1  0  0  0  0
 14 15  1  0  0  0  0
 14 19  1  0  0  0  0
 15 16  1  0  0  0  0
 16 17  1  0  0  0  0
 17 18  1  0  0  0  0
 18 19  1  0  0  0  0
 20 21  1  0  0  0  0
 22 23  4  0  0  0  0
 22 29  4  0  0  0  0
 23 24  4  0  0  0  0
 24 25  1  0  0  0  0
 24 27  4  0  0  0  0
 25 26  1  0  0  0  0
 27 28  4  0  0  0  0
 28 29  4  0  0  0  0
M  END
>  <Name_Molregno>
570810

>  <HISTAMINE H3>
7.19

$$$$
570819
  Marvin  02231216192D 0   1.00000     0.00000     0

 22 25  0  0  0  0  0  0  0  0999 V2000
    8.3910   -0.0537    0.0000 Cl  0  0  0  0  0  0  0  0  0
    7.6765    0.3588    0.0000 C   0  0  0  0  0  0  0  0  0
    6.9621   -0.0537    0.0000 N   0  0  0  0  0  0  0  0  0
    6.2476    0.3588    0.0000 C   0  0  0  0  0  0  0  0  0
    5.4630    0.1039    0.0000 S   0  0  0  0  0  0  0  0  0
    4.9780    0.7713    0.0000 C   0  0  0  0  0  0  0  0  0
    5.4630    1.4388    0.0000 N   0  0  0  0  0  0  0  0  0
    6.2476    1.1838    0.0000 C   0  0  0  0  0  0  0  0  0
    6.9621    1.5963    0.0000 C   0  0  0  0  0  0  0  0  0
    7.6765    1.1838    0.0000 C   0  0  0  0  0  0  0  0  0
    4.1530    0.7713    0.0000 N   0  0  0  0  0  0  0  0  0
    3.7405    0.0569    0.0000 C   0  0  0  0  0  0  0  0  0
    2.9155    0.0569    0.0000 C   0  0  0  0  0  0  0  0  0
    2.5030    0.7713    0.0000 C   0  0  0  0  0  0  0  0  0
    1.6780    0.7713    0.0000 N   0  0  0  0  0  0  0  0  0
    1.2655    0.0569    0.0000 C   0  0  0  0  0  0  0  0  0
    0.4405    0.0569    0.0000 C   0  0  0  0  0  0  0  0  0
    0.0280    0.7713    0.0000 C   0  0  0  0  0  0  0  0  0
    0.4405    1.4858    0.0000 C   0  0  0  0  0  0  0  0  0
    1.2655    1.4858    0.0000 C   0  0  0  0  0  0  0  0  0
    2.9155    1.4858    0.0000 C   0  0  0  0  0  0  0  0  0
    3.7405    1.4858    0.0000 C   0  0  0  0  0  0  0  0  0
  1  2  1  0  0  0  0
  2  3  4  0  0  0  0
  2 10  4  0  0  0  0
  3  4  4  0  0  0  0
  4  5  4  0  0  0  0
  4  8  4  0  0  0  0
  5  6  4  0  0  0  0
  6  7  4  0  0  0  0
  6 11  1  0  0  0  0
  7  8  4  0  0  0  0
  8  9  4  0  0  0  0
  9 10  4  0  0  0  0
 11 12  1  0  0  0  0
 11 22  1  0  0  0  0
 12 13  1  0  0  0  0
 13 14  1  0  0  0  0
 14 15  1  0  0  0  0
 14 21  1  0  0  0  0
 15 16  1  0  0  0  0
 15 20  1  0  0  0  0
 16 17  1  0  0  0  0
 17 18  1  0  0  0  0
 18 19  1  0  0  0  0
 19 20  1  0  0  0  0
 21 22  1  0  0  0  0
M  END
>  <Name_Molregno>
570819

>  <HISTAMINE H3>
5.77

$$$$
570820
  Marvin  02231216192D 0   1.00000     0.00000     0

 22 25  0  0  0  0  0  0  0  0999 V2000
    8.3910   -0.0537    0.0000 Br  0  0  0  0  0  0  0  0  0
    7.6765    0.3588    0.0000 C   0  0  0  0  0  0  0  0  0
    6.9621   -0.0537    0.0000 C   0  0  0  0  0  0  0  0  0
    6.2476    0.3588    0.0000 C   0  0  0  0  0  0  0  0  0
    5.4630    0.1039    0.0000 S   0  0  0  0  0  0  0  0  0
    4.9780    0.7713    0.0000 C   0  0  0  0  0  0  0  0  0
    5.4630    1.4388    0.0000 N   0  0  0  0  0  0  0  0  0
    6.2476    1.1838    0.0000 C   0  0  0  0  0  0  0  0  0
    6.9621    1.5963    0.0000 N   0  0  0  0  0  0  0  0  0
    7.6765    1.1838    0.0000 C   0  0  0  0  0  0  0  0  0
    4.1530    0.7713    0.0000 N   0  0  0  0  0  0  0  0  0
    3.7405    0.0569    0.0000 C   0  0  0  0  0  0  0  0  0
    2.9155    0.0569    0.0000 C   0  0  0  0  0  0  0  0  0
    2.5030    0.7713    0.0000 C   0  0  0  0  0  0  0  0  0
    1.6780    0.7713    0.0000 N   0  0  0  0  0  0  0  0  0
    1.2655    0.0569    0.0000 C   0  0  0  0  0  0  0  0  0
    0.4405    0.0569    0.0000 C   0  0  0  0  0  0  0  0  0
    0.0280    0.7713    0.0000 C   0  0  0  0  0  0  0  0  0
    0.4405    1.4858    0.0000 C   0  0  0  0  0  0  0  0  0
    1.2655    1.4858    0.0000 C   0  0  0  0  0  0  0  0  0
    2.9155    1.4858    0.0000 C   0  0  0  0  0  0  0  0  0
    3.7405    1.4858    0.0000 C   0  0  0  0  0  0  0  0  0
  1  2  1  0  0  0  0
  2  3  4  0  0  0  0
  2 10  4  0  0  0  0
  3  4  4  0  0  0  0
  4  5  4  0  0  0  0
  4  8  4  0  0  0  0
  5  6  4  0  0  0  0
  6  7  4  0  0  0  0
  6 11  1  0  0  0  0
  7  8  4  0  0  0  0
  8  9  4  0  0  0  0
  9 10  4  0  0  0  0
 11 12  1  0  0  0  0
 11 22  1  0  0  0  0
 12 13  1  0  0  0  0
 13 14  1  0  0  0  0
 14 15  1  0  0  0  0
 14 21  1  0  0  0  0
 15 16  1  0  0  0  0
 15 20  1  0  0  0  0
 16 17  1  0  0  0  0
 17 18  1  0  0  0  0
 18 19  1  0  0  0  0
 19 20  1  0  0  0  0
 21 22  1  0  0  0  0
M  END
>  <Name_Molregno>
570820

>  <HISTAMINE H3>
6.85

$$$$
570821
  Marvin  02231216192D 0   1.00000     0.00000     0

 28 32  0  0  0  0  0  0  0  0999 V2000
    0.4333    0.0663    0.0000 S   0  0  0  0  0  0  0  0  0
    1.2179   -0.1887    0.0000 C   0  0  0  0  0  0  0  0  0
    1.9324    0.2238    0.0000 C   0  0  0  0  0  0  0  0  0
    2.6468   -0.1887    0.0000 C   0  0  0  0  0  0  0  0  0
    2.6468   -1.0137    0.0000 C   0  0  0  0  0  0  0  0  0
    1.9324   -1.4262    0.0000 N   0  0  0  0  0  0  0  0  0
    1.2179   -1.0137    0.0000 C   0  0  0  0  0  0  0  0  0
    0.4333   -1.2686    0.0000 N   0  0  0  0  0  0  0  0  0
   -0.0516   -0.6012    0.0000 C   0  0  0  0  0  0  0  0  0
   -0.8766   -0.6012    0.0000 N   0  0  0  0  0  0  0  0  0
   -1.2891   -1.3157    0.0000 C   0  0  0  0  0  0  0  0  0
   -2.1141   -1.3157    0.0000 C   0  0  0  0  0  0  0  0  0
   -2.5266   -0.6012    0.0000 C   0  0  0  0  0  0  0  0  0
   -3.3516   -0.6012    0.0000 N   0  0  0  0  0  0  0  0  0
   -3.7641   -1.3157    0.0000 C   0  0  0  0  0  0  0  0  0
   -4.5891   -1.3157    0.0000 C   0  0  0  0  0  0  0  0  0
   -5.0016   -0.6012    0.0000 C   0  0  0  0  0  0  0  0  0
   -4.5891    0.1133    0.0000 C   0  0  0  0  0  0  0  0  0
   -3.7641    0.1133    0.0000 C   0  0  0  0  0  0  0  0  0
   -2.1141    0.1133    0.0000 C   0  0  0  0  0  0  0  0  0
   -1.2891    0.1133    0.0000 C   0  0  0  0  0  0  0  0  0
    3.3613    0.2238    0.0000 C   0  0  0  0  0  0  0  0  0
    3.3613    1.0488    0.0000 C   0  0  0  0  0  0  0  0  0
    4.0758    1.4613    0.0000 C   0  0  0  0  0  0  0  0  0
    4.7903    1.0488    0.0000 C   0  0  0  0  0  0  0  0  0
    4.7903    0.2238    0.0000 N   0  0  0  0  0  0  0  0  0
    4.0758   -0.1887    0.0000 C   0  0  0  0  0  0  0  0  0
    5.5047    1.4613    0.0000 N   0  0  0  0  0  0  0  0  0
  1  2  4  0  0  0  0
  1  9  4  0  0  0  0
  2  3  4  0  0  0  0
  2  7  4  0  0  0  0
  3  4  4  0  0  0  0
  4  5  4  0  0  0  0
  4 22  1  0  0  0  0
  5  6  4  0  0  0  0
  6  7  4  0  0  0  0
  7  8  4  0  0  0  0
  8  9  4  0  0  0  0
  9 10  1  0  0  0  0
 10 11  1  0  0  0  0
 10 21  1  0  0  0  0
 11 12  1  0  0  0  0
 12 13  1  0  0  0  0
 13 14  1  0  0  0  0
 13 20  1  0  0  0  0
 14 15  1  0  0  0  0
 14 19  1  0  0  0  0
 15 16  1  0  0  0  0
 16 17  1  0  0  0  0
 17 18  1  0  0  0  0
 18 19  1  0  0  0  0
 20 21  1  0  0  0  0
 22 23  4  0  0  0  0
 22 27  4  0  0  0  0
 23 24  4  0  0  0  0
 24 25  4  0  0  0  0
 25 26  4  0  0  0  0
 25 28  1  0  0  0  0
 26 27  4  0  0  0  0
M  END
>  <Name_Molregno>
570821

>  <HISTAMINE H3>
7.8

$$$$
570827
  Marvin  02231216192D 0   1.00000     0.00000     0

 21 24  0  0  0  0  0  0  0  0999 V2000
    2.9926   -0.0085    0.0000 S   0  0  0  0  0  0  0  0  0
    3.7773   -0.2634    0.0000 C   0  0  0  0  0  0  0  0  0
    4.4917    0.1491    0.0000 C   0  0  0  0  0  0  0  0  0
    5.2062   -0.2634    0.0000 C   0  0  0  0  0  0  0  0  0
    5.2062   -1.0884    0.0000 C   0  0  0  0  0  0  0  0  0
    4.4917   -1.5009    0.0000 N   0  0  0  0  0  0  0  0  0
    3.7773   -1.0884    0.0000 C   0  0  0  0  0  0  0  0  0
    2.9926   -1.3433    0.0000 N   0  0  0  0  0  0  0  0  0
    2.5077   -0.6759    0.0000 C   0  0  0  0  0  0  0  0  0
    1.6827   -0.6759    0.0000 N   0  0  0  0  0  0  0  0  0
    1.2702   -1.3904    0.0000 C   0  0  0  0  0  0  0  0  0
    0.4452   -1.3904    0.0000 C   0  0  0  0  0  0  0  0  0
    0.0327   -0.6759    0.0000 C   0  0  0  0  0  0  0  0  0
   -0.7923   -0.6759    0.0000 N   0  0  0  0  0  0  0  0  0
   -1.2048   -1.3904    0.0000 C   0  0  0  0  0  0  0  0  0
   -2.0298   -1.3904    0.0000 C   0  0  0  0  0  0  0  0  0
   -2.4423   -0.6759    0.0000 C   0  0  0  0  0  0  0  0  0
   -2.0298    0.0386    0.0000 C   0  0  0  0  0  0  0  0  0
   -1.2048    0.0386    0.0000 C   0  0  0  0  0  0  0  0  0
    0.4452    0.0386    0.0000 C   0  0  0  0  0  0  0  0  0
    1.2702    0.0386    0.0000 C   0  0  0  0  0  0  0  0  0
  1  2  4  0  0  0  0
  1  9  4  0  0  0  0
  2  3  4  0  0  0  0
  2  7  4  0  0  0  0
  3  4  4  0  0  0  0
  4  5  4  0  0  0  0
  5  6  4  0  0  0  0
  6  7  4  0  0  0  0
  7  8  4  0  0  0  0
  8  9  4  0  0  0  0
  9 10  1  0  0  0  0
 10 11  1  0  0  0  0
 10 21  1  0  0  0  0
 11 12  1  0  0  0  0
 12 13  1  0  0  0  0
 13 14  1  0  0  0  0
 13 20  1  0  0  0  0
 14 15  1  0  0  0  0
 14 19  1  0  0  0  0
 15 16  1  0  0  0  0
 16 17  1  0  0  0  0
 17 18  1  0  0  0  0
 18 19  1  0  0  0  0
 20 21  1  0  0  0  0
M  END
>  <Name_Molregno>
570827

>  <HISTAMINE H3>
6.86

$$$$
570828
  Marvin  02231216192D 0   1.00000     0.00000     0

 29 33  0  0  0  0  0  0  0  0999 V2000
   -0.0090    0.0059    0.0000 S   0  0  0  0  0  0  0  0  0
    0.7757   -0.2490    0.0000 C   0  0  0  0  0  0  0  0  0
    1.4901    0.1635    0.0000 C   0  0  0  0  0  0  0  0  0
    2.2046   -0.2490    0.0000 C   0  0  0  0  0  0  0  0  0
    2.2046   -1.0740    0.0000 C   0  0  0  0  0  0  0  0  0
    1.4901   -1.4865    0.0000 N   0  0  0  0  0  0  0  0  0
    0.7757   -1.0740    0.0000 C   0  0  0  0  0  0  0  0  0
   -0.0090   -1.3290    0.0000 N   0  0  0  0  0  0  0  0  0
   -0.4939   -0.6615    0.0000 C   0  0  0  0  0  0  0  0  0
   -1.3189   -0.6615    0.0000 N   0  0  0  0  0  0  0  0  0
   -1.7314   -1.3760    0.0000 C   0  0  0  0  0  0  0  0  0
   -2.5564   -1.3760    0.0000 C   0  0  0  0  0  0  0  0  0
   -2.9689   -0.6615    0.0000 C   0  0  0  0  0  0  0  0  0
   -3.7939   -0.6615    0.0000 N   0  0  0  0  0  0  0  0  0
   -4.2064   -1.3760    0.0000 C   0  0  0  0  0  0  0  0  0
   -5.0314   -1.3760    0.0000 C   0  0  0  0  0  0  0  0  0
   -5.4439   -0.6615    0.0000 C   0  0  0  0  0  0  0  0  0
   -5.0314    0.0530    0.0000 C   0  0  0  0  0  0  0  0  0
   -4.2064    0.0530    0.0000 C   0  0  0  0  0  0  0  0  0
   -2.5564    0.0530    0.0000 C   0  0  0  0  0  0  0  0  0
   -1.7314    0.0530    0.0000 C   0  0  0  0  0  0  0  0  0
    2.9191    0.1635    0.0000 C   0  0  0  0  0  0  0  0  0
    2.9191    0.9885    0.0000 C   0  0  0  0  0  0  0  0  0
    3.6335    1.4010    0.0000 C   0  0  0  0  0  0  0  0  0
    4.3480    0.9885    0.0000 C   0  0  0  0  0  0  0  0  0
    4.3480    0.1635    0.0000 C   0  0  0  0  0  0  0  0  0
    3.6335   -0.2490    0.0000 C   0  0  0  0  0  0  0  0  0
    5.0625    1.4010    0.0000 C   0  0  0  0  0  0  0  0  0
    5.7769    1.8135    0.0000 N   0  0  0  0  0  0  0  0  0
  1  2  4  0  0  0  0
  1  9  4  0  0  0  0
  2  3  4  0  0  0  0
  2  7  4  0  0  0  0
  3  4  4  0  0  0  0
  4  5  4  0  0  0  0
  4 22  1  0  0  0  0
  5  6  4  0  0  0  0
  6  7  4  0  0  0  0
  7  8  4  0  0  0  0
  8  9  4  0  0  0  0
  9 10  1  0  0  0  0
 10 11  1  0  0  0  0
 10 21  1  0  0  0  0
 11 12  1  0  0  0  0
 12 13  1  0  0  0  0
 13 14  1  0  0  0  0
 13 20  1  0  0  0  0
 14 15  1  0  0  0  0
 14 19  1  0  0  0  0
 15 16  1  0  0  0  0
 16 17  1  0  0  0  0
 17 18  1  0  0  0  0
 18 19  1  0  0  0  0
 20 21  1  0  0  0  0
 22 23  4  0  0  0  0
 22 27  4  0  0  0  0
 23 24  4  0  0  0  0
 24 25  4  0  0  0  0
 25 26  4  0  0  0  0
 25 28  1  0  0  0  0
 26 27  4  0  0  0  0
 28 29  3  0  0  0  0
M  END
>  <Name_Molregno>
570828

>  <HISTAMINE H3>
7.55

$$$$
570829
  Marvin  02231216192D 0   1.00000     0.00000     0

 28 32  0  0  0  0  0  0  0  0999 V2000
    0.4333    0.0663    0.0000 S   0  0  0  0  0  0  0  0  0
    1.2179   -0.1887    0.0000 C   0  0  0  0  0  0  0  0  0
    1.9324    0.2238    0.0000 C   0  0  0  0  0  0  0  0  0
    2.6468   -0.1887    0.0000 C   0  0  0  0  0  0  0  0  0
    2.6468   -1.0137    0.0000 N   0  0  0  0  0  0  0  0  0
    1.9324   -1.4262    0.0000 C   0  0  0  0  0  0  0  0  0
    1.2179   -1.0137    0.0000 C   0  0  0  0  0  0  0  0  0
    0.4333   -1.2686    0.0000 N   0  0  0  0  0  0  0  0  0
   -0.0516   -0.6012    0.0000 C   0  0  0  0  0  0  0  0  0
   -0.8766   -0.6012    0.0000 N   0  0  0  0  0  0  0  0  0
   -1.2891   -1.3157    0.0000 C   0  0  0  0  0  0  0  0  0
   -2.1141   -1.3157    0.0000 C   0  0  0  0  0  0  0  0  0
   -2.5266   -0.6012    0.0000 C   0  0  0  0  0  0  0  0  0
   -3.3516   -0.6012    0.0000 N   0  0  0  0  0  0  0  0  0
   -3.7641   -1.3157    0.0000 C   0  0  0  0  0  0  0  0  0
   -4.5891   -1.3157    0.0000 C   0  0  0  0  0  0  0  0  0
   -5.0016   -0.6012    0.0000 C   0  0  0  0  0  0  0  0  0
   -4.5891    0.1133    0.0000 C   0  0  0  0  0  0  0  0  0
   -3.7641    0.1133    0.0000 C   0  0  0  0  0  0  0  0  0
   -2.1141    0.1133    0.0000 C   0  0  0  0  0  0  0  0  0
   -1.2891    0.1133    0.0000 C   0  0  0  0  0  0  0  0  0
    3.3613    0.2238    0.0000 C   0  0  0  0  0  0  0  0  0
    3.3613    1.0488    0.0000 C   0  0  0  0  0  0  0  0  0
    4.0758    1.4613    0.0000 C   0  0  0  0  0  0  0  0  0
    4.7903    1.0488    0.0000 C   0  0  0  0  0  0  0  0  0
    4.7903    0.2238    0.0000 N   0  0  0  0  0  0  0  0  0
    4.0758   -0.1887    0.0000 C   0  0  0  0  0  0  0  0  0
    5.5047    1.4613    0.0000 C   0  0  0  0  0  0  0  0  0
  1  2  4  0  0  0  0
  1  9  4  0  0  0  0
  2  3  4  0  0  0  0
  2  7  4  0  0  0  0
  3  4  4  0  0  0  0
  4  5  4  0  0  0  0
  4 22  1  0  0  0  0
  5  6  4  0  0  0  0
  6  7  4  0  0  0  0
  7  8  4  0  0  0  0
  8  9  4  0  0  0  0
  9 10  1  0  0  0  0
 10 11  1  0  0  0  0
 10 21  1  0  0  0  0
 11 12  1  0  0  0  0
 12 13  1  0  0  0  0
 13 14  1  0  0  0  0
 13 20  1  0  0  0  0
 14 15  1  0  0  0  0
 14 19  1  0  0  0  0
 15 16  1  0  0  0  0
 16 17  1  0  0  0  0
 17 18  1  0  0  0  0
 18 19  1  0  0  0  0
 20 21  1  0  0  0  0
 22 23  4  0  0  0  0
 22 27  4  0  0  0  0
 23 24  4  0  0  0  0
 24 25  4  0  0  0  0
 25 26  4  0  0  0  0
 25 28  1  0  0  0  0
 26 27  4  0  0  0  0
M  END
>  <Name_Molregno>
570829

>  <HISTAMINE H3>
6.98

$$$$
570835
  Marvin  02231216192D 0   1.00000     0.00000     0

 30 34  0  0  0  0  0  0  0  0999 V2000
   -0.1687   -0.2363    0.0000 S   0  0  0  0  0  0  0  0  0
    0.6159   -0.4912    0.0000 C   0  0  0  0  0  0  0  0  0
    1.3303   -0.0787    0.0000 C   0  0  0  0  0  0  0  0  0
    2.0448   -0.4912    0.0000 C   0  0  0  0  0  0  0  0  0
    2.0448   -1.3162    0.0000 C   0  0  0  0  0  0  0  0  0
    1.3303   -1.7287    0.0000 N   0  0  0  0  0  0  0  0  0
    0.6159   -1.3162    0.0000 C   0  0  0  0  0  0  0  0  0
   -0.1687   -1.5712    0.0000 N   0  0  0  0  0  0  0  0  0
   -0.6537   -0.9037    0.0000 C   0  0  0  0  0  0  0  0  0
   -1.4787   -0.9037    0.0000 N   0  0  0  0  0  0  0  0  0
   -1.8912   -1.6182    0.0000 C   0  0  0  0  0  0  0  0  0
   -2.7162   -1.6182    0.0000 C   0  0  0  0  0  0  0  0  0
   -3.1287   -0.9037    0.0000 C   0  0  0  0  0  0  0  0  0
   -3.9537   -0.9037    0.0000 N   0  0  0  0  0  0  0  0  0
   -4.3662   -1.6182    0.0000 C   0  0  0  0  0  0  0  0  0
   -5.1912   -1.6182    0.0000 C   0  0  0  0  0  0  0  0  0
   -5.6037   -0.9037    0.0000 C   0  0  0  0  0  0  0  0  0
   -5.1912   -0.1893    0.0000 C   0  0  0  0  0  0  0  0  0
   -4.3662   -0.1893    0.0000 C   0  0  0  0  0  0  0  0  0
   -2.7162   -0.1893    0.0000 C   0  0  0  0  0  0  0  0  0
   -1.8912   -0.1893    0.0000 C   0  0  0  0  0  0  0  0  0
    2.7593   -0.0787    0.0000 C   0  0  0  0  0  0  0  0  0
    2.7593    0.7463    0.0000 C   0  0  0  0  0  0  0  0  0
    3.4738    1.1588    0.0000 C   0  0  0  0  0  0  0  0  0
    3.4738    1.9838    0.0000 C   0  0  0  0  0  0  0  0  0
    3.4738    2.8088    0.0000 N   0  0  0  0  0  0  0  0  0
    4.1882    0.7463    0.0000 C   0  0  0  0  0  0  0  0  0
    4.9027    1.1588    0.0000 F   0  0  0  0  0  0  0  0  0
    4.1882   -0.0787    0.0000 C   0  0  0  0  0  0  0  0  0
    3.4738   -0.4912    0.0000 C   0  0  0  0  0  0  0  0  0
  1  2  4  0  0  0  0
  1  9  4  0  0  0  0
  2  3  4  0  0  0  0
  2  7  4  0  0  0  0
  3  4  4  0  0  0  0
  4  5  4  0  0  0  0
  4 22  1  0  0  0  0
  5  6  4  0  0  0  0
  6  7  4  0  0  0  0
  7  8  4  0  0  0  0
  8  9  4  0  0  0  0
  9 10  1  0  0  0  0
 10 11  1  0  0  0  0
 10 21  1  0  0  0  0
 11 12  1  0  0  0  0
 12 13  1  0  0  0  0
 13 14  1  0  0  0  0
 13 20  1  0  0  0  0
 14 15  1  0  0  0  0
 14 19  1  0  0  0  0
 15 16  1  0  0  0  0
 16 17  1  0  0  0  0
 17 18  1  0  0  0  0
 18 19  1  0  0  0  0
 20 21  1  0  0  0  0
 22 23  4  0  0  0  0
 22 30  4  0  0  0  0
 23 24  4  0  0  0  0
 24 25  1  0  0  0  0
 24 27  4  0  0  0  0
 25 26  3  0  0  0  0
 27 28  1  0  0  0  0
 27 29  4  0  0  0  0
 29 30  4  0  0  0  0
M  END
>  <Name_Molregno>
570835

>  <HISTAMINE H3>
7.64

$$$$
570836
  Marvin  02231216192D 0   1.00000     0.00000     0

 30 34  0  0  0  0  0  0  0  0999 V2000
   -0.2213   -0.2762    0.0000 S   0  0  0  0  0  0  0  0  0
    0.5634   -0.5311    0.0000 C   0  0  0  0  0  0  0  0  0
    1.2778   -0.1186    0.0000 C   0  0  0  0  0  0  0  0  0
    1.9923   -0.5311    0.0000 C   0  0  0  0  0  0  0  0  0
    1.9923   -1.3561    0.0000 C   0  0  0  0  0  0  0  0  0
    1.2778   -1.7686    0.0000 N   0  0  0  0  0  0  0  0  0
    0.5634   -1.3561    0.0000 C   0  0  0  0  0  0  0  0  0
   -0.2213   -1.6110    0.0000 N   0  0  0  0  0  0  0  0  0
   -0.7062   -0.9436    0.0000 C   0  0  0  0  0  0  0  0  0
   -1.5312   -0.9436    0.0000 N   0  0  0  0  0  0  0  0  0
   -1.9437   -1.6581    0.0000 C   0  0  0  0  0  0  0  0  0
   -2.7687   -1.6581    0.0000 C   0  0  0  0  0  0  0  0  0
   -3.1812   -0.9436    0.0000 C   0  0  0  0  0  0  0  0  0
   -4.0062   -0.9436    0.0000 N   0  0  0  0  0  0  0  0  0
   -4.4187   -1.6581    0.0000 C   0  0  0  0  0  0  0  0  0
   -5.2437   -1.6581    0.0000 C   0  0  0  0  0  0  0  0  0
   -5.6562   -0.9436    0.0000 C   0  0  0  0  0  0  0  0  0
   -5.2437   -0.2291    0.0000 C   0  0  0  0  0  0  0  0  0
   -4.4187   -0.2291    0.0000 C   0  0  0  0  0  0  0  0  0
   -2.7687   -0.2291    0.0000 C   0  0  0  0  0  0  0  0  0
   -1.9437   -0.2291    0.0000 C   0  0  0  0  0  0  0  0  0
    2.7068   -0.1186    0.0000 C   0  0  0  0  0  0  0  0  0
    2.7068    0.7064    0.0000 C   0  0  0  0  0  0  0  0  0
    3.4212    1.1189    0.0000 C   0  0  0  0  0  0  0  0  0
    4.1357    0.7064    0.0000 C   0  0  0  0  0  0  0  0  0
    4.1357   -0.1186    0.0000 C   0  0  0  0  0  0  0  0  0
    3.4212   -0.5311    0.0000 C   0  0  0  0  0  0  0  0  0
    3.4212    1.9439    0.0000 C   0  0  0  0  0  0  0  0  0
    2.7068    2.3564    0.0000 O   0  0  0  0  0  0  0  0  0
    4.1357    2.3564    0.0000 C   0  0  0  0  0  0  0  0  0
  1  2  4  0  0  0  0
  1  9  4  0  0  0  0
  2  3  4  0  0  0  0
  2  7  4  0  0  0  0
  3  4  4  0  0  0  0
  4  5  4  0  0  0  0
  4 22  1  0  0  0  0
  5  6  4  0  0  0  0
  6  7  4  0  0  0  0
  7  8  4  0  0  0  0
  8  9  4  0  0  0  0
  9 10  1  0  0  0  0
 10 11  1  0  0  0  0
 10 21  1  0  0  0  0
 11 12  1  0  0  0  0
 12 13  1  0  0  0  0
 13 14  1  0  0  0  0
 13 20  1  0  0  0  0
 14 15  1  0  0  0  0
 14 19  1  0  0  0  0
 15 16  1  0  0  0  0
 16 17  1  0  0  0  0
 17 18  1  0  0  0  0
 18 19  1  0  0  0  0
 20 21  1  0  0  0  0
 22 23  4  0  0  0  0
 22 27  4  0  0  0  0
 23 24  4  0  0  0  0
 24 25  4  0  0  0  0
 24 28  1  0  0  0  0
 25 26  4  0  0  0  0
 26 27  4  0  0  0  0
 28 29  2  0  0  0  0
 28 30  1  0  0  0  0
M  END
>  <Name_Molregno>
570836

>  <HISTAMINE H3>
7.48

$$$$
570848
  Marvin  02231216192D 0   1.00000     0.00000     0

 22 25  0  0  0  0  0  0  0  0999 V2000
    2.5991    0.0043    0.0000 S   0  0  0  0  0  0  0  0  0
    3.3837   -0.2506    0.0000 C   0  0  0  0  0  0  0  0  0
    4.0982    0.1619    0.0000 C   0  0  0  0  0  0  0  0  0
    4.8127   -0.2506    0.0000 C   0  0  0  0  0  0  0  0  0
    5.5271    0.1619    0.0000 N   0  0  0  0  0  0  0  0  0
    4.8127   -1.0756    0.0000 C   0  0  0  0  0  0  0  0  0
    4.0982   -1.4881    0.0000 N   0  0  0  0  0  0  0  0  0
    3.3837   -1.0756    0.0000 C   0  0  0  0  0  0  0  0  0
    2.5991   -1.3306    0.0000 N   0  0  0  0  0  0  0  0  0
    2.1142   -0.6631    0.0000 C   0  0  0  0  0  0  0  0  0
    1.2892   -0.6631    0.0000 N   0  0  0  0  0  0  0  0  0
    0.8767   -1.3776    0.0000 C   0  0  0  0  0  0  0  0  0
    0.0517   -1.3776    0.0000 C   0  0  0  0  0  0  0  0  0
   -0.3608   -0.6631    0.0000 C   0  0  0  0  0  0  0  0  0
   -1.1858   -0.6631    0.0000 N   0  0  0  0  0  0  0  0  0
   -1.5983   -1.3776    0.0000 C   0  0  0  0  0  0  0  0  0
   -2.4233   -1.3776    0.0000 C   0  0  0  0  0  0  0  0  0
   -2.8358   -0.6631    0.0000 C   0  0  0  0  0  0  0  0  0
   -2.4233    0.0514    0.0000 C   0  0  0  0  0  0  0  0  0
   -1.5983    0.0514    0.0000 C   0  0  0  0  0  0  0  0  0
    0.0517    0.0514    0.0000 C   0  0  0  0  0  0  0  0  0
    0.8767    0.0514    0.0000 C   0  0  0  0  0  0  0  0  0
  1  2  4  0  0  0  0
  1 10  4  0  0  0  0
  2  3  4  0  0  0  0
  2  8  4  0  0  0  0
  3  4  4  0  0  0  0
  4  5  1  0  0  0  0
  4  6  4  0  0  0  0
  6  7  4  0  0  0  0
  7  8  4  0  0  0  0
  8  9  4  0  0  0  0
  9 10  4  0  0  0  0
 10 11  1  0  0  0  0
 11 12  1  0  0  0  0
 11 22  1  0  0  0  0
 12 13  1  0  0  0  0
 13 14  1  0  0  0  0
 14 15  1  0  0  0  0
 14 21  1  0  0  0  0
 15 16  1  0  0  0  0
 15 20  1  0  0  0  0
 16 17  1  0  0  0  0
 17 18  1  0  0  0  0
 18 19  1  0  0  0  0
 19 20  1  0  0  0  0
 21 22  1  0  0  0  0
M  END
>  <Name_Molregno>
570848

>  <HISTAMINE H3>
7.1

$$$$
570849
  Marvin  02231216192D 0   1.00000     0.00000     0

 31 35  0  0  0  0  0  0  0  0999 V2000
   -0.7618   -0.0938    0.0000 S   0  0  0  0  0  0  0  0  0
    0.0229   -0.3487    0.0000 C   0  0  0  0  0  0  0  0  0
    0.7373    0.0638    0.0000 C   0  0  0  0  0  0  0  0  0
    1.4518   -0.3487    0.0000 C   0  0  0  0  0  0  0  0  0
    1.4518   -1.1737    0.0000 C   0  0  0  0  0  0  0  0  0
    0.7373   -1.5862    0.0000 N   0  0  0  0  0  0  0  0  0
    0.0229   -1.1737    0.0000 C   0  0  0  0  0  0  0  0  0
   -0.7618   -1.4286    0.0000 N   0  0  0  0  0  0  0  0  0
   -1.2467   -0.7612    0.0000 C   0  0  0  0  0  0  0  0  0
   -2.0717   -0.7612    0.0000 N   0  0  0  0  0  0  0  0  0
   -2.4842   -1.4757    0.0000 C   0  0  0  0  0  0  0  0  0
   -3.3092   -1.4757    0.0000 C   0  0  0  0  0  0  0  0  0
   -3.7217   -0.7612    0.0000 C   0  0  0  0  0  0  0  0  0
   -4.5467   -0.7612    0.0000 N   0  0  0  0  0  0  0  0  0
   -4.9592   -1.4757    0.0000 C   0  0  0  0  0  0  0  0  0
   -5.7842   -1.4757    0.0000 C   0  0  0  0  0  0  0  0  0
   -6.1967   -0.7612    0.0000 C   0  0  0  0  0  0  0  0  0
   -5.7842   -0.0467    0.0000 C   0  0  0  0  0  0  0  0  0
   -4.9592   -0.0467    0.0000 C   0  0  0  0  0  0  0  0  0
   -3.3092   -0.0467    0.0000 C   0  0  0  0  0  0  0  0  0
   -2.4842   -0.0467    0.0000 C   0  0  0  0  0  0  0  0  0
    2.1663    0.0638    0.0000 C   0  0  0  0  0  0  0  0  0
    2.1663    0.8888    0.0000 C   0  0  0  0  0  0  0  0  0
    2.8808    1.3013    0.0000 C   0  0  0  0  0  0  0  0  0
    3.5952    0.8888    0.0000 C   0  0  0  0  0  0  0  0  0
    3.5952    0.0638    0.0000 N   0  0  0  0  0  0  0  0  0
    2.8808   -0.3487    0.0000 C   0  0  0  0  0  0  0  0  0
    4.3097    1.3013    0.0000 N   0  0  0  0  0  0  0  0  0
    5.0242    0.8888    0.0000 C   0  0  0  0  0  0  0  0  0
    5.7386    1.3013    0.0000 O   0  0  0  0  0  0  0  0  0
    5.0242    0.0638    0.0000 C   0  0  0  0  0  0  0  0  0
  1  2  4  0  0  0  0
  1  9  4  0  0  0  0
  2  3  4  0  0  0  0
  2  7  4  0  0  0  0
  3  4  4  0  0  0  0
  4  5  4  0  0  0  0
  4 22  1  0  0  0  0
  5  6  4  0  0  0  0
  6  7  4  0  0  0  0
  7  8  4  0  0  0  0
  8  9  4  0  0  0  0
  9 10  1  0  0  0  0
 10 11  1  0  0  0  0
 10 21  1  0  0  0  0
 11 12  1  0  0  0  0
 12 13  1  0  0  0  0
 13 14  1  0  0  0  0
 13 20  1  0  0  0  0
 14 15  1  0  0  0  0
 14 19  1  0  0  0  0
 15 16  1  0  0  0  0
 16 17  1  0  0  0  0
 17 18  1  0  0  0  0
 18 19  1  0  0  0  0
 20 21  1  0  0  0  0
 22 23  4  0  0  0  0
 22 27  4  0  0  0  0
 23 24  4  0  0  0  0
 24 25  4  0  0  0  0
 25 26  4  0  0  0  0
 25 28  1  0  0  0  0
 26 27  4  0  0  0  0
 28 29  1  0  0  0  0
 29 30  2  0  0  0  0
 29 31  1  0  0  0  0
M  END
>  <Name_Molregno>
570849

>  <HISTAMINE H3>
8

$$$$
570850
  Marvin  02231216192D 0   1.00000     0.00000     0

 28 32  0  0  0  0  0  0  0  0999 V2000
    0.4333    0.0663    0.0000 S   0  0  0  0  0  0  0  0  0
    1.2179   -0.1887    0.0000 C   0  0  0  0  0  0  0  0  0
    1.9324    0.2238    0.0000 C   0  0  0  0  0  0  0  0  0
    2.6468   -0.1887    0.0000 C   0  0  0  0  0  0  0  0  0
    2.6468   -1.0137    0.0000 N   0  0  0  0  0  0  0  0  0
    1.9324   -1.4262    0.0000 C   0  0  0  0  0  0  0  0  0
    1.2179   -1.0137    0.0000 C   0  0  0  0  0  0  0  0  0
    0.4333   -1.2686    0.0000 N   0  0  0  0  0  0  0  0  0
   -0.0516   -0.6012    0.0000 C   0  0  0  0  0  0  0  0  0
   -0.8766   -0.6012    0.0000 N   0  0  0  0  0  0  0  0  0
   -1.2891   -1.3157    0.0000 C   0  0  0  0  0  0  0  0  0
   -2.1141   -1.3157    0.0000 C   0  0  0  0  0  0  0  0  0
   -2.5266   -0.6012    0.0000 C   0  0  0  0  0  0  0  0  0
   -3.3516   -0.6012    0.0000 N   0  0  0  0  0  0  0  0  0
   -3.7641   -1.3157    0.0000 C   0  0  0  0  0  0  0  0  0
   -4.5891   -1.3157    0.0000 C   0  0  0  0  0  0  0  0  0
   -5.0016   -0.6012    0.0000 C   0  0  0  0  0  0  0  0  0
   -4.5891    0.1133    0.0000 C   0  0  0  0  0  0  0  0  0
   -3.7641    0.1133    0.0000 C   0  0  0  0  0  0  0  0  0
   -2.1141    0.1133    0.0000 C   0  0  0  0  0  0  0  0  0
   -1.2891    0.1133    0.0000 C   0  0  0  0  0  0  0  0  0
    3.3613    0.2238    0.0000 C   0  0  0  0  0  0  0  0  0
    3.3613    1.0488    0.0000 C   0  0  0  0  0  0  0  0  0
    4.0758    1.4613    0.0000 C   0  0  0  0  0  0  0  0  0
    4.7903    1.0488    0.0000 C   0  0  0  0  0  0  0  0  0
    5.5047    1.4613    0.0000 O   0  0  0  0  0  0  0  0  0
    4.7903    0.2238    0.0000 N   0  0  0  0  0  0  0  0  0
    4.0758   -0.1887    0.0000 C   0  0  0  0  0  0  0  0  0
  1  2  4  0  0  0  0
  1  9  4  0  0  0  0
  2  3  4  0  0  0  0
  2  7  4  0  0  0  0
  3  4  4  0  0  0  0
  4  5  4  0  0  0  0
  4 22  1  0  0  0  0
  5  6  4  0  0  0  0
  6  7  4  0  0  0  0
  7  8  4  0  0  0  0
  8  9  4  0  0  0  0
  9 10  1  0  0  0  0
 10 11  1  0  0  0  0
 10 21  1  0  0  0  0
 11 12  1  0  0  0  0
 12 13  1  0  0  0  0
 13 14  1  0  0  0  0
 13 20  1  0  0  0  0
 14 15  1  0  0  0  0
 14 19  1  0  0  0  0
 15 16  1  0  0  0  0
 16 17  1  0  0  0  0
 17 18  1  0  0  0  0
 18 19  1  0  0  0  0
 20 21  1  0  0  0  0
 22 23  4  0  0  0  0
 22 28  4  0  0  0  0
 23 24  4  0  0  0  0
 24 25  4  0  0  0  0
 25 26  1  0  0  0  0
 25 27  4  0  0  0  0
 27 28  4  0  0  0  0
M  END
>  <Name_Molregno>
570850

>  <HISTAMINE H3>
8.1

$$$$
570867
  Marvin  02231216192D 0   1.00000     0.00000     0

 29 33  0  0  0  0  0  0  0  0999 V2000
    0.1364   -0.1617    0.0000 S   0  0  0  0  0  0  0  0  0
    0.9210   -0.4166    0.0000 C   0  0  0  0  0  0  0  0  0
    1.6355   -0.0041    0.0000 C   0  0  0  0  0  0  0  0  0
    2.3499   -0.4166    0.0000 C   0  0  0  0  0  0  0  0  0
    2.3499   -1.2416    0.0000 C   0  0  0  0  0  0  0  0  0
    1.6355   -1.6541    0.0000 N   0  0  0  0  0  0  0  0  0
    0.9210   -1.2416    0.0000 C   0  0  0  0  0  0  0  0  0
    0.1364   -1.4966    0.0000 N   0  0  0  0  0  0  0  0  0
   -0.3486   -0.8291    0.0000 C   0  0  0  0  0  0  0  0  0
   -1.1736   -0.8291    0.0000 N   0  0  0  0  0  0  0  0  0
   -1.5861   -1.5436    0.0000 C   0  0  0  0  0  0  0  0  0
   -2.4111   -1.5436    0.0000 C   0  0  0  0  0  0  0  0  0
   -2.8236   -0.8291    0.0000 C   0  0  0  0  0  0  0  0  0
   -3.6486   -0.8291    0.0000 N   0  0  0  0  0  0  0  0  0
   -4.0611   -1.5436    0.0000 C   0  0  0  0  0  0  0  0  0
   -4.8861   -1.5436    0.0000 C   0  0  0  0  0  0  0  0  0
   -5.2986   -0.8291    0.0000 C   0  0  0  0  0  0  0  0  0
   -4.8861   -0.1146    0.0000 C   0  0  0  0  0  0  0  0  0
   -4.0611   -0.1146    0.0000 C   0  0  0  0  0  0  0  0  0
   -2.4111   -0.1146    0.0000 C   0  0  0  0  0  0  0  0  0
   -1.5861   -0.1146    0.0000 C   0  0  0  0  0  0  0  0  0
    3.0644   -0.0041    0.0000 C   0  0  0  0  0  0  0  0  0
    3.0644    0.8209    0.0000 C   0  0  0  0  0  0  0  0  0
    3.7789    1.2334    0.0000 C   0  0  0  0  0  0  0  0  0
    3.7789    2.0584    0.0000 O   0  0  0  0  0  0  0  0  0
    3.0644    2.4709    0.0000 C   0  0  0  0  0  0  0  0  0
    4.4933    0.8209    0.0000 C   0  0  0  0  0  0  0  0  0
    4.4933   -0.0041    0.0000 C   0  0  0  0  0  0  0  0  0
    3.7789   -0.4166    0.0000 C   0  0  0  0  0  0  0  0  0
  1  2  4  0  0  0  0
  1  9  4  0  0  0  0
  2  3  4  0  0  0  0
  2  7  4  0  0  0  0
  3  4  4  0  0  0  0
  4  5  4  0  0  0  0
  4 22  1  0  0  0  0
  5  6  4  0  0  0  0
  6  7  4  0  0  0  0
  7  8  4  0  0  0  0
  8  9  4  0  0  0  0
  9 10  1  0  0  0  0
 10 11  1  0  0  0  0
 10 21  1  0  0  0  0
 11 12  1  0  0  0  0
 12 13  1  0  0  0  0
 13 14  1  0  0  0  0
 13 20  1  0  0  0  0
 14 15  1  0  0  0  0
 14 19  1  0  0  0  0
 15 16  1  0  0  0  0
 16 17  1  0  0  0  0
 17 18  1  0  0  0  0
 18 19  1  0  0  0  0
 20 21  1  0  0  0  0
 22 23  4  0  0  0  0
 22 29  4  0  0  0  0
 23 24  4  0  0  0  0
 24 25  1  0  0  0  0
 24 27  4  0  0  0  0
 25 26  1  0  0  0  0
 27 28  4  0  0  0  0
 28 29  4  0  0  0  0
M  END
>  <Name_Molregno>
570867

>  <HISTAMINE H3>
6.85

$$$$
570868
  Marvin  02231216192D 0   1.00000     0.00000     0

 28 32  0  0  0  0  0  0  0  0999 V2000
    0.4333    0.0663    0.0000 S   0  0  0  0  0  0  0  0  0
    1.2179   -0.1887    0.0000 C   0  0  0  0  0  0  0  0  0
    1.9324    0.2238    0.0000 C   0  0  0  0  0  0  0  0  0
    2.6468   -0.1887    0.0000 C   0  0  0  0  0  0  0  0  0
    2.6468   -1.0137    0.0000 C   0  0  0  0  0  0  0  0  0
    1.9324   -1.4262    0.0000 N   0  0  0  0  0  0  0  0  0
    1.2179   -1.0137    0.0000 C   0  0  0  0  0  0  0  0  0
    0.4333   -1.2686    0.0000 N   0  0  0  0  0  0  0  0  0
   -0.0516   -0.6012    0.0000 C   0  0  0  0  0  0  0  0  0
   -0.8766   -0.6012    0.0000 N   0  0  0  0  0  0  0  0  0
   -1.2891   -1.3157    0.0000 C   0  0  0  0  0  0  0  0  0
   -2.1141   -1.3157    0.0000 C   0  0  0  0  0  0  0  0  0
   -2.5266   -0.6012    0.0000 C   0  0  0  0  0  0  0  0  0
   -3.3516   -0.6012    0.0000 N   0  0  0  0  0  0  0  0  0
   -3.7641   -1.3157    0.0000 C   0  0  0  0  0  0  0  0  0
   -4.5891   -1.3157    0.0000 C   0  0  0  0  0  0  0  0  0
   -5.0016   -0.6012    0.0000 C   0  0  0  0  0  0  0  0  0
   -4.5891    0.1133    0.0000 C   0  0  0  0  0  0  0  0  0
   -3.7641    0.1133    0.0000 C   0  0  0  0  0  0  0  0  0
   -2.1141    0.1133    0.0000 C   0  0  0  0  0  0  0  0  0
   -1.2891    0.1133    0.0000 C   0  0  0  0  0  0  0  0  0
    3.3613    0.2238    0.0000 C   0  0  0  0  0  0  0  0  0
    3.3613    1.0488    0.0000 C   0  0  0  0  0  0  0  0  0
    4.0758    1.4613    0.0000 C   0  0  0  0  0  0  0  0  0
    4.7903    1.0488    0.0000 C   0  0  0  0  0  0  0  0  0
    5.5047    1.4613    0.0000 O   0  0  0  0  0  0  0  0  0
    4.7903    0.2238    0.0000 C   0  0  0  0  0  0  0  0  0
    4.0758   -0.1887    0.0000 C   0  0  0  0  0  0  0  0  0
  1  2  4  0  0  0  0
  1  9  4  0  0  0  0
  2  3  4  0  0  0  0
  2  7  4  0  0  0  0
  3  4  4  0  0  0  0
  4  5  4  0  0  0  0
  4 22  1  0  0  0  0
  5  6  4  0  0  0  0
  6  7  4  0  0  0  0
  7  8  4  0  0  0  0
  8  9  4  0  0  0  0
  9 10  1  0  0  0  0
 10 11  1  0  0  0  0
 10 21  1  0  0  0  0
 11 12  1  0  0  0  0
 12 13  1  0  0  0  0
 13 14  1  0  0  0  0
 13 20  1  0  0  0  0
 14 15  1  0  0  0  0
 14 19  1  0  0  0  0
 15 16  1  0  0  0  0
 16 17  1  0  0  0  0
 17 18  1  0  0  0  0
 18 19  1  0  0  0  0
 20 21  1  0  0  0  0
 22 23  4  0  0  0  0
 22 28  4  0  0  0  0
 23 24  4  0  0  0  0
 24 25  4  0  0  0  0
 25 26  1  0  0  0  0
 25 27  4  0  0  0  0
 27 28  4  0  0  0  0
M  END
>  <Name_Molregno>
570868

>  <HISTAMINE H3>
7.23

$$$$
570869
  Marvin  02231216192D 0   1.00000     0.00000     0

 27 31  0  0  0  0  0  0  0  0999 V2000
    0.7326    0.0044    0.0000 S   0  0  0  0  0  0  0  0  0
    1.5172   -0.2506    0.0000 C   0  0  0  0  0  0  0  0  0
    2.2317    0.1619    0.0000 C   0  0  0  0  0  0  0  0  0
    2.9461   -0.2506    0.0000 C   0  0  0  0  0  0  0  0  0
    2.9461   -1.0756    0.0000 C   0  0  0  0  0  0  0  0  0
    2.2317   -1.4881    0.0000 N   0  0  0  0  0  0  0  0  0
    1.5172   -1.0756    0.0000 C   0  0  0  0  0  0  0  0  0
    0.7326   -1.3305    0.0000 N   0  0  0  0  0  0  0  0  0
    0.2476   -0.6631    0.0000 C   0  0  0  0  0  0  0  0  0
   -0.5774   -0.6631    0.0000 N   0  0  0  0  0  0  0  0  0
   -0.9899   -1.3775    0.0000 C   0  0  0  0  0  0  0  0  0
   -1.8149   -1.3775    0.0000 C   0  0  0  0  0  0  0  0  0
   -2.2274   -0.6631    0.0000 C   0  0  0  0  0  0  0  0  0
   -3.0524   -0.6631    0.0000 N   0  0  0  0  0  0  0  0  0
   -3.4649   -1.3775    0.0000 C   0  0  0  0  0  0  0  0  0
   -4.2899   -1.3775    0.0000 C   0  0  0  0  0  0  0  0  0
   -4.7024   -0.6631    0.0000 C   0  0  0  0  0  0  0  0  0
   -4.2899    0.0514    0.0000 C   0  0  0  0  0  0  0  0  0
   -3.4649    0.0514    0.0000 C   0  0  0  0  0  0  0  0  0
   -1.8149    0.0514    0.0000 C   0  0  0  0  0  0  0  0  0
   -0.9899    0.0514    0.0000 C   0  0  0  0  0  0  0  0  0
    3.6606    0.1619    0.0000 C   0  0  0  0  0  0  0  0  0
    3.6606    0.9869    0.0000 C   0  0  0  0  0  0  0  0  0
    4.3751    1.3994    0.0000 N   0  0  0  0  0  0  0  0  0
    5.0895    0.9869    0.0000 C   0  0  0  0  0  0  0  0  0
    5.0895    0.1619    0.0000 N   0  0  0  0  0  0  0  0  0
    4.3751   -0.2506    0.0000 C   0  0  0  0  0  0  0  0  0
  1  2  4  0  0  0  0
  1  9  4  0  0  0  0
  2  3  4  0  0  0  0
  2  7  4  0  0  0  0
  3  4  4  0  0  0  0
  4  5  4  0  0  0  0
  4 22  1  0  0  0  0
  5  6  4  0  0  0  0
  6  7  4  0  0  0  0
  7  8  4  0  0  0  0
  8  9  4  0  0  0  0
  9 10  1  0  0  0  0
 10 11  1  0  0  0  0
 10 21  1  0  0  0  0
 11 12  1  0  0  0  0
 12 13  1  0  0  0  0
 13 14  1  0  0  0  0
 13 20  1  0  0  0  0
 14 15  1  0  0  0  0
 14 19  1  0  0  0  0
 15 16  1  0  0  0  0
 16 17  1  0  0  0  0
 17 18  1  0  0  0  0
 18 19  1  0  0  0  0
 20 21  1  0  0  0  0
 22 23  4  0  0  0  0
 22 27  4  0  0  0  0
 23 24  4  0  0  0  0
 24 25  4  0  0  0  0
 25 26  4  0  0  0  0
 26 27  4  0  0  0  0
M  END
>  <Name_Molregno>
570869

>  <HISTAMINE H3>
7.6

$$$$
570870
  Marvin  02231216192D 0   1.00000     0.00000     0

 28 32  0  0  0  0  0  0  0  0999 V2000
    0.4333    0.0663    0.0000 S   0  0  0  0  0  0  0  0  0
    1.2179   -0.1887    0.0000 C   0  0  0  0  0  0  0  0  0
    1.9324    0.2238    0.0000 C   0  0  0  0  0  0  0  0  0
    2.6468   -0.1887    0.0000 C   0  0  0  0  0  0  0  0  0
    2.6468   -1.0137    0.0000 N   0  0  0  0  0  0  0  0  0
    1.9324   -1.4262    0.0000 C   0  0  0  0  0  0  0  0  0
    1.2179   -1.0137    0.0000 C   0  0  0  0  0  0  0  0  0
    0.4333   -1.2686    0.0000 N   0  0  0  0  0  0  0  0  0
   -0.0516   -0.6012    0.0000 C   0  0  0  0  0  0  0  0  0
   -0.8766   -0.6012    0.0000 N   0  0  0  0  0  0  0  0  0
   -1.2891   -1.3157    0.0000 C   0  0  0  0  0  0  0  0  0
   -2.1141   -1.3157    0.0000 C   0  0  0  0  0  0  0  0  0
   -2.5266   -0.6012    0.0000 C   0  0  0  0  0  0  0  0  0
   -3.3516   -0.6012    0.0000 N   0  0  0  0  0  0  0  0  0
   -3.7641   -1.3157    0.0000 C   0  0  0  0  0  0  0  0  0
   -4.5891   -1.3157    0.0000 C   0  0  0  0  0  0  0  0  0
   -5.0016   -0.6012    0.0000 C   0  0  0  0  0  0  0  0  0
   -4.5891    0.1133    0.0000 C   0  0  0  0  0  0  0  0  0
   -3.7641    0.1133    0.0000 C   0  0  0  0  0  0  0  0  0
   -2.1141    0.1133    0.0000 C   0  0  0  0  0  0  0  0  0
   -1.2891    0.1133    0.0000 C   0  0  0  0  0  0  0  0  0
    3.3613    0.2238    0.0000 C   0  0  0  0  0  0  0  0  0
    3.3613    1.0488    0.0000 C   0  0  0  0  0  0  0  0  0
    4.0758    1.4613    0.0000 C   0  0  0  0  0  0  0  0  0
    4.7903    1.0488    0.0000 C   0  0  0  0  0  0  0  0  0
    4.7903    0.2238    0.0000 N   0  0  0  0  0  0  0  0  0
    4.0758   -0.1887    0.0000 C   0  0  0  0  0  0  0  0  0
    5.5047    1.4613    0.0000 N   0  0  0  0  0  0  0  0  0
  1  2  4  0  0  0  0
  1  9  4  0  0  0  0
  2  3  4  0  0  0  0
  2  7  4  0  0  0  0
  3  4  4  0  0  0  0
  4  5  4  0  0  0  0
  4 22  1  0  0  0  0
  5  6  4  0  0  0  0
  6  7  4  0  0  0  0
  7  8  4  0  0  0  0
  8  9  4  0  0  0  0
  9 10  1  0  0  0  0
 10 11  1  0  0  0  0
 10 21  1  0  0  0  0
 11 12  1  0  0  0  0
 12 13  1  0  0  0  0
 13 14  1  0  0  0  0
 13 20  1  0  0  0  0
 14 15  1  0  0  0  0
 14 19  1  0  0  0  0
 15 16  1  0  0  0  0
 16 17  1  0  0  0  0
 17 18  1  0  0  0  0
 18 19  1  0  0  0  0
 20 21  1  0  0  0  0
 22 23  4  0  0  0  0
 22 27  4  0  0  0  0
 23 24  4  0  0  0  0
 24 25  4  0  0  0  0
 25 26  4  0  0  0  0
 25 28  1  0  0  0  0
 26 27  4  0  0  0  0
M  END
>  <Name_Molregno>
570870

>  <HISTAMINE H3>
7.6

$$$$
570881
  Marvin  02231216192D 0   1.00000     0.00000     0

 29 33  0  0  0  0  0  0  0  0999 V2000
    0.1157   -0.2034    0.0000 S   0  0  0  0  0  0  0  0  0
    0.9003   -0.4583    0.0000 C   0  0  0  0  0  0  0  0  0
    1.6148   -0.0458    0.0000 C   0  0  0  0  0  0  0  0  0
    2.3293   -0.4583    0.0000 C   0  0  0  0  0  0  0  0  0
    2.3293   -1.2833    0.0000 C   0  0  0  0  0  0  0  0  0
    1.6148   -1.6958    0.0000 N   0  0  0  0  0  0  0  0  0
    0.9003   -1.2833    0.0000 C   0  0  0  0  0  0  0  0  0
    0.1157   -1.5383    0.0000 N   0  0  0  0  0  0  0  0  0
   -0.3692   -0.8708    0.0000 C   0  0  0  0  0  0  0  0  0
   -1.1942   -0.8708    0.0000 N   0  0  0  0  0  0  0  0  0
   -1.6067   -1.5853    0.0000 C   0  0  0  0  0  0  0  0  0
   -2.4317   -1.5853    0.0000 C   0  0  0  0  0  0  0  0  0
   -2.8442   -0.8708    0.0000 C   0  0  0  0  0  0  0  0  0
   -3.6692   -0.8708    0.0000 N   0  0  0  0  0  0  0  0  0
   -4.0817   -1.5853    0.0000 C   0  0  0  0  0  0  0  0  0
   -4.9067   -1.5853    0.0000 C   0  0  0  0  0  0  0  0  0
   -5.3192   -0.8708    0.0000 C   0  0  0  0  0  0  0  0  0
   -4.9067   -0.1564    0.0000 C   0  0  0  0  0  0  0  0  0
   -4.0817   -0.1564    0.0000 C   0  0  0  0  0  0  0  0  0
   -2.4317   -0.1564    0.0000 C   0  0  0  0  0  0  0  0  0
   -1.6067   -0.1564    0.0000 C   0  0  0  0  0  0  0  0  0
    3.0437   -0.0458    0.0000 C   0  0  0  0  0  0  0  0  0
    3.0437    0.7792    0.0000 C   0  0  0  0  0  0  0  0  0
    3.7582    1.1917    0.0000 C   0  0  0  0  0  0  0  0  0
    4.4727    0.7792    0.0000 C   0  0  0  0  0  0  0  0  0
    4.4727   -0.0458    0.0000 N   0  0  0  0  0  0  0  0  0
    3.7582   -0.4583    0.0000 C   0  0  0  0  0  0  0  0  0
    3.7582    2.0167    0.0000 C   0  0  0  0  0  0  0  0  0
    3.7582    2.8417    0.0000 N   0  0  0  0  0  0  0  0  0
  1  2  4  0  0  0  0
  1  9  4  0  0  0  0
  2  3  4  0  0  0  0
  2  7  4  0  0  0  0
  3  4  4  0  0  0  0
  4  5  4  0  0  0  0
  4 22  1  0  0  0  0
  5  6  4  0  0  0  0
  6  7  4  0  0  0  0
  7  8  4  0  0  0  0
  8  9  4  0  0  0  0
  9 10  1  0  0  0  0
 10 11  1  0  0  0  0
 10 21  1  0  0  0  0
 11 12  1  0  0  0  0
 12 13  1  0  0  0  0
 13 14  1  0  0  0  0
 13 20  1  0  0  0  0
 14 15  1  0  0  0  0
 14 19  1  0  0  0  0
 15 16  1  0  0  0  0
 16 17  1  0  0  0  0
 17 18  1  0  0  0  0
 18 19  1  0  0  0  0
 20 21  1  0  0  0  0
 22 23  4  0  0  0  0
 22 27  4  0  0  0  0
 23 24  4  0  0  0  0
 24 25  4  0  0  0  0
 24 28  1  0  0  0  0
 25 26  4  0  0  0  0
 26 27  4  0  0  0  0
 28 29  3  0  0  0  0
M  END
>  <Name_Molregno>
570881

>  <HISTAMINE H3>
7.8

$$$$
570882
  Marvin  02231216192D 0   1.00000     0.00000     0

 28 32  0  0  0  0  0  0  0  0999 V2000
    0.4333    0.0663    0.0000 S   0  0  0  0  0  0  0  0  0
    1.2179   -0.1887    0.0000 C   0  0  0  0  0  0  0  0  0
    1.9324    0.2238    0.0000 C   0  0  0  0  0  0  0  0  0
    2.6468   -0.1887    0.0000 C   0  0  0  0  0  0  0  0  0
    2.6468   -1.0137    0.0000 C   0  0  0  0  0  0  0  0  0
    1.9324   -1.4262    0.0000 N   0  0  0  0  0  0  0  0  0
    1.2179   -1.0137    0.0000 C   0  0  0  0  0  0  0  0  0
    0.4333   -1.2686    0.0000 N   0  0  0  0  0  0  0  0  0
   -0.0516   -0.6012    0.0000 C   0  0  0  0  0  0  0  0  0
   -0.8766   -0.6012    0.0000 N   0  0  0  0  0  0  0  0  0
   -1.2891   -1.3157    0.0000 C   0  0  0  0  0  0  0  0  0
   -2.1141   -1.3157    0.0000 C   0  0  0  0  0  0  0  0  0
   -2.5266   -0.6012    0.0000 C   0  0  0  0  0  0  0  0  0
   -3.3516   -0.6012    0.0000 N   0  0  0  0  0  0  0  0  0
   -3.7641   -1.3157    0.0000 C   0  0  0  0  0  0  0  0  0
   -4.5891   -1.3157    0.0000 C   0  0  0  0  0  0  0  0  0
   -5.0016   -0.6012    0.0000 C   0  0  0  0  0  0  0  0  0
   -4.5891    0.1133    0.0000 C   0  0  0  0  0  0  0  0  0
   -3.7641    0.1133    0.0000 C   0  0  0  0  0  0  0  0  0
   -2.1141    0.1133    0.0000 C   0  0  0  0  0  0  0  0  0
   -1.2891    0.1133    0.0000 C   0  0  0  0  0  0  0  0  0
    3.3613    0.2238    0.0000 C   0  0  0  0  0  0  0  0  0
    3.3613    1.0488    0.0000 N   0  0  0  0  0  0  0  0  0
    4.0758    1.4613    0.0000 C   0  0  0  0  0  0  0  0  0
    4.7903    1.0488    0.0000 C   0  0  0  0  0  0  0  0  0
    4.7903    0.2238    0.0000 N   0  0  0  0  0  0  0  0  0
    4.0758   -0.1887    0.0000 C   0  0  0  0  0  0  0  0  0
    5.5047    1.4613    0.0000 N   0  0  0  0  0  0  0  0  0
  1  2  4  0  0  0  0
  1  9  4  0  0  0  0
  2  3  4  0  0  0  0
  2  7  4  0  0  0  0
  3  4  4  0  0  0  0
  4  5  4  0  0  0  0
  4 22  1  0  0  0  0
  5  6  4  0  0  0  0
  6  7  4  0  0  0  0
  7  8  4  0  0  0  0
  8  9  4  0  0  0  0
  9 10  1  0  0  0  0
 10 11  1  0  0  0  0
 10 21  1  0  0  0  0
 11 12  1  0  0  0  0
 12 13  1  0  0  0  0
 13 14  1  0  0  0  0
 13 20  1  0  0  0  0
 14 15  1  0  0  0  0
 14 19  1  0  0  0  0
 15 16  1  0  0  0  0
 16 17  1  0  0  0  0
 17 18  1  0  0  0  0
 18 19  1  0  0  0  0
 20 21  1  0  0  0  0
 22 23  4  0  0  0  0
 22 27  4  0  0  0  0
 23 24  4  0  0  0  0
 24 25  4  0  0  0  0
 25 26  4  0  0  0  0
 25 28  1  0  0  0  0
 26 27  4  0  0  0  0
M  END
>  <Name_Molregno>
570882

>  <HISTAMINE H3>
7.18

$$$$
570883
  Marvin  02231216192D 0   1.00000     0.00000     0

 31 35  0  0  0  0  0  0  0  0999 V2000
   -0.7618   -0.0938    0.0000 S   0  0  0  0  0  0  0  0  0
    0.0229   -0.3487    0.0000 C   0  0  0  0  0  0  0  0  0
    0.7373    0.0638    0.0000 C   0  0  0  0  0  0  0  0  0
    1.4518   -0.3487    0.0000 C   0  0  0  0  0  0  0  0  0
    1.4518   -1.1737    0.0000 N   0  0  0  0  0  0  0  0  0
    0.7373   -1.5862    0.0000 C   0  0  0  0  0  0  0  0  0
    0.0229   -1.1737    0.0000 C   0  0  0  0  0  0  0  0  0
   -0.7618   -1.4286    0.0000 N   0  0  0  0  0  0  0  0  0
   -1.2467   -0.7612    0.0000 C   0  0  0  0  0  0  0  0  0
   -2.0717   -0.7612    0.0000 N   0  0  0  0  0  0  0  0  0
   -2.4842   -1.4757    0.0000 C   0  0  0  0  0  0  0  0  0
   -3.3092   -1.4757    0.0000 C   0  0  0  0  0  0  0  0  0
   -3.7217   -0.7612    0.0000 C   0  0  0  0  0  0  0  0  0
   -4.5467   -0.7612    0.0000 N   0  0  0  0  0  0  0  0  0
   -4.9592   -1.4757    0.0000 C   0  0  0  0  0  0  0  0  0
   -5.7842   -1.4757    0.0000 C   0  0  0  0  0  0  0  0  0
   -6.1967   -0.7612    0.0000 C   0  0  0  0  0  0  0  0  0
   -5.7842   -0.0467    0.0000 C   0  0  0  0  0  0  0  0  0
   -4.9592   -0.0467    0.0000 C   0  0  0  0  0  0  0  0  0
   -3.3092   -0.0467    0.0000 C   0  0  0  0  0  0  0  0  0
   -2.4842   -0.0467    0.0000 C   0  0  0  0  0  0  0  0  0
    2.1663    0.0638    0.0000 C   0  0  0  0  0  0  0  0  0
    2.1663    0.8888    0.0000 C   0  0  0  0  0  0  0  0  0
    2.8808    1.3013    0.0000 C   0  0  0  0  0  0  0  0  0
    3.5952    0.8888    0.0000 C   0  0  0  0  0  0  0  0  0
    3.5952    0.0638    0.0000 N   0  0  0  0  0  0  0  0  0
    2.8808   -0.3487    0.0000 C   0  0  0  0  0  0  0  0  0
    4.3097    1.3013    0.0000 N   0  0  0  0  0  0  0  0  0
    5.0242    0.8888    0.0000 C   0  0  0  0  0  0  0  0  0
    5.7386    1.3013    0.0000 O   0  0  0  0  0  0  0  0  0
    5.0242    0.0638    0.0000 C   0  0  0  0  0  0  0  0  0
  1  2  4  0  0  0  0
  1  9  4  0  0  0  0
  2  3  4  0  0  0  0
  2  7  4  0  0  0  0
  3  4  4  0  0  0  0
  4  5  4  0  0  0  0
  4 22  1  0  0  0  0
  5  6  4  0  0  0  0
  6  7  4  0  0  0  0
  7  8  4  0  0  0  0
  8  9  4  0  0  0  0
  9 10  1  0  0  0  0
 10 11  1  0  0  0  0
 10 21  1  0  0  0  0
 11 12  1  0  0  0  0
 12 13  1  0  0  0  0
 13 14  1  0  0  0  0
 13 20  1  0  0  0  0
 14 15  1  0  0  0  0
 14 19  1  0  0  0  0
 15 16  1  0  0  0  0
 16 17  1  0  0  0  0
 17 18  1  0  0  0  0
 18 19  1  0  0  0  0
 20 21  1  0  0  0  0
 22 23  4  0  0  0  0
 22 27  4  0  0  0  0
 23 24  4  0  0  0  0
 24 25  4  0  0  0  0
 25 26  4  0  0  0  0
 25 28  1  0  0  0  0
 26 27  4  0  0  0  0
 28 29  1  0  0  0  0
 29 30  2  0  0  0  0
 29 31  1  0  0  0  0
M  END
>  <Name_Molregno>
570883

>  <HISTAMINE H3>
7.57

$$$$
570891
  Marvin  02231216192D 0   1.00000     0.00000     0

 23 26  0  0  0  0  0  0  0  0999 V2000
    2.1720    0.0017    0.0000 S   0  0  0  0  0  0  0  0  0
    2.9566   -0.2533    0.0000 C   0  0  0  0  0  0  0  0  0
    3.6711    0.1592    0.0000 C   0  0  0  0  0  0  0  0  0
    4.3855   -0.2533    0.0000 C   0  0  0  0  0  0  0  0  0
    4.3855   -1.0783    0.0000 C   0  0  0  0  0  0  0  0  0
    3.6711   -1.4908    0.0000 N   0  0  0  0  0  0  0  0  0
    2.9566   -1.0783    0.0000 C   0  0  0  0  0  0  0  0  0
    2.1720   -1.3332    0.0000 N   0  0  0  0  0  0  0  0  0
    1.6870   -0.6658    0.0000 C   0  0  0  0  0  0  0  0  0
    0.8620   -0.6658    0.0000 N   0  0  0  0  0  0  0  0  0
    0.4495   -1.3802    0.0000 C   0  0  0  0  0  0  0  0  0
   -0.3755   -1.3802    0.0000 C   0  0  0  0  0  0  0  0  0
   -0.7880   -0.6658    0.0000 C   0  0  0  0  0  0  0  0  0
   -1.6130   -0.6658    0.0000 N   0  0  0  0  0  0  0  0  0
   -2.0255   -1.3802    0.0000 C   0  0  0  0  0  0  0  0  0
   -2.8505   -1.3802    0.0000 C   0  0  0  0  0  0  0  0  0
   -3.2630   -0.6658    0.0000 C   0  0  0  0  0  0  0  0  0
   -2.8505    0.0487    0.0000 C   0  0  0  0  0  0  0  0  0
   -2.0255    0.0487    0.0000 C   0  0  0  0  0  0  0  0  0
   -0.3755    0.0487    0.0000 C   0  0  0  0  0  0  0  0  0
    0.4495    0.0487    0.0000 C   0  0  0  0  0  0  0  0  0
    5.1000    0.1592    0.0000 C   0  0  0  0  0  0  0  0  0
    5.8145    0.5717    0.0000 N   0  0  0  0  0  0  0  0  0
  1  2  4  0  0  0  0
  1  9  4  0  0  0  0
  2  3  4  0  0  0  0
  2  7  4  0  0  0  0
  3  4  4  0  0  0  0
  4  5  4  0  0  0  0
  4 22  1  0  0  0  0
  5  6  4  0  0  0  0
  6  7  4  0  0  0  0
  7  8  4  0  0  0  0
  8  9  4  0  0  0  0
  9 10  1  0  0  0  0
 10 11  1  0  0  0  0
 10 21  1  0  0  0  0
 11 12  1  0  0  0  0
 12 13  1  0  0  0  0
 13 14  1  0  0  0  0
 13 20  1  0  0  0  0
 14 15  1  0  0  0  0
 14 19  1  0  0  0  0
 15 16  1  0  0  0  0
 16 17  1  0  0  0  0
 17 18  1  0  0  0  0
 18 19  1  0  0  0  0
 20 21  1  0  0  0  0
 22 23  3  0  0  0  0
M  END
>  <Name_Molregno>
570891

>  <HISTAMINE H3>
7.44

$$$$
570892
  Marvin  02231216192D 0   1.00000     0.00000     0

 28 32  0  0  0  0  0  0  0  0999 V2000
    0.4333    0.0663    0.0000 S   0  0  0  0  0  0  0  0  0
    1.2179   -0.1887    0.0000 C   0  0  0  0  0  0  0  0  0
    1.9324    0.2238    0.0000 C   0  0  0  0  0  0  0  0  0
    2.6468   -0.1887    0.0000 C   0  0  0  0  0  0  0  0  0
    2.6468   -1.0137    0.0000 N   0  0  0  0  0  0  0  0  0
    1.9324   -1.4262    0.0000 C   0  0  0  0  0  0  0  0  0
    1.2179   -1.0137    0.0000 C   0  0  0  0  0  0  0  0  0
    0.4333   -1.2686    0.0000 N   0  0  0  0  0  0  0  0  0
   -0.0516   -0.6012    0.0000 C   0  0  0  0  0  0  0  0  0
   -0.8766   -0.6012    0.0000 N   0  0  0  0  0  0  0  0  0
   -1.2891   -1.3157    0.0000 C   0  0  0  0  0  0  0  0  0
   -2.1141   -1.3157    0.0000 C   0  0  0  0  0  0  0  0  0
   -2.5266   -0.6012    0.0000 C   0  0  0  0  0  0  0  0  0
   -3.3516   -0.6012    0.0000 N   0  0  0  0  0  0  0  0  0
   -3.7641   -1.3157    0.0000 C   0  0  0  0  0  0  0  0  0
   -4.5891   -1.3157    0.0000 C   0  0  0  0  0  0  0  0  0
   -5.0016   -0.6012    0.0000 C   0  0  0  0  0  0  0  0  0
   -4.5891    0.1133    0.0000 C   0  0  0  0  0  0  0  0  0
   -3.7641    0.1133    0.0000 C   0  0  0  0  0  0  0  0  0
   -2.1141    0.1133    0.0000 C   0  0  0  0  0  0  0  0  0
   -1.2891    0.1133    0.0000 C   0  0  0  0  0  0  0  0  0
    3.3613    0.2238    0.0000 C   0  0  0  0  0  0  0  0  0
    3.3613    1.0488    0.0000 C   0  0  0  0  0  0  0  0  0
    4.0758    1.4613    0.0000 C   0  0  0  0  0  0  0  0  0
    4.7903    1.0488    0.0000 C   0  0  0  0  0  0  0  0  0
    5.5047    1.4613    0.0000 F   0  0  0  0  0  0  0  0  0
    4.7903    0.2238    0.0000 N   0  0  0  0  0  0  0  0  0
    4.0758   -0.1887    0.0000 C   0  0  0  0  0  0  0  0  0
  1  2  4  0  0  0  0
  1  9  4  0  0  0  0
  2  3  4  0  0  0  0
  2  7  4  0  0  0  0
  3  4  4  0  0  0  0
  4  5  4  0  0  0  0
  4 22  1  0  0  0  0
  5  6  4  0  0  0  0
  6  7  4  0  0  0  0
  7  8  4  0  0  0  0
  8  9  4  0  0  0  0
  9 10  1  0  0  0  0
 10 11  1  0  0  0  0
 10 21  1  0  0  0  0
 11 12  1  0  0  0  0
 12 13  1  0  0  0  0
 13 14  1  0  0  0  0
 13 20  1  0  0  0  0
 14 15  1  0  0  0  0
 14 19  1  0  0  0  0
 15 16  1  0  0  0  0
 16 17  1  0  0  0  0
 17 18  1  0  0  0  0
 18 19  1  0  0  0  0
 20 21  1  0  0  0  0
 22 23  4  0  0  0  0
 22 28  4  0  0  0  0
 23 24  4  0  0  0  0
 24 25  4  0  0  0  0
 25 26  1  0  0  0  0
 25 27  4  0  0  0  0
 27 28  4  0  0  0  0
M  END
>  <Name_Molregno>
570892

>  <HISTAMINE H3>
7.46

$$$$
570893
  Marvin  02231216192D 0   1.00000     0.00000     0

 27 31  0  0  0  0  0  0  0  0999 V2000
    0.7326    0.0044    0.0000 S   0  0  0  0  0  0  0  0  0
    1.5172   -0.2506    0.0000 C   0  0  0  0  0  0  0  0  0
    2.2317    0.1619    0.0000 C   0  0  0  0  0  0  0  0  0
    2.9461   -0.2506    0.0000 C   0  0  0  0  0  0  0  0  0
    2.9461   -1.0756    0.0000 N   0  0  0  0  0  0  0  0  0
    2.2317   -1.4881    0.0000 C   0  0  0  0  0  0  0  0  0
    1.5172   -1.0756    0.0000 C   0  0  0  0  0  0  0  0  0
    0.7326   -1.3305    0.0000 N   0  0  0  0  0  0  0  0  0
    0.2476   -0.6631    0.0000 C   0  0  0  0  0  0  0  0  0
   -0.5774   -0.6631    0.0000 N   0  0  0  0  0  0  0  0  0
   -0.9899   -1.3775    0.0000 C   0  0  0  0  0  0  0  0  0
   -1.8149   -1.3775    0.0000 C   0  0  0  0  0  0  0  0  0
   -2.2274   -0.6631    0.0000 C   0  0  0  0  0  0  0  0  0
   -3.0524   -0.6631    0.0000 N   0  0  0  0  0  0  0  0  0
   -3.4649   -1.3775    0.0000 C   0  0  0  0  0  0  0  0  0
   -4.2899   -1.3775    0.0000 C   0  0  0  0  0  0  0  0  0
   -4.7024   -0.6631    0.0000 C   0  0  0  0  0  0  0  0  0
   -4.2899    0.0514    0.0000 C   0  0  0  0  0  0  0  0  0
   -3.4649    0.0514    0.0000 C   0  0  0  0  0  0  0  0  0
   -1.8149    0.0514    0.0000 C   0  0  0  0  0  0  0  0  0
   -0.9899    0.0514    0.0000 C   0  0  0  0  0  0  0  0  0
    3.6606    0.1619    0.0000 C   0  0  0  0  0  0  0  0  0
    3.6606    0.9869    0.0000 C   0  0  0  0  0  0  0  0  0
    4.3751    1.3994    0.0000 N   0  0  0  0  0  0  0  0  0
    5.0895    0.9869    0.0000 C   0  0  0  0  0  0  0  0  0
    5.0895    0.1619    0.0000 N   0  0  0  0  0  0  0  0  0
    4.3751   -0.2506    0.0000 C   0  0  0  0  0  0  0  0  0
  1  2  4  0  0  0  0
  1  9  4  0  0  0  0
  2  3  4  0  0  0  0
  2  7  4  0  0  0  0
  3  4  4  0  0  0  0
  4  5  4  0  0  0  0
  4 22  1  0  0  0  0
  5  6  4  0  0  0  0
  6  7  4  0  0  0  0
  7  8  4  0  0  0  0
  8  9  4  0  0  0  0
  9 10  1  0  0  0  0
 10 11  1  0  0  0  0
 10 21  1  0  0  0  0
 11 12  1  0  0  0  0
 12 13  1  0  0  0  0
 13 14  1  0  0  0  0
 13 20  1  0  0  0  0
 14 15  1  0  0  0  0
 14 19  1  0  0  0  0
 15 16  1  0  0  0  0
 16 17  1  0  0  0  0
 17 18  1  0  0  0  0
 18 19  1  0  0  0  0
 20 21  1  0  0  0  0
 22 23  4  0  0  0  0
 22 27  4  0  0  0  0
 23 24  4  0  0  0  0
 24 25  4  0  0  0  0
 25 26  4  0  0  0  0
 26 27  4  0  0  0  0
M  END
>  <Name_Molregno>
570893

>  <HISTAMINE H3>
7.6

$$$$
570904
  Marvin  02231216192D 0   1.00000     0.00000     0

 29 33  0  0  0  0  0  0  0  0999 V2000
   -0.0090    0.0059    0.0000 S   0  0  0  0  0  0  0  0  0
    0.7757   -0.2490    0.0000 C   0  0  0  0  0  0  0  0  0
    1.4901    0.1635    0.0000 C   0  0  0  0  0  0  0  0  0
    2.2046   -0.2490    0.0000 C   0  0  0  0  0  0  0  0  0
    2.2046   -1.0740    0.0000 N   0  0  0  0  0  0  0  0  0
    1.4901   -1.4865    0.0000 C   0  0  0  0  0  0  0  0  0
    0.7757   -1.0740    0.0000 C   0  0  0  0  0  0  0  0  0
   -0.0090   -1.3290    0.0000 N   0  0  0  0  0  0  0  0  0
   -0.4939   -0.6615    0.0000 C   0  0  0  0  0  0  0  0  0
   -1.3189   -0.6615    0.0000 N   0  0  0  0  0  0  0  0  0
   -1.7314   -1.3760    0.0000 C   0  0  0  0  0  0  0  0  0
   -2.5564   -1.3760    0.0000 C   0  0  0  0  0  0  0  0  0
   -2.9689   -0.6615    0.0000 C   0  0  0  0  0  0  0  0  0
   -3.7939   -0.6615    0.0000 N   0  0  0  0  0  0  0  0  0
   -4.2064   -1.3760    0.0000 C   0  0  0  0  0  0  0  0  0
   -5.0314   -1.3760    0.0000 C   0  0  0  0  0  0  0  0  0
   -5.4439   -0.6615    0.0000 C   0  0  0  0  0  0  0  0  0
   -5.0314    0.0530    0.0000 C   0  0  0  0  0  0  0  0  0
   -4.2064    0.0530    0.0000 C   0  0  0  0  0  0  0  0  0
   -2.5564    0.0530    0.0000 C   0  0  0  0  0  0  0  0  0
   -1.7314    0.0530    0.0000 C   0  0  0  0  0  0  0  0  0
    2.9191    0.1635    0.0000 C   0  0  0  0  0  0  0  0  0
    2.9191    0.9885    0.0000 C   0  0  0  0  0  0  0  0  0
    3.6335    1.4010    0.0000 C   0  0  0  0  0  0  0  0  0
    4.3480    0.9885    0.0000 C   0  0  0  0  0  0  0  0  0
    4.3480    0.1635    0.0000 C   0  0  0  0  0  0  0  0  0
    3.6335   -0.2490    0.0000 C   0  0  0  0  0  0  0  0  0
    5.0625    1.4010    0.0000 C   0  0  0  0  0  0  0  0  0
    5.7769    1.8135    0.0000 N   0  0  0  0  0  0  0  0  0
  1  2  4  0  0  0  0
  1  9  4  0  0  0  0
  2  3  4  0  0  0  0
  2  7  4  0  0  0  0
  3  4  4  0  0  0  0
  4  5  4  0  0  0  0
  4 22  1  0  0  0  0
  5  6  4  0  0  0  0
  6  7  4  0  0  0  0
  7  8  4  0  0  0  0
  8  9  4  0  0  0  0
  9 10  1  0  0  0  0
 10 11  1  0  0  0  0
 10 21  1  0  0  0  0
 11 12  1  0  0  0  0
 12 13  1  0  0  0  0
 13 14  1  0  0  0  0
 13 20  1  0  0  0  0
 14 15  1  0  0  0  0
 14 19  1  0  0  0  0
 15 16  1  0  0  0  0
 16 17  1  0  0  0  0
 17 18  1  0  0  0  0
 18 19  1  0  0  0  0
 20 21  1  0  0  0  0
 22 23  4  0  0  0  0
 22 27  4  0  0  0  0
 23 24  4  0  0  0  0
 24 25  4  0  0  0  0
 25 26  4  0  0  0  0
 25 28  1  0  0  0  0
 26 27  4  0  0  0  0
 28 29  3  0  0  0  0
M  END
>  <Name_Molregno>
570904

>  <HISTAMINE H3>
6.9

$$$$
570905
  Marvin  02231216192D 0   1.00000     0.00000     0

 30 34  0  0  0  0  0  0  0  0999 V2000
   -0.1687   -0.2363    0.0000 S   0  0  0  0  0  0  0  0  0
    0.6159   -0.4912    0.0000 C   0  0  0  0  0  0  0  0  0
    1.3303   -0.0787    0.0000 C   0  0  0  0  0  0  0  0  0
    2.0448   -0.4912    0.0000 C   0  0  0  0  0  0  0  0  0
    2.0448   -1.3162    0.0000 N   0  0  0  0  0  0  0  0  0
    1.3303   -1.7287    0.0000 C   0  0  0  0  0  0  0  0  0
    0.6159   -1.3162    0.0000 C   0  0  0  0  0  0  0  0  0
   -0.1687   -1.5712    0.0000 N   0  0  0  0  0  0  0  0  0
   -0.6537   -0.9037    0.0000 C   0  0  0  0  0  0  0  0  0
   -1.4787   -0.9037    0.0000 N   0  0  0  0  0  0  0  0  0
   -1.8912   -1.6182    0.0000 C   0  0  0  0  0  0  0  0  0
   -2.7162   -1.6182    0.0000 C   0  0  0  0  0  0  0  0  0
   -3.1287   -0.9037    0.0000 C   0  0  0  0  0  0  0  0  0
   -3.9537   -0.9037    0.0000 N   0  0  0  0  0  0  0  0  0
   -4.3662   -1.6182    0.0000 C   0  0  0  0  0  0  0  0  0
   -5.1912   -1.6182    0.0000 C   0  0  0  0  0  0  0  0  0
   -5.6037   -0.9037    0.0000 C   0  0  0  0  0  0  0  0  0
   -5.1912   -0.1893    0.0000 C   0  0  0  0  0  0  0  0  0
   -4.3662   -0.1893    0.0000 C   0  0  0  0  0  0  0  0  0
   -2.7162   -0.1893    0.0000 C   0  0  0  0  0  0  0  0  0
   -1.8912   -0.1893    0.0000 C   0  0  0  0  0  0  0  0  0
    2.7593   -0.0787    0.0000 C   0  0  0  0  0  0  0  0  0
    2.7593    0.7463    0.0000 C   0  0  0  0  0  0  0  0  0
    3.4738    1.1588    0.0000 C   0  0  0  0  0  0  0  0  0
    3.4738    1.9838    0.0000 C   0  0  0  0  0  0  0  0  0
    3.4738    2.8088    0.0000 N   0  0  0  0  0  0  0  0  0
    4.1882    0.7463    0.0000 C   0  0  0  0  0  0  0  0  0
    4.9027    1.1588    0.0000 F   0  0  0  0  0  0  0  0  0
    4.1882   -0.0787    0.0000 C   0  0  0  0  0  0  0  0  0
    3.4738   -0.4912    0.0000 C   0  0  0  0  0  0  0  0  0
  1  2  4  0  0  0  0
  1  9  4  0  0  0  0
  2  3  4  0  0  0  0
  2  7  4  0  0  0  0
  3  4  4  0  0  0  0
  4  5  4  0  0  0  0
  4 22  1  0  0  0  0
  5  6  4  0  0  0  0
  6  7  4  0  0  0  0
  7  8  4  0  0  0  0
  8  9  4  0  0  0  0
  9 10  1  0  0  0  0
 10 11  1  0  0  0  0
 10 21  1  0  0  0  0
 11 12  1  0  0  0  0
 12 13  1  0  0  0  0
 13 14  1  0  0  0  0
 13 20  1  0  0  0  0
 14 15  1  0  0  0  0
 14 19  1  0  0  0  0
 15 16  1  0  0  0  0
 16 17  1  0  0  0  0
 17 18  1  0  0  0  0
 18 19  1  0  0  0  0
 20 21  1  0  0  0  0
 22 23  4  0  0  0  0
 22 30  4  0  0  0  0
 23 24  4  0  0  0  0
 24 25  1  0  0  0  0
 24 27  4  0  0  0  0
 25 26  3  0  0  0  0
 27 28  1  0  0  0  0
 27 29  4  0  0  0  0
 29 30  4  0  0  0  0
M  END
>  <Name_Molregno>
570905

>  <HISTAMINE H3>
7.34

$$$$
570906
  Marvin  02231216192D 0   1.00000     0.00000     0

 28 32  0  0  0  0  0  0  0  0999 V2000
    0.4333    0.0663    0.0000 S   0  0  0  0  0  0  0  0  0
    1.2179   -0.1887    0.0000 C   0  0  0  0  0  0  0  0  0
    1.9324    0.2238    0.0000 C   0  0  0  0  0  0  0  0  0
    2.6468   -0.1887    0.0000 C   0  0  0  0  0  0  0  0  0
    2.6468   -1.0137    0.0000 N   0  0  0  0  0  0  0  0  0
    1.9324   -1.4262    0.0000 C   0  0  0  0  0  0  0  0  0
    1.2179   -1.0137    0.0000 C   0  0  0  0  0  0  0  0  0
    0.4333   -1.2686    0.0000 N   0  0  0  0  0  0  0  0  0
   -0.0516   -0.6012    0.0000 C   0  0  0  0  0  0  0  0  0
   -0.8766   -0.6012    0.0000 N   0  0  0  0  0  0  0  0  0
   -1.2891   -1.3157    0.0000 C   0  0  0  0  0  0  0  0  0
   -2.1141   -1.3157    0.0000 C   0  0  0  0  0  0  0  0  0
   -2.5266   -0.6012    0.0000 C   0  0  0  0  0  0  0  0  0
   -3.3516   -0.6012    0.0000 N   0  0  0  0  0  0  0  0  0
   -3.7641   -1.3157    0.0000 C   0  0  0  0  0  0  0  0  0
   -4.5891   -1.3157    0.0000 C   0  0  0  0  0  0  0  0  0
   -5.0016   -0.6012    0.0000 C   0  0  0  0  0  0  0  0  0
   -4.5891    0.1133    0.0000 C   0  0  0  0  0  0  0  0  0
   -3.7641    0.1133    0.0000 C   0  0  0  0  0  0  0  0  0
   -2.1141    0.1133    0.0000 C   0  0  0  0  0  0  0  0  0
   -1.2891    0.1133    0.0000 C   0  0  0  0  0  0  0  0  0
    3.3613    0.2238    0.0000 C   0  0  0  0  0  0  0  0  0
    3.3613    1.0488    0.0000 N   0  0  0  0  0  0  0  0  0
    4.0758    1.4613    0.0000 C   0  0  0  0  0  0  0  0  0
    4.7903    1.0488    0.0000 C   0  0  0  0  0  0  0  0  0
    4.7903    0.2238    0.0000 N   0  0  0  0  0  0  0  0  0
    4.0758   -0.1887    0.0000 C   0  0  0  0  0  0  0  0  0
    5.5047    1.4613    0.0000 N   0  0  0  0  0  0  0  0  0
  1  2  4  0  0  0  0
  1  9  4  0  0  0  0
  2  3  4  0  0  0  0
  2  7  4  0  0  0  0
  3  4  4  0  0  0  0
  4  5  4  0  0  0  0
  4 22  1  0  0  0  0
  5  6  4  0  0  0  0
  6  7  4  0  0  0  0
  7  8  4  0  0  0  0
  8  9  4  0  0  0  0
  9 10  1  0  0  0  0
 10 11  1  0  0  0  0
 10 21  1  0  0  0  0
 11 12  1  0  0  0  0
 12 13  1  0  0  0  0
 13 14  1  0  0  0  0
 13 20  1  0  0  0  0
 14 15  1  0  0  0  0
 14 19  1  0  0  0  0
 15 16  1  0  0  0  0
 16 17  1  0  0  0  0
 17 18  1  0  0  0  0
 18 19  1  0  0  0  0
 20 21  1  0  0  0  0
 22 23  4  0  0  0  0
 22 27  4  0  0  0  0
 23 24  4  0  0  0  0
 24 25  4  0  0  0  0
 25 26  4  0  0  0  0
 25 28  1  0  0  0  0
 26 27  4  0  0  0  0
M  END
>  <Name_Molregno>
570906

>  <HISTAMINE H3>
7.77

$$$$
570923
  Marvin  02231216192D 0   1.00000     0.00000     0

 28 32  0  0  0  0  0  0  0  0999 V2000
    0.4474   -0.0561    0.0000 S   0  0  0  0  0  0  0  0  0
    1.2320   -0.3110    0.0000 C   0  0  0  0  0  0  0  0  0
    1.9465    0.1015    0.0000 C   0  0  0  0  0  0  0  0  0
    2.6610   -0.3110    0.0000 C   0  0  0  0  0  0  0  0  0
    2.6610   -1.1360    0.0000 N   0  0  0  0  0  0  0  0  0
    1.9465   -1.5485    0.0000 C   0  0  0  0  0  0  0  0  0
    1.2320   -1.1360    0.0000 C   0  0  0  0  0  0  0  0  0
    0.4474   -1.3910    0.0000 N   0  0  0  0  0  0  0  0  0
   -0.0375   -0.7235    0.0000 C   0  0  0  0  0  0  0  0  0
   -0.8625   -0.7235    0.0000 N   0  0  0  0  0  0  0  0  0
   -1.2750   -1.4380    0.0000 C   0  0  0  0  0  0  0  0  0
   -2.1000   -1.4380    0.0000 C   0  0  0  0  0  0  0  0  0
   -2.5125   -0.7235    0.0000 C   0  0  0  0  0  0  0  0  0
   -3.3375   -0.7235    0.0000 N   0  0  0  0  0  0  0  0  0
   -3.7500   -1.4380    0.0000 C   0  0  0  0  0  0  0  0  0
   -4.5750   -1.4380    0.0000 C   0  0  0  0  0  0  0  0  0
   -4.9875   -0.7235    0.0000 C   0  0  0  0  0  0  0  0  0
   -4.5750   -0.0090    0.0000 C   0  0  0  0  0  0  0  0  0
   -3.7500   -0.0090    0.0000 C   0  0  0  0  0  0  0  0  0
   -2.1000   -0.0090    0.0000 C   0  0  0  0  0  0  0  0  0
   -1.2750   -0.0090    0.0000 C   0  0  0  0  0  0  0  0  0
    3.3755    0.1015    0.0000 C   0  0  0  0  0  0  0  0  0
    3.3755    0.9265    0.0000 C   0  0  0  0  0  0  0  0  0
    4.0899    1.3390    0.0000 C   0  0  0  0  0  0  0  0  0
    4.0899    2.1640    0.0000 F   0  0  0  0  0  0  0  0  0
    4.8044    0.9265    0.0000 N   0  0  0  0  0  0  0  0  0
    4.8044    0.1015    0.0000 C   0  0  0  0  0  0  0  0  0
    4.0899   -0.3110    0.0000 C   0  0  0  0  0  0  0  0  0
  1  2  4  0  0  0  0
  1  9  4  0  0  0  0
  2  3  4  0  0  0  0
  2  7  4  0  0  0  0
  3  4  4  0  0  0  0
  4  5  4  0  0  0  0
  4 22  1  0  0  0  0
  5  6  4  0  0  0  0
  6  7  4  0  0  0  0
  7  8  4  0  0  0  0
  8  9  4  0  0  0  0
  9 10  1  0  0  0  0
 10 11  1  0  0  0  0
 10 21  1  0  0  0  0
 11 12  1  0  0  0  0
 12 13  1  0  0  0  0
 13 14  1  0  0  0  0
 13 20  1  0  0  0  0
 14 15  1  0  0  0  0
 14 19  1  0  0  0  0
 15 16  1  0  0  0  0
 16 17  1  0  0  0  0
 17 18  1  0  0  0  0
 18 19  1  0  0  0  0
 20 21  1  0  0  0  0
 22 23  4  0  0  0  0
 22 28  4  0  0  0  0
 23 24  4  0  0  0  0
 24 25  1  0  0  0  0
 24 26  4  0  0  0  0
 26 27  4  0  0  0  0
 27 28  4  0  0  0  0
M  END
>  <Name_Molregno>
570923

>  <HISTAMINE H3>
7.36

$$$$
570934
  Marvin  02231216192D 0   1.00000     0.00000     0

 30 34  0  0  0  0  0  0  0  0999 V2000
   -0.2213   -0.2762    0.0000 S   0  0  0  0  0  0  0  0  0
    0.5634   -0.5311    0.0000 C   0  0  0  0  0  0  0  0  0
    1.2778   -0.1186    0.0000 C   0  0  0  0  0  0  0  0  0
    1.9923   -0.5311    0.0000 C   0  0  0  0  0  0  0  0  0
    1.9923   -1.3561    0.0000 N   0  0  0  0  0  0  0  0  0
    1.2778   -1.7686    0.0000 C   0  0  0  0  0  0  0  0  0
    0.5634   -1.3561    0.0000 C   0  0  0  0  0  0  0  0  0
   -0.2213   -1.6110    0.0000 N   0  0  0  0  0  0  0  0  0
   -0.7062   -0.9436    0.0000 C   0  0  0  0  0  0  0  0  0
   -1.5312   -0.9436    0.0000 N   0  0  0  0  0  0  0  0  0
   -1.9437   -1.6581    0.0000 C   0  0  0  0  0  0  0  0  0
   -2.7687   -1.6581    0.0000 C   0  0  0  0  0  0  0  0  0
   -3.1812   -0.9436    0.0000 C   0  0  0  0  0  0  0  0  0
   -4.0062   -0.9436    0.0000 N   0  0  0  0  0  0  0  0  0
   -4.4187   -1.6581    0.0000 C   0  0  0  0  0  0  0  0  0
   -5.2437   -1.6581    0.0000 C   0  0  0  0  0  0  0  0  0
   -5.6562   -0.9436    0.0000 C   0  0  0  0  0  0  0  0  0
   -5.2437   -0.2291    0.0000 C   0  0  0  0  0  0  0  0  0
   -4.4187   -0.2291    0.0000 C   0  0  0  0  0  0  0  0  0
   -2.7687   -0.2291    0.0000 C   0  0  0  0  0  0  0  0  0
   -1.9437   -0.2291    0.0000 C   0  0  0  0  0  0  0  0  0
    2.7068   -0.1186    0.0000 C   0  0  0  0  0  0  0  0  0
    2.7068    0.7064    0.0000 C   0  0  0  0  0  0  0  0  0
    3.4212    1.1189    0.0000 C   0  0  0  0  0  0  0  0  0
    4.1357    0.7064    0.0000 C   0  0  0  0  0  0  0  0  0
    4.1357   -0.1186    0.0000 C   0  0  0  0  0  0  0  0  0
    3.4212   -0.5311    0.0000 C   0  0  0  0  0  0  0  0  0
    3.4212    1.9439    0.0000 C   0  0  0  0  0  0  0  0  0
    2.7068    2.3564    0.0000 O   0  0  0  0  0  0  0  0  0
    4.1357    2.3564    0.0000 C   0  0  0  0  0  0  0  0  0
  1  2  4  0  0  0  0
  1  9  4  0  0  0  0
  2  3  4  0  0  0  0
  2  7  4  0  0  0  0
  3  4  4  0  0  0  0
  4  5  4  0  0  0  0
  4 22  1  0  0  0  0
  5  6  4  0  0  0  0
  6  7  4  0  0  0  0
  7  8  4  0  0  0  0
  8  9  4  0  0  0  0
  9 10  1  0  0  0  0
 10 11  1  0  0  0  0
 10 21  1  0  0  0  0
 11 12  1  0  0  0  0
 12 13  1  0  0  0  0
 13 14  1  0  0  0  0
 13 20  1  0  0  0  0
 14 15  1  0  0  0  0
 14 19  1  0  0  0  0
 15 16  1  0  0  0  0
 16 17  1  0  0  0  0
 17 18  1  0  0  0  0
 18 19  1  0  0  0  0
 20 21  1  0  0  0  0
 22 23  4  0  0  0  0
 22 27  4  0  0  0  0
 23 24  4  0  0  0  0
 24 25  4  0  0  0  0
 24 28  1  0  0  0  0
 25 26  4  0  0  0  0
 26 27  4  0  0  0  0
 28 29  2  0  0  0  0
 28 30  1  0  0  0  0
M  END
>  <Name_Molregno>
570934

>  <HISTAMINE H3>
7.1

$$$$
570935
  Marvin  02231216192D 0   1.00000     0.00000     0

 29 33  0  0  0  0  0  0  0  0999 V2000
    0.1364   -0.1617    0.0000 S   0  0  0  0  0  0  0  0  0
    0.9210   -0.4166    0.0000 C   0  0  0  0  0  0  0  0  0
    1.6355   -0.0041    0.0000 C   0  0  0  0  0  0  0  0  0
    2.3499   -0.4166    0.0000 C   0  0  0  0  0  0  0  0  0
    2.3499   -1.2416    0.0000 N   0  0  0  0  0  0  0  0  0
    1.6355   -1.6541    0.0000 C   0  0  0  0  0  0  0  0  0
    0.9210   -1.2416    0.0000 C   0  0  0  0  0  0  0  0  0
    0.1364   -1.4966    0.0000 N   0  0  0  0  0  0  0  0  0
   -0.3486   -0.8291    0.0000 C   0  0  0  0  0  0  0  0  0
   -1.1736   -0.8291    0.0000 N   0  0  0  0  0  0  0  0  0
   -1.5861   -1.5436    0.0000 C   0  0  0  0  0  0  0  0  0
   -2.4111   -1.5436    0.0000 C   0  0  0  0  0  0  0  0  0
   -2.8236   -0.8291    0.0000 C   0  0  0  0  0  0  0  0  0
   -3.6486   -0.8291    0.0000 N   0  0  0  0  0  0  0  0  0
   -4.0611   -1.5436    0.0000 C   0  0  0  0  0  0  0  0  0
   -4.8861   -1.5436    0.0000 C   0  0  0  0  0  0  0  0  0
   -5.2986   -0.8291    0.0000 C   0  0  0  0  0  0  0  0  0
   -4.8861   -0.1146    0.0000 C   0  0  0  0  0  0  0  0  0
   -4.0611   -0.1146    0.0000 C   0  0  0  0  0  0  0  0  0
   -2.4111   -0.1146    0.0000 C   0  0  0  0  0  0  0  0  0
   -1.5861   -0.1146    0.0000 C   0  0  0  0  0  0  0  0  0
    3.0644   -0.0041    0.0000 C   0  0  0  0  0  0  0  0  0
    3.0644    0.8209    0.0000 C   0  0  0  0  0  0  0  0  0
    3.7789    1.2334    0.0000 C   0  0  0  0  0  0  0  0  0
    3.7789    2.0584    0.0000 O   0  0  0  0  0  0  0  0  0
    3.0644    2.4709    0.0000 C   0  0  0  0  0  0  0  0  0
    4.4933    0.8209    0.0000 C   0  0  0  0  0  0  0  0  0
    4.4933   -0.0041    0.0000 C   0  0  0  0  0  0  0  0  0
    3.7789   -0.4166    0.0000 C   0  0  0  0  0  0  0  0  0
  1  2  4  0  0  0  0
  1  9  4  0  0  0  0
  2  3  4  0  0  0  0
  2  7  4  0  0  0  0
  3  4  4  0  0  0  0
  4  5  4  0  0  0  0
  4 22  1  0  0  0  0
  5  6  4  0  0  0  0
  6  7  4  0  0  0  0
  7  8  4  0  0  0  0
  8  9  4  0  0  0  0
  9 10  1  0  0  0  0
 10 11  1  0  0  0  0
 10 21  1  0  0  0  0
 11 12  1  0  0  0  0
 12 13  1  0  0  0  0
 13 14  1  0  0  0  0
 13 20  1  0  0  0  0
 14 15  1  0  0  0  0
 14 19  1  0  0  0  0
 15 16  1  0  0  0  0
 16 17  1  0  0  0  0
 17 18  1  0  0  0  0
 18 19  1  0  0  0  0
 20 21  1  0  0  0  0
 22 23  4  0  0  0  0
 22 29  4  0  0  0  0
 23 24  4  0  0  0  0
 24 25  1  0  0  0  0
 24 27  4  0  0  0  0
 25 26  1  0  0  0  0
 27 28  4  0  0  0  0
 28 29  4  0  0  0  0
M  END
>  <Name_Molregno>
570935

>  <HISTAMINE H3>
6.64

$$$$
570936
  Marvin  02231216192D 0   1.00000     0.00000     0

 29 33  0  0  0  0  0  0  0  0999 V2000
    0.0208   -0.0356    0.0000 S   0  0  0  0  0  0  0  0  0
    0.8054   -0.2905    0.0000 C   0  0  0  0  0  0  0  0  0
    1.5199    0.1220    0.0000 C   0  0  0  0  0  0  0  0  0
    2.2343   -0.2905    0.0000 C   0  0  0  0  0  0  0  0  0
    2.2343   -1.1155    0.0000 C   0  0  0  0  0  0  0  0  0
    1.5199   -1.5280    0.0000 N   0  0  0  0  0  0  0  0  0
    0.8054   -1.1155    0.0000 C   0  0  0  0  0  0  0  0  0
    0.0208   -1.3705    0.0000 N   0  0  0  0  0  0  0  0  0
   -0.4642   -0.7030    0.0000 C   0  0  0  0  0  0  0  0  0
   -1.2892   -0.7030    0.0000 N   0  0  0  0  0  0  0  0  0
   -1.7017   -1.4175    0.0000 C   0  0  0  0  0  0  0  0  0
   -2.5267   -1.4175    0.0000 C   0  0  0  0  0  0  0  0  0
   -2.9392   -0.7030    0.0000 C   0  0  0  0  0  0  0  0  0
   -3.7642   -0.7030    0.0000 N   0  0  0  0  0  0  0  0  0
   -4.1767   -1.4175    0.0000 C   0  0  0  0  0  0  0  0  0
   -5.0017   -1.4175    0.0000 C   0  0  0  0  0  0  0  0  0
   -5.4142   -0.7030    0.0000 C   0  0  0  0  0  0  0  0  0
   -5.0017    0.0114    0.0000 C   0  0  0  0  0  0  0  0  0
   -4.1767    0.0114    0.0000 C   0  0  0  0  0  0  0  0  0
   -2.5267    0.0114    0.0000 C   0  0  0  0  0  0  0  0  0
   -1.7017    0.0114    0.0000 C   0  0  0  0  0  0  0  0  0
    2.9488    0.1220    0.0000 C   0  0  0  0  0  0  0  0  0
    2.9488    0.9470    0.0000 C   0  0  0  0  0  0  0  0  0
    3.6633    1.3595    0.0000 C   0  0  0  0  0  0  0  0  0
    4.3777    0.9470    0.0000 C   0  0  0  0  0  0  0  0  0
    5.0922    1.3595    0.0000 O   0  0  0  0  0  0  0  0  0
    5.0922    2.1845    0.0000 C   0  0  0  0  0  0  0  0  0
    4.3777    0.1220    0.0000 N   0  0  0  0  0  0  0  0  0
    3.6633   -0.2905    0.0000 C   0  0  0  0  0  0  0  0  0
  1  2  4  0  0  0  0
  1  9  4  0  0  0  0
  2  3  4  0  0  0  0
  2  7  4  0  0  0  0
  3  4  4  0  0  0  0
  4  5  4  0  0  0  0
  4 22  1  0  0  0  0
  5  6  4  0  0  0  0
  6  7  4  0  0  0  0
  7  8  4  0  0  0  0
  8  9  4  0  0  0  0
  9 10  1  0  0  0  0
 10 11  1  0  0  0  0
 10 21  1  0  0  0  0
 11 12  1  0  0  0  0
 12 13  1  0  0  0  0
 13 14  1  0  0  0  0
 13 20  1  0  0  0  0
 14 15  1  0  0  0  0
 14 19  1  0  0  0  0
 15 16  1  0  0  0  0
 16 17  1  0  0  0  0
 17 18  1  0  0  0  0
 18 19  1  0  0  0  0
 20 21  1  0  0  0  0
 22 23  4  0  0  0  0
 22 29  4  0  0  0  0
 23 24  4  0  0  0  0
 24 25  4  0  0  0  0
 25 26  1  0  0  0  0
 25 28  4  0  0  0  0
 26 27  1  0  0  0  0
 28 29  4  0  0  0  0
M  END
>  <Name_Molregno>
570936

>  <HISTAMINE H3>
7.46

$$$$
570944
  Marvin  02231216192D 0   1.00000     0.00000     0

 22 25  0  0  0  0  0  0  0  0999 V2000
    8.3910   -0.0537    0.0000 Cl  0  0  0  0  0  0  0  0  0
    7.6765    0.3588    0.0000 C   0  0  0  0  0  0  0  0  0
    6.9621   -0.0537    0.0000 C   0  0  0  0  0  0  0  0  0
    6.2476    0.3588    0.0000 C   0  0  0  0  0  0  0  0  0
    5.4630    0.1039    0.0000 S   0  0  0  0  0  0  0  0  0
    4.9780    0.7713    0.0000 C   0  0  0  0  0  0  0  0  0
    5.4630    1.4388    0.0000 N   0  0  0  0  0  0  0  0  0
    6.2476    1.1838    0.0000 C   0  0  0  0  0  0  0  0  0
    6.9621    1.5963    0.0000 N   0  0  0  0  0  0  0  0  0
    7.6765    1.1838    0.0000 C   0  0  0  0  0  0  0  0  0
    4.1530    0.7713    0.0000 N   0  0  0  0  0  0  0  0  0
    3.7405    0.0569    0.0000 C   0  0  0  0  0  0  0  0  0
    2.9155    0.0569    0.0000 C   0  0  0  0  0  0  0  0  0
    2.5030    0.7713    0.0000 C   0  0  0  0  0  0  0  0  0
    1.6780    0.7713    0.0000 N   0  0  0  0  0  0  0  0  0
    1.2655    0.0569    0.0000 C   0  0  0  0  0  0  0  0  0
    0.4405    0.0569    0.0000 C   0  0  0  0  0  0  0  0  0
    0.0280    0.7713    0.0000 C   0  0  0  0  0  0  0  0  0
    0.4405    1.4858    0.0000 C   0  0  0  0  0  0  0  0  0
    1.2655    1.4858    0.0000 C   0  0  0  0  0  0  0  0  0
    2.9155    1.4858    0.0000 C   0  0  0  0  0  0  0  0  0
    3.7405    1.4858    0.0000 C   0  0  0  0  0  0  0  0  0
  1  2  1  0  0  0  0
  2  3  4  0  0  0  0
  2 10  4  0  0  0  0
  3  4  4  0  0  0  0
  4  5  4  0  0  0  0
  4  8  4  0  0  0  0
  5  6  4  0  0  0  0
  6  7  4  0  0  0  0
  6 11  1  0  0  0  0
  7  8  4  0  0  0  0
  8  9  4  0  0  0  0
  9 10  4  0  0  0  0
 11 12  1  0  0  0  0
 11 22  1  0  0  0  0
 12 13  1  0  0  0  0
 13 14  1  0  0  0  0
 14 15  1  0  0  0  0
 14 21  1  0  0  0  0
 15 16  1  0  0  0  0
 15 20  1  0  0  0  0
 16 17  1  0  0  0  0
 17 18  1  0  0  0  0
 18 19  1  0  0  0  0
 19 20  1  0  0  0  0
 21 22  1  0  0  0  0
M  END
>  <Name_Molregno>
570944

>  <HISTAMINE H3>
6.9

$$$$
570945
  Marvin  02231216192D 0   1.00000     0.00000     0

 25 28  0  0  0  0  0  0  0  0999 V2000
    1.3624    0.0035    0.0000 S   0  0  0  0  0  0  0  0  0
    2.1471   -0.2515    0.0000 C   0  0  0  0  0  0  0  0  0
    2.8615    0.1610    0.0000 C   0  0  0  0  0  0  0  0  0
    3.5760   -0.2515    0.0000 C   0  0  0  0  0  0  0  0  0
    4.2905    0.1610    0.0000 N   0  0  0  0  0  0  0  0  0
    5.0049   -0.2515    0.0000 C   0  0  0  0  0  0  0  0  0
    5.7194    0.1610    0.0000 O   0  0  0  0  0  0  0  0  0
    5.0049   -1.0765    0.0000 C   0  0  0  0  0  0  0  0  0
    3.5760   -1.0765    0.0000 C   0  0  0  0  0  0  0  0  0
    2.8615   -1.4890    0.0000 N   0  0  0  0  0  0  0  0  0
    2.1471   -1.0765    0.0000 C   0  0  0  0  0  0  0  0  0
    1.3624   -1.3314    0.0000 N   0  0  0  0  0  0  0  0  0
    0.8775   -0.6640    0.0000 C   0  0  0  0  0  0  0  0  0
    0.0525   -0.6640    0.0000 N   0  0  0  0  0  0  0  0  0
   -0.3600   -1.3784    0.0000 C   0  0  0  0  0  0  0  0  0
   -1.1850   -1.3784    0.0000 C   0  0  0  0  0  0  0  0  0
   -1.5975   -0.6640    0.0000 C   0  0  0  0  0  0  0  0  0
   -2.4225   -0.6640    0.0000 N   0  0  0  0  0  0  0  0  0
   -2.8350   -1.3784    0.0000 C   0  0  0  0  0  0  0  0  0
   -3.6600   -1.3784    0.0000 C   0  0  0  0  0  0  0  0  0
   -4.0725   -0.6640    0.0000 C   0  0  0  0  0  0  0  0  0
   -3.6600    0.0505    0.0000 C   0  0  0  0  0  0  0  0  0
   -2.8350    0.0505    0.0000 C   0  0  0  0  0  0  0  0  0
   -1.1850    0.0505    0.0000 C   0  0  0  0  0  0  0  0  0
   -0.3600    0.0505    0.0000 C   0  0  0  0  0  0  0  0  0
  1  2  4  0  0  0  0
  1 13  4  0  0  0  0
  2  3  4  0  0  0  0
  2 11  4  0  0  0  0
  3  4  4  0  0  0  0
  4  5  1  0  0  0  0
  4  9  4  0  0  0  0
  5  6  1  0  0  0  0
  6  7  2  0  0  0  0
  6  8  1  0  0  0  0
  9 10  4  0  0  0  0
 10 11  4  0  0  0  0
 11 12  4  0  0  0  0
 12 13  4  0  0  0  0
 13 14  1  0  0  0  0
 14 15  1  0  0  0  0
 14 25  1  0  0  0  0
 15 16  1  0  0  0  0
 16 17  1  0  0  0  0
 17 18  1  0  0  0  0
 17 24  1  0  0  0  0
 18 19  1  0  0  0  0
 18 23  1  0  0  0  0
 19 20  1  0  0  0  0
 20 21  1  0  0  0  0
 21 22  1  0  0  0  0
 22 23  1  0  0  0  0
 24 25  1  0  0  0  0
M  END
>  <Name_Molregno>
570945

>  <HISTAMINE H3>
7.51

$$$$
570946
  Marvin  02231216192D 0   1.00000     0.00000     0

 21 24  0  0  0  0  0  0  0  0999 V2000
    0.0511    0.0085    0.0000 S   0  0  0  0  0  0  0  0  0
    0.8357    0.2634    0.0000 C   0  0  0  0  0  0  0  0  0
    0.8357    1.0884    0.0000 C   0  0  0  0  0  0  0  0  0
    0.0511    1.3433    0.0000 N   0  0  0  0  0  0  0  0  0
   -0.4338    0.6759    0.0000 C   0  0  0  0  0  0  0  0  0
   -1.2588    0.6759    0.0000 N   0  0  0  0  0  0  0  0  0
   -1.6713   -0.0386    0.0000 C   0  0  0  0  0  0  0  0  0
   -2.4963   -0.0386    0.0000 C   0  0  0  0  0  0  0  0  0
   -2.9088    0.6759    0.0000 C   0  0  0  0  0  0  0  0  0
   -3.7338    0.6759    0.0000 N   0  0  0  0  0  0  0  0  0
   -4.1463   -0.0386    0.0000 C   0  0  0  0  0  0  0  0  0
   -4.9713   -0.0386    0.0000 C   0  0  0  0  0  0  0  0  0
   -5.3838    0.6759    0.0000 C   0  0  0  0  0  0  0  0  0
   -4.9713    1.3904    0.0000 C   0  0  0  0  0  0  0  0  0
   -4.1463    1.3904    0.0000 C   0  0  0  0  0  0  0  0  0
   -2.4963    1.3904    0.0000 C   0  0  0  0  0  0  0  0  0
   -1.6713    1.3904    0.0000 C   0  0  0  0  0  0  0  0  0
    1.5502    1.5009    0.0000 C   0  0  0  0  0  0  0  0  0
    2.2647    1.0884    0.0000 N   0  0  0  0  0  0  0  0  0
    2.2647    0.2634    0.0000 C   0  0  0  0  0  0  0  0  0
    1.5502   -0.1491    0.0000 C   0  0  0  0  0  0  0  0  0
  1  2  4  0  0  0  0
  1  5  4  0  0  0  0
  2  3  4  0  0  0  0
  2 21  4  0  0  0  0
  3  4  4  0  0  0  0
  3 18  4  0  0  0  0
  4  5  4  0  0  0  0
  5  6  1  0  0  0  0
  6  7  1  0  0  0  0
  6 17  1  0  0  0  0
  7  8  1  0  0  0  0
  8  9  1  0  0  0  0
  9 10  1  0  0  0  0
  9 16  1  0  0  0  0
 10 11  1  0  0  0  0
 10 15  1  0  0  0  0
 11 12  1  0  0  0  0
 12 13  1  0  0  0  0
 13 14  1  0  0  0  0
 14 15  1  0  0  0  0
 16 17  1  0  0  0  0
 18 19  4  0  0  0  0
 19 20  4  0  0  0  0
 20 21  4  0  0  0  0
M  END
>  <Name_Molregno>
570946

>  <HISTAMINE H3>
6.89

$$$$
570947
  Marvin  02231216192D 0   1.00000     0.00000     0

 28 32  0  0  0  0  0  0  0  0999 V2000
    0.4333    0.0663    0.0000 S   0  0  0  0  0  0  0  0  0
    1.2179   -0.1887    0.0000 C   0  0  0  0  0  0  0  0  0
    1.9324    0.2238    0.0000 C   0  0  0  0  0  0  0  0  0
    2.6468   -0.1887    0.0000 C   0  0  0  0  0  0  0  0  0
    2.6468   -1.0137    0.0000 N   0  0  0  0  0  0  0  0  0
    1.9324   -1.4262    0.0000 C   0  0  0  0  0  0  0  0  0
    1.2179   -1.0137    0.0000 C   0  0  0  0  0  0  0  0  0
    0.4333   -1.2686    0.0000 N   0  0  0  0  0  0  0  0  0
   -0.0516   -0.6012    0.0000 C   0  0  0  0  0  0  0  0  0
   -0.8766   -0.6012    0.0000 N   0  0  0  0  0  0  0  0  0
   -1.2891   -1.3157    0.0000 C   0  0  0  0  0  0  0  0  0
   -2.1141   -1.3157    0.0000 C   0  0  0  0  0  0  0  0  0
   -2.5266   -0.6012    0.0000 C   0  0  0  0  0  0  0  0  0
   -3.3516   -0.6012    0.0000 N   0  0  0  0  0  0  0  0  0
   -3.7641   -1.3157    0.0000 C   0  0  0  0  0  0  0  0  0
   -4.5891   -1.3157    0.0000 C   0  0  0  0  0  0  0  0  0
   -5.0016   -0.6012    0.0000 C   0  0  0  0  0  0  0  0  0
   -4.5891    0.1133    0.0000 C   0  0  0  0  0  0  0  0  0
   -3.7641    0.1133    0.0000 C   0  0  0  0  0  0  0  0  0
   -2.1141    0.1133    0.0000 C   0  0  0  0  0  0  0  0  0
   -1.2891    0.1133    0.0000 C   0  0  0  0  0  0  0  0  0
    3.3613    0.2238    0.0000 C   0  0  0  0  0  0  0  0  0
    3.3613    1.0488    0.0000 C   0  0  0  0  0  0  0  0  0
    4.0758    1.4613    0.0000 C   0  0  0  0  0  0  0  0  0
    4.7903    1.0488    0.0000 C   0  0  0  0  0  0  0  0  0
    5.5047    1.4613    0.0000 O   0  0  0  0  0  0  0  0  0
    4.7903    0.2238    0.0000 C   0  0  0  0  0  0  0  0  0
    4.0758   -0.1887    0.0000 C   0  0  0  0  0  0  0  0  0
  1  2  4  0  0  0  0
  1  9  4  0  0  0  0
  2  3  4  0  0  0  0
  2  7  4  0  0  0  0
  3  4  4  0  0  0  0
  4  5  4  0  0  0  0
  4 22  1  0  0  0  0
  5  6  4  0  0  0  0
  6  7  4  0  0  0  0
  7  8  4  0  0  0  0
  8  9  4  0  0  0  0
  9 10  1  0  0  0  0
 10 11  1  0  0  0  0
 10 21  1  0  0  0  0
 11 12  1  0  0  0  0
 12 13  1  0  0  0  0
 13 14  1  0  0  0  0
 13 20  1  0  0  0  0
 14 15  1  0  0  0  0
 14 19  1  0  0  0  0
 15 16  1  0  0  0  0
 16 17  1  0  0  0  0
 17 18  1  0  0  0  0
 18 19  1  0  0  0  0
 20 21  1  0  0  0  0
 22 23  4  0  0  0  0
 22 28  4  0  0  0  0
 23 24  4  0  0  0  0
 24 25  4  0  0  0  0
 25 26  1  0  0  0  0
 25 27  4  0  0  0  0
 27 28  4  0  0  0  0
M  END
>  <Name_Molregno>
570947

>  <HISTAMINE H3>
6.67

$$$$
570948
  Marvin  02231216192D 0   1.00000     0.00000     0

 28 32  0  0  0  0  0  0  0  0999 V2000
    0.4333    0.0663    0.0000 S   0  0  0  0  0  0  0  0  0
    1.2179   -0.1887    0.0000 C   0  0  0  0  0  0  0  0  0
    1.9324    0.2238    0.0000 C   0  0  0  0  0  0  0  0  0
    2.6468   -0.1887    0.0000 C   0  0  0  0  0  0  0  0  0
    2.6468   -1.0137    0.0000 C   0  0  0  0  0  0  0  0  0
    1.9324   -1.4262    0.0000 N   0  0  0  0  0  0  0  0  0
    1.2179   -1.0137    0.0000 C   0  0  0  0  0  0  0  0  0
    0.4333   -1.2686    0.0000 N   0  0  0  0  0  0  0  0  0
   -0.0516   -0.6012    0.0000 C   0  0  0  0  0  0  0  0  0
   -0.8766   -0.6012    0.0000 N   0  0  0  0  0  0  0  0  0
   -1.2891   -1.3157    0.0000 C   0  0  0  0  0  0  0  0  0
   -2.1141   -1.3157    0.0000 C   0  0  0  0  0  0  0  0  0
   -2.5266   -0.6012    0.0000 C   0  0  0  0  0  0  0  0  0
   -3.3516   -0.6012    0.0000 N   0  0  0  0  0  0  0  0  0
   -3.7641   -1.3157    0.0000 C   0  0  0  0  0  0  0  0  0
   -4.5891   -1.3157    0.0000 C   0  0  0  0  0  0  0  0  0
   -5.0016   -0.6012    0.0000 C   0  0  0  0  0  0  0  0  0
   -4.5891    0.1133    0.0000 C   0  0  0  0  0  0  0  0  0
   -3.7641    0.1133    0.0000 C   0  0  0  0  0  0  0  0  0
   -2.1141    0.1133    0.0000 C   0  0  0  0  0  0  0  0  0
   -1.2891    0.1133    0.0000 C   0  0  0  0  0  0  0  0  0
    3.3613    0.2238    0.0000 C   0  0  0  0  0  0  0  0  0
    3.3613    1.0488    0.0000 C   0  0  0  0  0  0  0  0  0
    4.0758    1.4613    0.0000 C   0  0  0  0  0  0  0  0  0
    4.7903    1.0488    0.0000 C   0  0  0  0  0  0  0  0  0
    5.5047    1.4613    0.0000 F   0  0  0  0  0  0  0  0  0
    4.7903    0.2238    0.0000 N   0  0  0  0  0  0  0  0  0
    4.0758   -0.1887    0.0000 C   0  0  0  0  0  0  0  0  0
  1  2  4  0  0  0  0
  1  9  4  0  0  0  0
  2  3  4  0  0  0  0
  2  7  4  0  0  0  0
  3  4  4  0  0  0  0
  4  5  4  0  0  0  0
  4 22  1  0  0  0  0
  5  6  4  0  0  0  0
  6  7  4  0  0  0  0
  7  8  4  0  0  0  0
  8  9  4  0  0  0  0
  9 10  1  0  0  0  0
 10 11  1  0  0  0  0
 10 21  1  0  0  0  0
 11 12  1  0  0  0  0
 12 13  1  0  0  0  0
 13 14  1  0  0  0  0
 13 20  1  0  0  0  0
 14 15  1  0  0  0  0
 14 19  1  0  0  0  0
 15 16  1  0  0  0  0
 16 17  1  0  0  0  0
 17 18  1  0  0  0  0
 18 19  1  0  0  0  0
 20 21  1  0  0  0  0
 22 23  4  0  0  0  0
 22 28  4  0  0  0  0
 23 24  4  0  0  0  0
 24 25  4  0  0  0  0
 25 26  1  0  0  0  0
 25 27  4  0  0  0  0
 27 28  4  0  0  0  0
M  END
>  <Name_Molregno>
570948

>  <HISTAMINE H3>
7.2

$$$$
591110
  Marvin  02231216192D 0   1.00000     0.00000     0

 27 31  0  0  1  0  0  0  0  0999 V2000
    0.4188    1.2437    0.0000 O   0  0  0  0  0  0  0  0  0
   -0.3658    0.9887    0.0000 C   0  0  0  0  0  0  0  0  0
   -0.3658    0.1637    0.0000 C   0  0  0  0  0  0  0  0  0
    0.4188   -0.0912    0.0000 O   0  0  0  0  0  0  0  0  0
    0.9037    0.5762    0.0000 C   0  0  0  0  0  0  0  0  0
   -1.0803   -0.2488    0.0000 C   0  0  0  0  0  0  0  0  0
   -1.7947    0.1637    0.0000 C   0  0  0  0  0  0  0  0  0
   -2.5092   -0.2488    0.0000 C   0  0  0  0  0  0  0  0  0
   -3.2237    0.1637    0.0000 C   0  0  0  0  0  0  0  0  0
   -3.9382   -0.2488    0.0000 N   0  0  0  0  0  0  0  0  0
   -4.6526    0.1637    0.0000 C   0  0  0  0  0  0  0  0  0
   -4.6526    0.9887    0.0000 C   0  0  0  0  0  0  0  0  0
   -3.9382    1.4012    0.0000 C   0  0  0  0  0  0  0  0  0
   -3.9382    2.2262    0.0000 C   0  0  0  0  0  0  0  0  0
   -3.2237    2.6387    0.0000 C   0  0  0  0  0  0  0  0  0
   -3.2237    3.4637    0.0000 C   0  0  0  0  0  0  0  0  0
   -3.9382    3.8762    0.0000 O   0  0  0  0  0  0  0  0  0
   -2.5092    3.8762    0.0000 C   0  0  0  0  0  0  0  0  0
   -2.5092    2.2262    0.0000 C   0  0  0  0  0  0  0  0  0
   -2.5092    1.4012    0.0000 C   0  0  0  0  0  0  0  0  0
   -3.2237    0.9887    0.0000 C   0  0  0  0  0  0  0  0  0
   -1.7947    0.9887    0.0000 C   0  0  0  0  0  0  0  0  0
   -1.0803    1.4012    0.0000 C   0  0  0  0  0  0  0  0  0
   -1.7947    2.6387    0.0000 C   0  0  0  0  0  0  0  0  0
   -1.0803    2.2262    0.0000 O   0  0  0  0  0  0  0  0  0
   -1.7947    3.4637    0.0000 C   0  0  0  0  0  0  0  0  0
   -3.9382   -1.0738    0.0000 C   0  0  0  0  0  0  0  0  0
  1  2  1  0  0  0  0
  1  5  1  0  0  0  0
  2  3  4  0  0  0  0
  2 23  4  0  0  0  0
  3  4  1  0  0  0  0
  3  6  4  0  0  0  0
  4  5  1  0  0  0  0
  6  7  4  0  0  0  0
  7  8  1  0  0  0  0
  7 22  4  0  0  0  0
  8  9  1  0  0  0  0
  9 10  1  0  0  0  0
  9 21  1  0  0  0  0
 10 11  1  0  0  0  0
 10 27  1  0  0  0  0
 11 12  1  0  0  0  0
 12 13  1  0  0  0  0
 13 14  4  0  0  0  0
 13 21  4  0  0  0  0
 14 15  4  0  0  0  0
 15 16  1  0  0  0  0
 15 19  4  0  0  0  0
 16 17  2  0  0  0  0
 16 18  1  0  0  0  0
 19 20  4  0  0  0  0
 19 24  1  0  0  0  0
 20 21  4  0  0  0  0
 20 22  1  0  0  0  0
 22 23  4  0  0  0  0
 24 25  2  0  0  0  0
 24 26  1  0  0  0  0
M  END
>  <Name_Molregno>
591110

>  <5-HT1B>
7

>  <5-HT1D>
7.31

>  <5-HT1E>
5

>  <5-HT2A>
6.08

>  <5-HT2C>
5.97

>  <5-HT3>
5

>  <5-HT5>
5.65

>  <5-HT6>
6.59

>  <5-HT7>
7.17

>  <Alpha-1A>
8.7

>  <Alpha-1B>
5.92

>  <Alpha-2A>
5.89

>  <Alpha-2B>
6.6

>  <Alpha-2C>
6.74

>  <Beta-1>
5.07

>  <Beta-2>
5

>  <DOPAMINE D1>
6.05

>  <DOPAMINE D2>
6.07

>  <DOPAMINE D3>
6.51

>  <DOPAMINE D4>
6.58

>  <DOPAMINE D5>
5.62

>  <Dopamine transporter>
5

>  <HISTAMINE H1>
5

>  <HISTAMINE H2>
6.17

>  <HISTAMINE H3>
5

>  <HISTAMINE H4>
5

>  <Muscarinic acetylcholine receptor M1>
5

>  <Muscarinic acetylcholine receptor M2>
5

>  <Muscarinic acetylcholine receptor M3>
5

>  <Muscarinic acetylcholine receptor M4>
5

>  <Norepinephrine transporter>
5

>  <Serotonin transporter>
6.61

$$$$
595595
  Marvin  02231216192D 0   1.00000     0.00000     0

 24 26  0  0  0  0  0  0  0  0999 V2000
    0.4034    0.5918    0.0000 Cl  0  0  0  0  0  0  0  0  0
    0.4034   -0.2332    0.0000 C   0  0  0  0  0  0  0  0  0
    1.1178   -0.6457    0.0000 C   0  0  0  0  0  0  0  0  0
    1.1178   -1.4707    0.0000 C   0  0  0  0  0  0  0  0  0
    0.4034   -1.8832    0.0000 C   0  0  0  0  0  0  0  0  0
   -0.3111   -1.4707    0.0000 C   0  0  0  0  0  0  0  0  0
   -1.0256   -1.8832    0.0000 Cl  0  0  0  0  0  0  0  0  0
   -0.3111   -0.6457    0.0000 C   0  0  0  0  0  0  0  0  0
   -1.0256   -0.2332    0.0000 C   0  0  0  0  0  0  0  0  0
   -1.0256    0.5918    0.0000 N   0  0  0  0  0  0  0  0  0
   -1.7401    1.0043    0.0000 C   0  0  0  0  0  0  0  0  0
   -2.4545    0.5918    0.0000 N   0  0  0  0  0  0  0  0  0
   -3.1690    1.0043    0.0000 C   0  0  0  0  0  0  0  0  0
   -3.1690    1.8293    0.0000 N   0  0  0  0  0  0  0  0  0
   -2.4545    2.2418    0.0000 C   0  0  0  0  0  0  0  0  0
   -2.4545    3.0668    0.0000 N   0  0  0  0  0  0  0  0  0
   -3.1690    3.4793    0.0000 C   0  0  0  0  0  0  0  0  0
   -3.1690    4.3043    0.0000 C   0  0  0  0  0  0  0  0  0
   -2.4545    4.7168    0.0000 N   0  0  0  0  0  0  0  0  0
   -1.7401    4.3043    0.0000 C   0  0  0  0  0  0  0  0  0
   -1.7401    3.4793    0.0000 C   0  0  0  0  0  0  0  0  0
   -2.4545    5.5418    0.0000 C   0  0  0  0  0  0  0  0  0
   -1.7401    1.8293    0.0000 C   0  0  0  0  0  0  0  0  0
   -3.8835    0.5918    0.0000 N   0  0  0  0  0  0  0  0  0
  1  2  1  0  0  0  0
  2  3  4  0  0  0  0
  2  8  4  0  0  0  0
  3  4  4  0  0  0  0
  4  5  4  0  0  0  0
  5  6  4  0  0  0  0
  6  7  1  0  0  0  0
  6  8  4  0  0  0  0
  8  9  1  0  0  0  0
  9 10  1  0  0  0  0
 10 11  1  0  0  0  0
 11 12  4  0  0  0  0
 11 23  4  0  0  0  0
 12 13  4  0  0  0  0
 13 14  4  0  0  0  0
 13 24  1  0  0  0  0
 14 15  4  0  0  0  0
 15 16  1  0  0  0  0
 15 23  4  0  0  0  0
 16 17  1  0  0  0  0
 16 21  1  0  0  0  0
 17 18  1  0  0  0  0
 18 19  1  0  0  0  0
 19 20  1  0  0  0  0
 19 22  1  0  0  0  0
 20 21  1  0  0  0  0
M  END
>  <Name_Molregno>
595595

>  <HISTAMINE H1>
6

>  <HISTAMINE H2>
6

>  <HISTAMINE H3>
6.29

>  <HISTAMINE H4>
7.93

$$$$
595768
  Marvin  02231216192D 0   1.00000     0.00000     0

 23 25  0  0  0  0  0  0  0  0999 V2000
    4.8973   -1.8913    0.0000 Cl  0  0  0  0  0  0  0  0  0
    4.8973   -2.7163    0.0000 C   0  0  0  0  0  0  0  0  0
    5.6117   -3.1288    0.0000 C   0  0  0  0  0  0  0  0  0
    5.6117   -3.9538    0.0000 C   0  0  0  0  0  0  0  0  0
    4.8973   -4.3663    0.0000 C   0  0  0  0  0  0  0  0  0
    4.1828   -3.9538    0.0000 C   0  0  0  0  0  0  0  0  0
    4.1828   -3.1288    0.0000 C   0  0  0  0  0  0  0  0  0
    3.4683   -2.7163    0.0000 C   0  0  0  0  0  0  0  0  0
    3.4683   -1.8913    0.0000 N   0  0  0  0  0  0  0  0  0
    2.7539   -1.4788    0.0000 C   0  0  0  0  0  0  0  0  0
    2.0394   -1.8913    0.0000 N   0  0  0  0  0  0  0  0  0
    1.3249   -1.4788    0.0000 C   0  0  0  0  0  0  0  0  0
    1.3249   -0.6538    0.0000 N   0  0  0  0  0  0  0  0  0
    2.0394   -0.2413    0.0000 C   0  0  0  0  0  0  0  0  0
    2.0394    0.5837    0.0000 N   0  0  0  0  0  0  0  0  0
    1.3249    0.9962    0.0000 C   0  0  0  0  0  0  0  0  0
    1.3249    1.8212    0.0000 C   0  0  0  0  0  0  0  0  0
    2.0394    2.2337    0.0000 N   0  0  0  0  0  0  0  0  0
    2.7539    1.8212    0.0000 C   0  0  0  0  0  0  0  0  0
    2.7539    0.9962    0.0000 C   0  0  0  0  0  0  0  0  0
    2.0394    3.0587    0.0000 C   0  0  0  0  0  0  0  0  0
    2.7539   -0.6538    0.0000 C   0  0  0  0  0  0  0  0  0
    0.6104   -1.8913    0.0000 N   0  0  0  0  0  0  0  0  0
  1  2  1  0  0  0  0
  2  3  4  0  0  0  0
  2  7  4  0  0  0  0
  3  4  4  0  0  0  0
  4  5  4  0  0  0  0
  5  6  4  0  0  0  0
  6  7  4  0  0  0  0
  7  8  1  0  0  0  0
  8  9  1  0  0  0  0
  9 10  1  0  0  0  0
 10 11  4  0  0  0  0
 10 22  4  0  0  0  0
 11 12  4  0  0  0  0
 12 13  4  0  0  0  0
 12 23  1  0  0  0  0
 13 14  4  0  0  0  0
 14 15  1  0  0  0  0
 14 22  4  0  0  0  0
 15 16  1  0  0  0  0
 15 20  1  0  0  0  0
 16 17  1  0  0  0  0
 17 18  1  0  0  0  0
 18 19  1  0  0  0  0
 18 21  1  0  0  0  0
 19 20  1  0  0  0  0
M  END
>  <Name_Molregno>
595768

>  <HISTAMINE H1>
6

>  <HISTAMINE H2>
6

>  <HISTAMINE H3>
6.46

>  <HISTAMINE H4>
7.75

$$$$
595783
  Marvin  02231216192D 0   1.00000     0.00000     0

 23 25  0  0  0  0  0  0  0  0999 V2000
    1.4919    3.0883    0.0000 N   0  0  0  0  0  0  0  0  0
    1.4919    2.2633    0.0000 C   0  0  0  0  0  0  0  0  0
    2.2064    1.8508    0.0000 N   0  0  0  0  0  0  0  0  0
    2.9209    2.2633    0.0000 C   0  0  0  0  0  0  0  0  0
    3.6353    1.8508    0.0000 C   0  0  0  0  0  0  0  0  0
    3.6353    1.0258    0.0000 N   0  0  0  0  0  0  0  0  0
    2.9209    0.6133    0.0000 C   0  0  0  0  0  0  0  0  0
    2.2064    1.0258    0.0000 C   0  0  0  0  0  0  0  0  0
    4.3498    0.6133    0.0000 C   0  0  0  0  0  0  0  0  0
    0.7775    1.8508    0.0000 C   0  0  0  0  0  0  0  0  0
    0.0630    2.2633    0.0000 C   0  0  0  0  0  0  0  0  0
    0.0630    3.0883    0.0000 N   0  0  0  0  0  0  0  0  0
    0.7775    3.5008    0.0000 C   0  0  0  0  0  0  0  0  0
    0.7775    4.3258    0.0000 N   0  0  0  0  0  0  0  0  0
   -0.6515    1.8508    0.0000 N   0  0  0  0  0  0  0  0  0
   -0.6515    1.0258    0.0000 C   0  0  0  0  0  0  0  0  0
   -1.3659    0.6133    0.0000 C   0  0  0  0  0  0  0  0  0
   -1.3659   -0.2117    0.0000 C   0  0  0  0  0  0  0  0  0
   -2.0804   -0.6242    0.0000 C   0  0  0  0  0  0  0  0  0
   -2.7949   -0.2117    0.0000 C   0  0  0  0  0  0  0  0  0
   -2.7949    0.6133    0.0000 C   0  0  0  0  0  0  0  0  0
   -2.0804    1.0258    0.0000 C   0  0  0  0  0  0  0  0  0
   -2.0804    1.8508    0.0000 C   0  0  0  0  0  0  0  0  0
  1  2  4  0  0  0  0
  1 13  4  0  0  0  0
  2  3  1  0  0  0  0
  2 10  4  0  0  0  0
  3  4  1  0  0  0  0
  3  8  1  0  0  0  0
  4  5  1  0  0  0  0
  5  6  1  0  0  0  0
  6  7  1  0  0  0  0
  6  9  1  0  0  0  0
  7  8  1  0  0  0  0
 10 11  4  0  0  0  0
 11 12  4  0  0  0  0
 11 15  1  0  0  0  0
 12 13  4  0  0  0  0
 13 14  1  0  0  0  0
 15 16  1  0  0  0  0
 16 17  1  0  0  0  0
 17 18  4  0  0  0  0
 17 22  4  0  0  0  0
 18 19  4  0  0  0  0
 19 20  4  0  0  0  0
 20 21  4  0  0  0  0
 21 22  4  0  0  0  0
 22 23  1  0  0  0  0
M  END
>  <Name_Molregno>
595783

>  <HISTAMINE H1>
6

>  <HISTAMINE H2>
6

>  <HISTAMINE H3>
6.35

>  <HISTAMINE H4>
7.62

$$$$
595785
  Marvin  02231216192D 0   1.00000     0.00000     0

 23 25  0  0  0  0  0  0  0  0999 V2000
    5.4481    5.5471    0.0000 F   0  0  0  0  0  0  0  0  0
    5.4481    4.7221    0.0000 C   0  0  0  0  0  0  0  0  0
    6.1626    4.3096    0.0000 C   0  0  0  0  0  0  0  0  0
    6.1626    3.4846    0.0000 C   0  0  0  0  0  0  0  0  0
    5.4481    3.0721    0.0000 C   0  0  0  0  0  0  0  0  0
    4.7336    3.4846    0.0000 C   0  0  0  0  0  0  0  0  0
    4.7336    4.3096    0.0000 C   0  0  0  0  0  0  0  0  0
    5.4481    2.2471    0.0000 C   0  0  0  0  0  0  0  0  0
    4.7336    1.8346    0.0000 N   0  0  0  0  0  0  0  0  0
    4.7336    1.0096    0.0000 C   0  0  0  0  0  0  0  0  0
    5.4481    0.5971    0.0000 N   0  0  0  0  0  0  0  0  0
    5.4481   -0.2279    0.0000 C   0  0  0  0  0  0  0  0  0
    4.7336   -0.6404    0.0000 N   0  0  0  0  0  0  0  0  0
    4.0191   -0.2279    0.0000 C   0  0  0  0  0  0  0  0  0
    3.3047   -0.6404    0.0000 N   0  0  0  0  0  0  0  0  0
    3.3047   -1.4654    0.0000 C   0  0  0  0  0  0  0  0  0
    2.5902   -1.8779    0.0000 C   0  0  0  0  0  0  0  0  0
    1.8757   -1.4654    0.0000 N   0  0  0  0  0  0  0  0  0
    1.8757   -0.6404    0.0000 C   0  0  0  0  0  0  0  0  0
    2.5902   -0.2279    0.0000 C   0  0  0  0  0  0  0  0  0
    1.1613   -1.8779    0.0000 C   0  0  0  0  0  0  0  0  0
    4.0191    0.5971    0.0000 C   0  0  0  0  0  0  0  0  0
    6.1626   -0.6404    0.0000 N   0  0  0  0  0  0  0  0  0
  1  2  1  0  0  0  0
  2  3  4  0  0  0  0
  2  7  4  0  0  0  0
  3  4  4  0  0  0  0
  4  5  4  0  0  0  0
  5  6  4  0  0  0  0
  5  8  1  0  0  0  0
  6  7  4  0  0  0  0
  8  9  1  0  0  0  0
  9 10  1  0  0  0  0
 10 11  4  0  0  0  0
 10 22  4  0  0  0  0
 11 12  4  0  0  0  0
 12 13  4  0  0  0  0
 12 23  1  0  0  0  0
 13 14  4  0  0  0  0
 14 15  1  0  0  0  0
 14 22  4  0  0  0  0
 15 16  1  0  0  0  0
 15 20  1  0  0  0  0
 16 17  1  0  0  0  0
 17 18  1  0  0  0  0
 18 19  1  0  0  0  0
 18 21  1  0  0  0  0
 19 20  1  0  0  0  0
M  END
>  <Name_Molregno>
595785

>  <HISTAMINE H1>
6

>  <HISTAMINE H2>
6

>  <HISTAMINE H3>
6.49

>  <HISTAMINE H4>
7.36

$$$$
599747
  Marvin  02231216192D 0   1.00000     0.00000     0

 34 39  0  0  1  0  0  0  0  0999 V2000
    2.4891   -3.8904    0.0000 O   0  0  0  0  0  0  0  0  0
    2.7441   -3.1058    0.0000 C   0  0  0  0  0  0  0  0  0
    3.5510   -2.9342    0.0000 N   0  0  0  0  0  0  0  0  0
    3.8866   -2.1805    0.0000 C   0  0  0  0  0  0  0  0  0
    4.7071   -2.2668    0.0000 C   0  0  0  0  0  0  0  0  0
    5.2591   -1.6537    0.0000 N   0  0  0  0  0  0  0  0  0
    5.0876   -0.8467    0.0000 C   0  0  0  0  0  0  0  0  0
    5.8021   -0.4342    0.0000 C   0  0  0  0  0  0  0  0  0
    6.4152   -0.9863    0.0000 C   0  0  0  0  0  0  0  0  0
    6.0796   -1.7399    0.0000 C   0  0  0  0  0  0  0  0  0
    4.8786   -3.0738    0.0000 C   0  0  0  0  0  0  0  0  0
    4.1641   -3.4863    0.0000 C   0  0  0  0  0  0  0  0  0
    2.1920   -2.4927    0.0000 C   0  0  0  0  0  0  0  0  0
    1.3851   -2.6642    0.0000 C   0  0  0  0  0  0  0  0  0
    0.8330   -2.0511    0.0000 C   0  0  0  0  0  0  0  0  0
    1.0880   -1.2665    0.0000 C   0  0  0  0  0  0  0  0  0
    1.8949   -1.0949    0.0000 C   0  0  0  0  0  0  0  0  0
    2.4470   -1.7080    0.0000 C   0  0  0  0  0  0  0  0  0
    0.5359   -0.6534    0.0000 C   0  0  0  0  0  0  0  0  0
    0.7909    0.1312    0.0000 N   0  0  0  0  0  0  0  0  0
    1.5755    0.3862    0.0000 C   0  0  0  0  0  0  0  0  0
    1.5755    1.2112    0.0000 C   0  0  0  0  0  0  0  0  0
    0.7909    1.4661    0.0000 N   0  0  0  0  0  0  0  0  0
    0.3060    0.7987    0.0000 C   0  0  0  0  0  0  0  0  0
   -0.5190    0.7987    0.0000 C   0  0  0  0  0  0  0  0  0
   -0.9315    0.0842    0.0000 C   0  0  0  0  0  0  0  0  0
   -1.7565    0.0842    0.0000 C   0  0  0  0  0  0  0  0  0
   -2.1690    0.7987    0.0000 C   0  0  0  0  0  0  0  0  0
   -1.7565    1.5132    0.0000 C   0  0  0  0  0  0  0  0  0
   -0.9315    1.5132    0.0000 C   0  0  0  0  0  0  0  0  0
    2.2900    1.6237    0.0000 C   0  0  0  0  0  0  0  0  0
    3.0044    1.2112    0.0000 C   0  0  0  0  0  0  0  0  0
    3.0044    0.3862    0.0000 C   0  0  0  0  0  0  0  0  0
    2.2900   -0.0263    0.0000 C   0  0  0  0  0  0  0  0  0
  1  2  2  0  0  0  0
  2  3  1  0  0  0  0
  2 13  1  0  0  0  0
  3  4  1  0  0  0  0
  3 12  1  0  0  0  0
  4  5  1  0  0  0  0
  5  6  1  0  0  0  0
  5 11  1  0  0  0  0
  6  7  1  0  0  0  0
  6 10  1  0  0  0  0
  7  8  1  0  0  0  0
  8  9  1  0  0  0  0
  9 10  1  0  0  0  0
 11 12  1  0  0  0  0
 13 14  4  0  0  0  0
 13 18  4  0  0  0  0
 14 15  4  0  0  0  0
 15 16  4  0  0  0  0
 16 17  4  0  0  0  0
 16 19  1  0  0  0  0
 17 18  4  0  0  0  0
 19 20  1  0  0  0  0
 20 21  4  0  0  0  0
 20 24  4  0  0  0  0
 21 22  4  0  0  0  0
 21 34  4  0  0  0  0
 22 23  4  0  0  0  0
 22 31  4  0  0  0  0
 23 24  4  0  0  0  0
 24 25  1  0  0  0  0
 25 26  4  0  0  0  0
 25 30  4  0  0  0  0
 26 27  4  0  0  0  0
 27 28  4  0  0  0  0
 28 29  4  0  0  0  0
 29 30  4  0  0  0  0
 31 32  4  0  0  0  0
 32 33  4  0  0  0  0
 33 34  4  0  0  0  0
M  END
>  <Name_Molregno>
599747

>  <HISTAMINE H3>
8

$$$$
599748
  Marvin  02231216192D 0   1.00000     0.00000     0

 34 38  0  0  1  0  0  0  0  0999 V2000
   11.2211   -1.1690    0.0000 O   0  0  0  0  0  0  0  0  0
   10.4141   -0.9974    0.0000 C   0  0  0  0  0  0  0  0  0
    9.8621   -1.6105    0.0000 C   0  0  0  0  0  0  0  0  0
    9.0551   -1.4390    0.0000 N   0  0  0  0  0  0  0  0  0
    8.8002   -0.6544    0.0000 C   0  0  0  0  0  0  0  0  0
    8.5031   -2.0521    0.0000 C   0  0  0  0  0  0  0  0  0
    8.6746   -2.8591    0.0000 C   0  0  0  0  0  0  0  0  0
    7.9601   -3.2716    0.0000 C   0  0  0  0  0  0  0  0  0
    7.3470   -2.7195    0.0000 N   0  0  0  0  0  0  0  0  0
    7.6826   -1.9659    0.0000 C   0  0  0  0  0  0  0  0  0
    6.5401   -2.8911    0.0000 C   0  0  0  0  0  0  0  0  0
    6.2851   -3.6757    0.0000 O   0  0  0  0  0  0  0  0  0
    5.9880   -2.2780    0.0000 C   0  0  0  0  0  0  0  0  0
    5.1811   -2.4495    0.0000 C   0  0  0  0  0  0  0  0  0
    4.6290   -1.8364    0.0000 C   0  0  0  0  0  0  0  0  0
    4.8840   -1.0518    0.0000 C   0  0  0  0  0  0  0  0  0
    5.6909   -0.8803    0.0000 C   0  0  0  0  0  0  0  0  0
    6.2430   -1.4934    0.0000 C   0  0  0  0  0  0  0  0  0
    4.3319   -0.4387    0.0000 C   0  0  0  0  0  0  0  0  0
    4.5869    0.3459    0.0000 N   0  0  0  0  0  0  0  0  0
    5.3715    0.6009    0.0000 C   0  0  0  0  0  0  0  0  0
    5.3715    1.4259    0.0000 C   0  0  0  0  0  0  0  0  0
    4.5869    1.6808    0.0000 N   0  0  0  0  0  0  0  0  0
    4.1020    1.0134    0.0000 C   0  0  0  0  0  0  0  0  0
    3.2770    1.0134    0.0000 C   0  0  0  0  0  0  0  0  0
    2.8645    0.2989    0.0000 C   0  0  0  0  0  0  0  0  0
    2.0395    0.2989    0.0000 C   0  0  0  0  0  0  0  0  0
    1.6270    1.0134    0.0000 C   0  0  0  0  0  0  0  0  0
    2.0395    1.7278    0.0000 C   0  0  0  0  0  0  0  0  0
    2.8645    1.7278    0.0000 C   0  0  0  0  0  0  0  0  0
    6.0860    1.8384    0.0000 C   0  0  0  0  0  0  0  0  0
    6.8004    1.4259    0.0000 C   0  0  0  0  0  0  0  0  0
    6.8004    0.6009    0.0000 C   0  0  0  0  0  0  0  0  0
    6.0860    0.1884    0.0000 C   0  0  0  0  0  0  0  0  0
  1  2  1  0  0  0  0
  2  3  1  0  0  0  0
  3  4  1  0  0  0  0
  4  5  1  0  0  0  0
  4  6  1  0  0  0  0
  6  7  1  0  0  0  0
  6 10  1  0  0  0  0
  7  8  1  0  0  0  0
  8  9  1  0  0  0  0
  9 10  1  0  0  0  0
  9 11  1  0  0  0  0
 11 12  2  0  0  0  0
 11 13  1  0  0  0  0
 13 14  4  0  0  0  0
 13 18  4  0  0  0  0
 14 15  4  0  0  0  0
 15 16  4  0  0  0  0
 16 17  4  0  0  0  0
 16 19  1  0  0  0  0
 17 18  4  0  0  0  0
 19 20  1  0  0  0  0
 20 21  4  0  0  0  0
 20 24  4  0  0  0  0
 21 22  4  0  0  0  0
 21 34  4  0  0  0  0
 22 23  4  0  0  0  0
 22 31  4  0  0  0  0
 23 24  4  0  0  0  0
 24 25  1  0  0  0  0
 25 26  4  0  0  0  0
 25 30  4  0  0  0  0
 26 27  4  0  0  0  0
 27 28  4  0  0  0  0
 28 29  4  0  0  0  0
 29 30  4  0  0  0  0
 31 32  4  0  0  0  0
 32 33  4  0  0  0  0
 33 34  4  0  0  0  0
M  END
>  <Name_Molregno>
599748

>  <HISTAMINE H3>
5.92

$$$$
599749
  Marvin  02231216192D 0   1.00000     0.00000     0

 32 36  0  0  1  0  0  0  0  0999 V2000
    3.0520   -3.7492    0.0000 O   0  0  0  0  0  0  0  0  0
    3.3070   -2.9646    0.0000 C   0  0  0  0  0  0  0  0  0
    4.1139   -2.7930    0.0000 N   0  0  0  0  0  0  0  0  0
    4.4495   -2.0393    0.0000 C   0  0  0  0  0  0  0  0  0
    5.2700   -2.1256    0.0000 C   0  0  0  0  0  0  0  0  0
    5.8220   -1.5125    0.0000 N   0  0  0  0  0  0  0  0  0
    6.6290   -1.6840    0.0000 C   0  0  0  0  0  0  0  0  0
    5.5671   -0.7279    0.0000 C   0  0  0  0  0  0  0  0  0
    5.4415   -2.9326    0.0000 C   0  0  0  0  0  0  0  0  0
    4.7270   -3.3451    0.0000 C   0  0  0  0  0  0  0  0  0
    2.7549   -2.3515    0.0000 C   0  0  0  0  0  0  0  0  0
    1.9480   -2.5230    0.0000 C   0  0  0  0  0  0  0  0  0
    1.3959   -1.9099    0.0000 C   0  0  0  0  0  0  0  0  0
    1.6509   -1.1253    0.0000 C   0  0  0  0  0  0  0  0  0
    2.4579   -0.9537    0.0000 C   0  0  0  0  0  0  0  0  0
    3.0099   -1.5668    0.0000 C   0  0  0  0  0  0  0  0  0
    1.0988   -0.5122    0.0000 C   0  0  0  0  0  0  0  0  0
    1.3538    0.2724    0.0000 N   0  0  0  0  0  0  0  0  0
    2.1384    0.5274    0.0000 C   0  0  0  0  0  0  0  0  0
    2.1384    1.3524    0.0000 C   0  0  0  0  0  0  0  0  0
    1.3538    1.6073    0.0000 N   0  0  0  0  0  0  0  0  0
    0.8689    0.9399    0.0000 C   0  0  0  0  0  0  0  0  0
    0.0439    0.9399    0.0000 C   0  0  0  0  0  0  0  0  0
   -0.3686    0.2254    0.0000 C   0  0  0  0  0  0  0  0  0
   -1.1936    0.2254    0.0000 C   0  0  0  0  0  0  0  0  0
   -1.6061    0.9399    0.0000 C   0  0  0  0  0  0  0  0  0
   -1.1936    1.6544    0.0000 C   0  0  0  0  0  0  0  0  0
   -0.3686    1.6544    0.0000 C   0  0  0  0  0  0  0  0  0
    2.8529    1.7649    0.0000 C   0  0  0  0  0  0  0  0  0
    3.5673    1.3524    0.0000 C   0  0  0  0  0  0  0  0  0
    3.5673    0.5274    0.0000 C   0  0  0  0  0  0  0  0  0
    2.8529    0.1149    0.0000 C   0  0  0  0  0  0  0  0  0
  1  2  2  0  0  0  0
  2  3  1  0  0  0  0
  2 11  1  0  0  0  0
  3  4  1  0  0  0  0
  3 10  1  0  0  0  0
  4  5  1  0  0  0  0
  5  6  1  0  0  0  0
  5  9  1  0  0  0  0
  6  7  1  0  0  0  0
  6  8  1  0  0  0  0
  9 10  1  0  0  0  0
 11 12  4  0  0  0  0
 11 16  4  0  0  0  0
 12 13  4  0  0  0  0
 13 14  4  0  0  0  0
 14 15  4  0  0  0  0
 14 17  1  0  0  0  0
 15 16  4  0  0  0  0
 17 18  1  0  0  0  0
 18 19  4  0  0  0  0
 18 22  4  0  0  0  0
 19 20  4  0  0  0  0
 19 32  4  0  0  0  0
 20 21  4  0  0  0  0
 20 29  4  0  0  0  0
 21 22  4  0  0  0  0
 22 23  1  0  0  0  0
 23 24  4  0  0  0  0
 23 28  4  0  0  0  0
 24 25  4  0  0  0  0
 25 26  4  0  0  0  0
 26 27  4  0  0  0  0
 27 28  4  0  0  0  0
 29 30  4  0  0  0  0
 30 31  4  0  0  0  0
 31 32  4  0  0  0  0
M  END
>  <Name_Molregno>
599749

>  <HISTAMINE H3>
6.85

$$$$
599824
  Marvin  02231216192D 0   1.00000     0.00000     0

 32 36  0  0  1  0  0  0  0  0999 V2000
    3.0520   -3.7492    0.0000 O   0  0  0  0  0  0  0  0  0
    3.3070   -2.9646    0.0000 C   0  0  0  0  0  0  0  0  0
    4.1139   -2.7930    0.0000 N   0  0  0  0  0  0  0  0  0
    4.4495   -2.0393    0.0000 C   0  0  0  0  0  0  0  0  0
    5.2700   -2.1256    0.0000 C   0  0  0  0  0  0  0  0  0
    5.8220   -1.5125    0.0000 N   0  0  0  0  0  0  0  0  0
    6.6290   -1.6840    0.0000 C   0  0  0  0  0  0  0  0  0
    5.5671   -0.7279    0.0000 C   0  0  0  0  0  0  0  0  0
    5.4415   -2.9326    0.0000 C   0  0  0  0  0  0  0  0  0
    4.7270   -3.3451    0.0000 C   0  0  0  0  0  0  0  0  0
    2.7549   -2.3515    0.0000 C   0  0  0  0  0  0  0  0  0
    1.9480   -2.5230    0.0000 C   0  0  0  0  0  0  0  0  0
    1.3959   -1.9099    0.0000 C   0  0  0  0  0  0  0  0  0
    1.6509   -1.1253    0.0000 C   0  0  0  0  0  0  0  0  0
    2.4579   -0.9537    0.0000 C   0  0  0  0  0  0  0  0  0
    3.0099   -1.5668    0.0000 C   0  0  0  0  0  0  0  0  0
    1.0988   -0.5122    0.0000 C   0  0  0  0  0  0  0  0  0
    1.3538    0.2724    0.0000 N   0  0  0  0  0  0  0  0  0
    2.1384    0.5274    0.0000 C   0  0  0  0  0  0  0  0  0
    2.1384    1.3524    0.0000 C   0  0  0  0  0  0  0  0  0
    1.3538    1.6073    0.0000 N   0  0  0  0  0  0  0  0  0
    0.8689    0.9399    0.0000 C   0  0  0  0  0  0  0  0  0
    0.0439    0.9399    0.0000 C   0  0  0  0  0  0  0  0  0
   -0.3686    0.2254    0.0000 N   0  0  0  0  0  0  0  0  0
   -1.1936    0.2254    0.0000 C   0  0  0  0  0  0  0  0  0
   -1.6061    0.9399    0.0000 C   0  0  0  0  0  0  0  0  0
   -1.1936    1.6544    0.0000 C   0  0  0  0  0  0  0  0  0
   -0.3686    1.6544    0.0000 C   0  0  0  0  0  0  0  0  0
    2.8529    1.7649    0.0000 C   0  0  0  0  0  0  0  0  0
    3.5673    1.3524    0.0000 C   0  0  0  0  0  0  0  0  0
    3.5673    0.5274    0.0000 C   0  0  0  0  0  0  0  0  0
    2.8529    0.1149    0.0000 C   0  0  0  0  0  0  0  0  0
  1  2  2  0  0  0  0
  2  3  1  0  0  0  0
  2 11  1  0  0  0  0
  3  4  1  0  0  0  0
  3 10  1  0  0  0  0
  4  5  1  0  0  0  0
  5  6  1  0  0  0  0
  5  9  1  0  0  0  0
  6  7  1  0  0  0  0
  6  8  1  0  0  0  0
  9 10  1  0  0  0  0
 11 12  4  0  0  0  0
 11 16  4  0  0  0  0
 12 13  4  0  0  0  0
 13 14  4  0  0  0  0
 14 15  4  0  0  0  0
 14 17  1  0  0  0  0
 15 16  4  0  0  0  0
 17 18  1  0  0  0  0
 18 19  4  0  0  0  0
 18 22  4  0  0  0  0
 19 20  4  0  0  0  0
 19 32  4  0  0  0  0
 20 21  4  0  0  0  0
 20 29  4  0  0  0  0
 21 22  4  0  0  0  0
 22 23  1  0  0  0  0
 23 24  4  0  0  0  0
 23 28  4  0  0  0  0
 24 25  4  0  0  0  0
 25 26  4  0  0  0  0
 26 27  4  0  0  0  0
 27 28  4  0  0  0  0
 29 30  4  0  0  0  0
 30 31  4  0  0  0  0
 31 32  4  0  0  0  0
M  END
>  <Name_Molregno>
599824

>  <HISTAMINE H3>
6.63

$$$$
599825
  Marvin  02231216192D 0   1.00000     0.00000     0

 26 29  0  0  1  0  0  0  0  0999 V2000
   -0.4044   -0.3713    0.0000 O   0  0  0  0  0  0  0  0  0
    0.1477   -0.9844    0.0000 C   0  0  0  0  0  0  0  0  0
   -0.1073   -1.7690    0.0000 N   0  0  0  0  0  0  0  0  0
    0.3776   -2.4365    0.0000 C   0  0  0  0  0  0  0  0  0
   -0.1073   -3.1039    0.0000 C   0  0  0  0  0  0  0  0  0
    0.1477   -3.8885    0.0000 N   0  0  0  0  0  0  0  0  0
   -0.4044   -4.5016    0.0000 C   0  0  0  0  0  0  0  0  0
    0.9546   -4.0601    0.0000 C   0  0  0  0  0  0  0  0  0
   -0.8919   -2.8490    0.0000 C   0  0  0  0  0  0  0  0  0
   -0.8919   -2.0240    0.0000 C   0  0  0  0  0  0  0  0  0
    0.9546   -0.8129    0.0000 C   0  0  0  0  0  0  0  0  0
    1.2096   -0.0283    0.0000 C   0  0  0  0  0  0  0  0  0
    2.0165    0.1433    0.0000 C   0  0  0  0  0  0  0  0  0
    2.5686   -0.4698    0.0000 C   0  0  0  0  0  0  0  0  0
    2.3136   -1.2545    0.0000 C   0  0  0  0  0  0  0  0  0
    1.5067   -1.4260    0.0000 C   0  0  0  0  0  0  0  0  0
    3.3755   -0.2983    0.0000 C   0  0  0  0  0  0  0  0  0
    3.6305    0.4863    0.0000 N   0  0  0  0  0  0  0  0  0
    4.4151    0.7412    0.0000 C   0  0  0  0  0  0  0  0  0
    4.4151    1.5662    0.0000 C   0  0  0  0  0  0  0  0  0
    3.6305    1.8212    0.0000 N   0  0  0  0  0  0  0  0  0
    3.1456    1.1537    0.0000 C   0  0  0  0  0  0  0  0  0
    5.1296    1.9787    0.0000 C   0  0  0  0  0  0  0  0  0
    5.8440    1.5662    0.0000 C   0  0  0  0  0  0  0  0  0
    5.8440    0.7412    0.0000 C   0  0  0  0  0  0  0  0  0
    5.1296    0.3287    0.0000 C   0  0  0  0  0  0  0  0  0
  1  2  2  0  0  0  0
  2  3  1  0  0  0  0
  2 11  1  0  0  0  0
  3  4  1  0  0  0  0
  3 10  1  0  0  0  0
  4  5  1  0  0  0  0
  5  6  1  0  0  0  0
  5  9  1  0  0  0  0
  6  7  1  0  0  0  0
  6  8  1  0  0  0  0
  9 10  1  0  0  0  0
 11 12  4  0  0  0  0
 11 16  4  0  0  0  0
 12 13  4  0  0  0  0
 13 14  4  0  0  0  0
 14 15  4  0  0  0  0
 14 17  1  0  0  0  0
 15 16  4  0  0  0  0
 17 18  1  0  0  0  0
 18 19  4  0  0  0  0
 18 22  4  0  0  0  0
 19 20  4  0  0  0  0
 19 26  4  0  0  0  0
 20 21  4  0  0  0  0
 20 23  4  0  0  0  0
 21 22  4  0  0  0  0
 23 24  4  0  0  0  0
 24 25  4  0  0  0  0
 25 26  4  0  0  0  0
M  END
>  <Name_Molregno>
599825

>  <HISTAMINE H3>
6.41

$$$$
599826
  Marvin  02231216192D 0   1.00000     0.00000     0

 27 30  0  0  1  0  0  0  0  0999 V2000
   -0.3764   -0.3621    0.0000 O   0  0  0  0  0  0  0  0  0
    0.1756   -0.9752    0.0000 C   0  0  0  0  0  0  0  0  0
   -0.0793   -1.7598    0.0000 N   0  0  0  0  0  0  0  0  0
    0.4056   -2.4272    0.0000 C   0  0  0  0  0  0  0  0  0
   -0.0793   -3.0947    0.0000 C   0  0  0  0  0  0  0  0  0
    0.1756   -3.8793    0.0000 N   0  0  0  0  0  0  0  0  0
   -0.3764   -4.4924    0.0000 C   0  0  0  0  0  0  0  0  0
    0.9826   -4.0508    0.0000 C   0  0  0  0  0  0  0  0  0
   -0.8640   -2.8397    0.0000 C   0  0  0  0  0  0  0  0  0
   -0.8640   -2.0147    0.0000 C   0  0  0  0  0  0  0  0  0
    0.9826   -0.8036    0.0000 C   0  0  0  0  0  0  0  0  0
    1.2375   -0.0190    0.0000 C   0  0  0  0  0  0  0  0  0
    2.0445    0.1525    0.0000 C   0  0  0  0  0  0  0  0  0
    2.5965   -0.4606    0.0000 C   0  0  0  0  0  0  0  0  0
    2.3416   -1.2452    0.0000 C   0  0  0  0  0  0  0  0  0
    1.5346   -1.4167    0.0000 C   0  0  0  0  0  0  0  0  0
    3.4035   -0.2891    0.0000 C   0  0  0  0  0  0  0  0  0
    3.6584    0.4956    0.0000 N   0  0  0  0  0  0  0  0  0
    4.4430    0.7505    0.0000 C   0  0  0  0  0  0  0  0  0
    4.4430    1.5755    0.0000 C   0  0  0  0  0  0  0  0  0
    3.6584    1.8304    0.0000 N   0  0  0  0  0  0  0  0  0
    3.1735    1.1630    0.0000 C   0  0  0  0  0  0  0  0  0
    2.3485    1.1630    0.0000 C   0  0  0  0  0  0  0  0  0
    5.1575    1.9880    0.0000 C   0  0  0  0  0  0  0  0  0
    5.8720    1.5755    0.0000 C   0  0  0  0  0  0  0  0  0
    5.8720    0.7505    0.0000 C   0  0  0  0  0  0  0  0  0
    5.1575    0.3380    0.0000 C   0  0  0  0  0  0  0  0  0
  1  2  2  0  0  0  0
  2  3  1  0  0  0  0
  2 11  1  0  0  0  0
  3  4  1  0  0  0  0
  3 10  1  0  0  0  0
  4  5  1  0  0  0  0
  5  6  1  0  0  0  0
  5  9  1  0  0  0  0
  6  7  1  0  0  0  0
  6  8  1  0  0  0  0
  9 10  1  0  0  0  0
 11 12  4  0  0  0  0
 11 16  4  0  0  0  0
 12 13  4  0  0  0  0
 13 14  4  0  0  0  0
 14 15  4  0  0  0  0
 14 17  1  0  0  0  0
 15 16  4  0  0  0  0
 17 18  1  0  0  0  0
 18 19  4  0  0  0  0
 18 22  4  0  0  0  0
 19 20  4  0  0  0  0
 19 27  4  0  0  0  0
 20 21  4  0  0  0  0
 20 24  4  0  0  0  0
 21 22  4  0  0  0  0
 22 23  1  0  0  0  0
 24 25  4  0  0  0  0
 25 26  4  0  0  0  0
 26 27  4  0  0  0  0
M  END
>  <Name_Molregno>
599826

>  <HISTAMINE H3>
7.77

$$$$
599827
  Marvin  02231216192D 0   1.00000     0.00000     0

 28 32  0  0  1  0  0  0  0  0999 V2000
   -0.6477   -0.2168    0.0000 O   0  0  0  0  0  0  0  0  0
   -0.0957   -0.8299    0.0000 C   0  0  0  0  0  0  0  0  0
   -0.3507   -1.6145    0.0000 N   0  0  0  0  0  0  0  0  0
    0.1343   -2.2820    0.0000 C   0  0  0  0  0  0  0  0  0
   -0.3507   -2.9494    0.0000 C   0  0  0  0  0  0  0  0  0
   -0.0957   -3.7340    0.0000 N   0  0  0  0  0  0  0  0  0
    0.6889   -3.9890    0.0000 C   0  0  0  0  0  0  0  0  0
    0.6889   -4.8140    0.0000 C   0  0  0  0  0  0  0  0  0
   -0.0957   -5.0689    0.0000 C   0  0  0  0  0  0  0  0  0
   -0.5806   -4.4015    0.0000 C   0  0  0  0  0  0  0  0  0
   -1.1353   -2.6945    0.0000 C   0  0  0  0  0  0  0  0  0
   -1.1353   -1.8695    0.0000 C   0  0  0  0  0  0  0  0  0
    0.7113   -0.6584    0.0000 C   0  0  0  0  0  0  0  0  0
    0.9662    0.1262    0.0000 C   0  0  0  0  0  0  0  0  0
    1.7732    0.2977    0.0000 C   0  0  0  0  0  0  0  0  0
    2.3252   -0.3153    0.0000 C   0  0  0  0  0  0  0  0  0
    2.0703   -1.1000    0.0000 C   0  0  0  0  0  0  0  0  0
    1.2633   -1.2715    0.0000 C   0  0  0  0  0  0  0  0  0
    3.1322   -0.1438    0.0000 C   0  0  0  0  0  0  0  0  0
    3.3871    0.6408    0.0000 N   0  0  0  0  0  0  0  0  0
    4.1717    0.8957    0.0000 C   0  0  0  0  0  0  0  0  0
    4.1717    1.7207    0.0000 C   0  0  0  0  0  0  0  0  0
    3.3871    1.9757    0.0000 N   0  0  0  0  0  0  0  0  0
    2.9022    1.3082    0.0000 C   0  0  0  0  0  0  0  0  0
    4.8862    2.1332    0.0000 C   0  0  0  0  0  0  0  0  0
    5.6007    1.7207    0.0000 C   0  0  0  0  0  0  0  0  0
    5.6007    0.8957    0.0000 C   0  0  0  0  0  0  0  0  0
    4.8862    0.4832    0.0000 C   0  0  0  0  0  0  0  0  0
  1  2  2  0  0  0  0
  2  3  1  0  0  0  0
  2 13  1  0  0  0  0
  3  4  1  0  0  0  0
  3 12  1  0  0  0  0
  4  5  1  0  0  0  0
  5  6  1  0  0  0  0
  5 11  1  0  0  0  0
  6  7  1  0  0  0  0
  6 10  1  0  0  0  0
  7  8  1  0  0  0  0
  8  9  1  0  0  0  0
  9 10  1  0  0  0  0
 11 12  1  0  0  0  0
 13 14  4  0  0  0  0
 13 18  4  0  0  0  0
 14 15  4  0  0  0  0
 15 16  4  0  0  0  0
 16 17  4  0  0  0  0
 16 19  1  0  0  0  0
 17 18  4  0  0  0  0
 19 20  1  0  0  0  0
 20 21  4  0  0  0  0
 20 24  4  0  0  0  0
 21 22  4  0  0  0  0
 21 28  4  0  0  0  0
 22 23  4  0  0  0  0
 22 25  4  0  0  0  0
 23 24  4  0  0  0  0
 25 26  4  0  0  0  0
 26 27  4  0  0  0  0
 27 28  4  0  0  0  0
M  END
>  <Name_Molregno>
599827

>  <HISTAMINE H3>
7.74

$$$$
599889
  Marvin  02231216192D 0   1.00000     0.00000     0

 29 33  0  0  1  0  0  0  0  0999 V2000
   -0.6265   -0.2456    0.0000 O   0  0  0  0  0  0  0  0  0
   -0.0745   -0.8587    0.0000 C   0  0  0  0  0  0  0  0  0
   -0.3294   -1.6433    0.0000 N   0  0  0  0  0  0  0  0  0
    0.1555   -2.3107    0.0000 C   0  0  0  0  0  0  0  0  0
   -0.3294   -2.9782    0.0000 C   0  0  0  0  0  0  0  0  0
   -0.0745   -3.7628    0.0000 N   0  0  0  0  0  0  0  0  0
    0.7101   -4.0177    0.0000 C   0  0  0  0  0  0  0  0  0
    0.7101   -4.8427    0.0000 C   0  0  0  0  0  0  0  0  0
   -0.0745   -5.0977    0.0000 C   0  0  0  0  0  0  0  0  0
   -0.5594   -4.4302    0.0000 C   0  0  0  0  0  0  0  0  0
   -1.1141   -2.7232    0.0000 C   0  0  0  0  0  0  0  0  0
   -1.1141   -1.8982    0.0000 C   0  0  0  0  0  0  0  0  0
    0.7325   -0.6871    0.0000 C   0  0  0  0  0  0  0  0  0
    0.9874    0.0975    0.0000 C   0  0  0  0  0  0  0  0  0
    1.7944    0.2690    0.0000 C   0  0  0  0  0  0  0  0  0
    2.3464   -0.3441    0.0000 C   0  0  0  0  0  0  0  0  0
    2.0915   -1.1287    0.0000 C   0  0  0  0  0  0  0  0  0
    1.2845   -1.3002    0.0000 C   0  0  0  0  0  0  0  0  0
    3.1534   -0.1725    0.0000 C   0  0  0  0  0  0  0  0  0
    3.4083    0.6121    0.0000 N   0  0  0  0  0  0  0  0  0
    4.1929    0.8670    0.0000 C   0  0  0  0  0  0  0  0  0
    4.1929    1.6920    0.0000 C   0  0  0  0  0  0  0  0  0
    3.4083    1.9470    0.0000 N   0  0  0  0  0  0  0  0  0
    2.9234    1.2795    0.0000 C   0  0  0  0  0  0  0  0  0
    2.0984    1.2795    0.0000 C   0  0  0  0  0  0  0  0  0
    4.9074    2.1045    0.0000 C   0  0  0  0  0  0  0  0  0
    5.6219    1.6920    0.0000 C   0  0  0  0  0  0  0  0  0
    5.6219    0.8670    0.0000 C   0  0  0  0  0  0  0  0  0
    4.9074    0.4545    0.0000 C   0  0  0  0  0  0  0  0  0
  1  2  2  0  0  0  0
  2  3  1  0  0  0  0
  2 13  1  0  0  0  0
  3  4  1  0  0  0  0
  3 12  1  0  0  0  0
  4  5  1  0  0  0  0
  5  6  1  0  0  0  0
  5 11  1  0  0  0  0
  6  7  1  0  0  0  0
  6 10  1  0  0  0  0
  7  8  1  0  0  0  0
  8  9  1  0  0  0  0
  9 10  1  0  0  0  0
 11 12  1  0  0  0  0
 13 14  4  0  0  0  0
 13 18  4  0  0  0  0
 14 15  4  0  0  0  0
 15 16  4  0  0  0  0
 16 17  4  0  0  0  0
 16 19  1  0  0  0  0
 17 18  4  0  0  0  0
 19 20  1  0  0  0  0
 20 21  4  0  0  0  0
 20 24  4  0  0  0  0
 21 22  4  0  0  0  0
 21 29  4  0  0  0  0
 22 23  4  0  0  0  0
 22 26  4  0  0  0  0
 23 24  4  0  0  0  0
 24 25  1  0  0  0  0
 26 27  4  0  0  0  0
 27 28  4  0  0  0  0
 28 29  4  0  0  0  0
M  END
>  <Name_Molregno>
599889

>  <HISTAMINE H3>
8.41

$$$$
599891
  Marvin  02231216192D 0   1.00000     0.00000     0

 28 32  0  0  1  0  0  0  0  0999 V2000
   -1.5864    0.0255    0.0000 O   0  0  0  0  0  0  0  0  0
   -1.8413   -0.7591    0.0000 C   0  0  0  0  0  0  0  0  0
   -2.6483   -0.9307    0.0000 N   0  0  0  0  0  0  0  0  0
   -2.9838   -1.6843    0.0000 C   0  0  0  0  0  0  0  0  0
   -3.8043   -1.5981    0.0000 C   0  0  0  0  0  0  0  0  0
   -4.3564   -2.2112    0.0000 N   0  0  0  0  0  0  0  0  0
   -4.1848   -3.0182    0.0000 C   0  0  0  0  0  0  0  0  0
   -4.8993   -3.4307    0.0000 C   0  0  0  0  0  0  0  0  0
   -5.5124   -2.8786    0.0000 C   0  0  0  0  0  0  0  0  0
   -5.1768   -2.1249    0.0000 C   0  0  0  0  0  0  0  0  0
   -3.9758   -0.7911    0.0000 C   0  0  0  0  0  0  0  0  0
   -3.2614   -0.3786    0.0000 C   0  0  0  0  0  0  0  0  0
   -1.2893   -1.3722    0.0000 C   0  0  0  0  0  0  0  0  0
   -0.4823   -1.2007    0.0000 C   0  0  0  0  0  0  0  0  0
    0.0697   -1.8138    0.0000 C   0  0  0  0  0  0  0  0  0
   -0.1852   -2.5984    0.0000 C   0  0  0  0  0  0  0  0  0
   -0.9922   -2.7699    0.0000 C   0  0  0  0  0  0  0  0  0
   -1.5442   -2.1568    0.0000 C   0  0  0  0  0  0  0  0  0
    0.8767   -1.6423    0.0000 C   0  0  0  0  0  0  0  0  0
    1.1316   -0.8576    0.0000 N   0  0  0  0  0  0  0  0  0
    1.9163   -0.6027    0.0000 C   0  0  0  0  0  0  0  0  0
    1.9163    0.2223    0.0000 C   0  0  0  0  0  0  0  0  0
    1.1316    0.4772    0.0000 N   0  0  0  0  0  0  0  0  0
    0.6467   -0.1902    0.0000 C   0  0  0  0  0  0  0  0  0
    2.6307    0.6348    0.0000 C   0  0  0  0  0  0  0  0  0
    3.3452    0.2223    0.0000 C   0  0  0  0  0  0  0  0  0
    3.3452   -0.6027    0.0000 C   0  0  0  0  0  0  0  0  0
    2.6307   -1.0152    0.0000 C   0  0  0  0  0  0  0  0  0
  1  2  2  0  0  0  0
  2  3  1  0  0  0  0
  2 13  1  0  0  0  0
  3  4  1  0  0  0  0
  3 12  1  0  0  0  0
  4  5  1  0  0  0  0
  5  6  1  0  0  0  0
  5 11  1  0  0  0  0
  6  7  1  0  0  0  0
  6 10  1  0  0  0  0
  7  8  1  0  0  0  0
  8  9  1  0  0  0  0
  9 10  1  0  0  0  0
 11 12  1  0  0  0  0
 13 14  4  0  0  0  0
 13 18  4  0  0  0  0
 14 15  4  0  0  0  0
 15 16  4  0  0  0  0
 15 19  1  0  0  0  0
 16 17  4  0  0  0  0
 17 18  4  0  0  0  0
 19 20  1  0  0  0  0
 20 21  4  0  0  0  0
 20 24  4  0  0  0  0
 21 22  4  0  0  0  0
 21 28  4  0  0  0  0
 22 23  4  0  0  0  0
 22 25  4  0  0  0  0
 23 24  4  0  0  0  0
 25 26  4  0  0  0  0
 26 27  4  0  0  0  0
 27 28  4  0  0  0  0
M  END
>  <Name_Molregno>
599891

>  <HISTAMINE H3>
6.4

$$$$
599892
  Marvin  02231216192D 0   1.00000     0.00000     0

 28 32  0  0  1  0  0  0  0  0999 V2000
    0.1736   -0.6487    0.0000 O   0  0  0  0  0  0  0  0  0
   -0.6333   -0.8202    0.0000 C   0  0  0  0  0  0  0  0  0
   -0.8883   -1.6048    0.0000 N   0  0  0  0  0  0  0  0  0
   -0.4034   -2.2723    0.0000 C   0  0  0  0  0  0  0  0  0
   -0.8883   -2.9397    0.0000 C   0  0  0  0  0  0  0  0  0
   -0.6333   -3.7243    0.0000 N   0  0  0  0  0  0  0  0  0
    0.1513   -3.9793    0.0000 C   0  0  0  0  0  0  0  0  0
    0.1513   -4.8043    0.0000 C   0  0  0  0  0  0  0  0  0
   -0.6333   -5.0592    0.0000 C   0  0  0  0  0  0  0  0  0
   -1.1183   -4.3918    0.0000 C   0  0  0  0  0  0  0  0  0
   -1.6729   -2.6848    0.0000 C   0  0  0  0  0  0  0  0  0
   -1.6729   -1.8598    0.0000 C   0  0  0  0  0  0  0  0  0
   -1.1854   -0.2071    0.0000 C   0  0  0  0  0  0  0  0  0
   -1.9923   -0.3787    0.0000 C   0  0  0  0  0  0  0  0  0
   -2.5444    0.2344    0.0000 C   0  0  0  0  0  0  0  0  0
   -2.2894    1.0191    0.0000 C   0  0  0  0  0  0  0  0  0
   -1.4825    1.1906    0.0000 C   0  0  0  0  0  0  0  0  0
   -0.9304    0.5775    0.0000 C   0  0  0  0  0  0  0  0  0
   -0.1235    0.7490    0.0000 C   0  0  0  0  0  0  0  0  0
    0.1315    1.5336    0.0000 N   0  0  0  0  0  0  0  0  0
    0.9161    1.7886    0.0000 C   0  0  0  0  0  0  0  0  0
    0.9161    2.6136    0.0000 C   0  0  0  0  0  0  0  0  0
    0.1315    2.8685    0.0000 N   0  0  0  0  0  0  0  0  0
   -0.3534    2.2011    0.0000 C   0  0  0  0  0  0  0  0  0
    1.6306    3.0261    0.0000 C   0  0  0  0  0  0  0  0  0
    2.3450    2.6136    0.0000 C   0  0  0  0  0  0  0  0  0
    2.3450    1.7886    0.0000 C   0  0  0  0  0  0  0  0  0
    1.6306    1.3761    0.0000 C   0  0  0  0  0  0  0  0  0
  1  2  2  0  0  0  0
  2  3  1  0  0  0  0
  2 13  1  0  0  0  0
  3  4  1  0  0  0  0
  3 12  1  0  0  0  0
  4  5  1  0  0  0  0
  5  6  1  0  0  0  0
  5 11  1  0  0  0  0
  6  7  1  0  0  0  0
  6 10  1  0  0  0  0
  7  8  1  0  0  0  0
  8  9  1  0  0  0  0
  9 10  1  0  0  0  0
 11 12  1  0  0  0  0
 13 14  4  0  0  0  0
 13 18  4  0  0  0  0
 14 15  4  0  0  0  0
 15 16  4  0  0  0  0
 16 17  4  0  0  0  0
 17 18  4  0  0  0  0
 18 19  1  0  0  0  0
 19 20  1  0  0  0  0
 20 21  4  0  0  0  0
 20 24  4  0  0  0  0
 21 22  4  0  0  0  0
 21 28  4  0  0  0  0
 22 23  4  0  0  0  0
 22 25  4  0  0  0  0
 23 24  4  0  0  0  0
 25 26  4  0  0  0  0
 26 27  4  0  0  0  0
 27 28  4  0  0  0  0
M  END
>  <Name_Molregno>
599892

>  <HISTAMINE H3>
5.4

$$$$
599974
  Marvin  02231216192D 0   1.00000     0.00000     0

 28 32  0  0  1  0  0  0  0  0999 V2000
   -0.6477   -0.2168    0.0000 O   0  0  0  0  0  0  0  0  0
   -0.0957   -0.8299    0.0000 C   0  0  0  0  0  0  0  0  0
   -0.3507   -1.6145    0.0000 N   0  0  0  0  0  0  0  0  0
    0.1343   -2.2820    0.0000 C   0  0  0  0  0  0  0  0  0
   -0.3507   -2.9494    0.0000 C   0  0  0  0  0  0  0  0  0
   -0.0957   -3.7340    0.0000 N   0  0  0  0  0  0  0  0  0
    0.6889   -3.9890    0.0000 C   0  0  0  0  0  0  0  0  0
    0.6889   -4.8140    0.0000 C   0  0  0  0  0  0  0  0  0
   -0.0957   -5.0689    0.0000 C   0  0  0  0  0  0  0  0  0
   -0.5806   -4.4015    0.0000 C   0  0  0  0  0  0  0  0  0
   -1.1353   -2.6945    0.0000 C   0  0  0  0  0  0  0  0  0
   -1.1353   -1.8695    0.0000 C   0  0  0  0  0  0  0  0  0
    0.7113   -0.6584    0.0000 C   0  0  0  0  0  0  0  0  0
    0.9662    0.1262    0.0000 C   0  0  0  0  0  0  0  0  0
    1.7732    0.2977    0.0000 C   0  0  0  0  0  0  0  0  0
    2.3252   -0.3153    0.0000 C   0  0  0  0  0  0  0  0  0
    2.0703   -1.1000    0.0000 C   0  0  0  0  0  0  0  0  0
    1.2633   -1.2715    0.0000 C   0  0  0  0  0  0  0  0  0
    3.1322   -0.1438    0.0000 C   0  0  0  0  0  0  0  0  0
    3.3871    0.6408    0.0000 N   0  0  0  0  0  0  0  0  0
    4.1717    0.8957    0.0000 C   0  0  0  0  0  0  0  0  0
    4.1717    1.7207    0.0000 C   0  0  0  0  0  0  0  0  0
    4.8862    2.1332    0.0000 C   0  0  0  0  0  0  0  0  0
    5.6007    1.7207    0.0000 C   0  0  0  0  0  0  0  0  0
    5.6007    0.8957    0.0000 C   0  0  0  0  0  0  0  0  0
    4.8862    0.4832    0.0000 C   0  0  0  0  0  0  0  0  0
    3.3871    1.9757    0.0000 C   0  0  0  0  0  0  0  0  0
    2.9022    1.3082    0.0000 C   0  0  0  0  0  0  0  0  0
  1  2  2  0  0  0  0
  2  3  1  0  0  0  0
  2 13  1  0  0  0  0
  3  4  1  0  0  0  0
  3 12  1  0  0  0  0
  4  5  1  0  0  0  0
  5  6  1  0  0  0  0
  5 11  1  0  0  0  0
  6  7  1  0  0  0  0
  6 10  1  0  0  0  0
  7  8  1  0  0  0  0
  8  9  1  0  0  0  0
  9 10  1  0  0  0  0
 11 12  1  0  0  0  0
 13 14  4  0  0  0  0
 13 18  4  0  0  0  0
 14 15  4  0  0  0  0
 15 16  4  0  0  0  0
 16 17  4  0  0  0  0
 16 19  1  0  0  0  0
 17 18  4  0  0  0  0
 19 20  1  0  0  0  0
 20 21  4  0  0  0  0
 20 28  4  0  0  0  0
 21 22  4  0  0  0  0
 21 26  4  0  0  0  0
 22 23  4  0  0  0  0
 22 27  4  0  0  0  0
 23 24  4  0  0  0  0
 24 25  4  0  0  0  0
 25 26  4  0  0  0  0
 27 28  4  0  0  0  0
M  END
>  <Name_Molregno>
599974

>  <HISTAMINE H3>
7.82

$$$$
599975
  Marvin  02231216192D 0   1.00000     0.00000     0

 29 33  0  0  1  0  0  0  0  0999 V2000
    0.4260   -1.6121    0.0000 Cl  0  0  0  0  0  0  0  0  0
    0.4260   -0.7871    0.0000 C   0  0  0  0  0  0  0  0  0
   -0.2885   -0.3746    0.0000 C   0  0  0  0  0  0  0  0  0
   -1.0731   -0.6295    0.0000 N   0  0  0  0  0  0  0  0  0
   -1.5581    0.0379    0.0000 C   0  0  0  0  0  0  0  0  0
   -1.0731    0.7053    0.0000 C   0  0  0  0  0  0  0  0  0
   -0.2885    0.4504    0.0000 C   0  0  0  0  0  0  0  0  0
    0.4260    0.8629    0.0000 C   0  0  0  0  0  0  0  0  0
    1.1404    0.4504    0.0000 C   0  0  0  0  0  0  0  0  0
    1.1404   -0.3746    0.0000 C   0  0  0  0  0  0  0  0  0
   -1.3281   -1.4142    0.0000 C   0  0  0  0  0  0  0  0  0
   -2.1351   -1.5857    0.0000 C   0  0  0  0  0  0  0  0  0
   -2.3900   -2.3703    0.0000 C   0  0  0  0  0  0  0  0  0
   -3.1970   -2.5418    0.0000 C   0  0  0  0  0  0  0  0  0
   -3.7490   -1.9287    0.0000 C   0  0  0  0  0  0  0  0  0
   -3.4941   -1.1441    0.0000 C   0  0  0  0  0  0  0  0  0
   -2.6871   -0.9726    0.0000 C   0  0  0  0  0  0  0  0  0
   -4.5560   -2.1003    0.0000 C   0  0  0  0  0  0  0  0  0
   -4.8109   -2.8849    0.0000 O   0  0  0  0  0  0  0  0  0
   -5.1080   -1.4872    0.0000 N   0  0  0  0  0  0  0  0  0
   -5.9285   -1.5734    0.0000 C   0  0  0  0  0  0  0  0  0
   -6.2640   -0.8197    0.0000 C   0  0  0  0  0  0  0  0  0
   -7.0710   -0.6482    0.0000 N   0  0  0  0  0  0  0  0  0
   -7.6841   -1.2002    0.0000 C   0  0  0  0  0  0  0  0  0
   -8.3986   -0.7877    0.0000 C   0  0  0  0  0  0  0  0  0
   -8.2270    0.0192    0.0000 C   0  0  0  0  0  0  0  0  0
   -7.4066    0.1055    0.0000 C   0  0  0  0  0  0  0  0  0
   -5.6509   -0.2677    0.0000 C   0  0  0  0  0  0  0  0  0
   -4.9365   -0.6802    0.0000 C   0  0  0  0  0  0  0  0  0
  1  2  1  0  0  0  0
  2  3  4  0  0  0  0
  2 10  4  0  0  0  0
  3  4  4  0  0  0  0
  3  7  4  0  0  0  0
  4  5  4  0  0  0  0
  4 11  1  0  0  0  0
  5  6  4  0  0  0  0
  6  7  4  0  0  0  0
  7  8  4  0  0  0  0
  8  9  4  0  0  0  0
  9 10  4  0  0  0  0
 11 12  1  0  0  0  0
 12 13  4  0  0  0  0
 12 17  4  0  0  0  0
 13 14  4  0  0  0  0
 14 15  4  0  0  0  0
 15 16  4  0  0  0  0
 15 18  1  0  0  0  0
 16 17  4  0  0  0  0
 18 19  2  0  0  0  0
 18 20  1  0  0  0  0
 20 21  1  0  0  0  0
 20 29  1  0  0  0  0
 21 22  1  0  0  0  0
 22 23  1  0  0  0  0
 22 28  1  0  0  0  0
 23 24  1  0  0  0  0
 23 27  1  0  0  0  0
 24 25  1  0  0  0  0
 25 26  1  0  0  0  0
 26 27  1  0  0  0  0
 28 29  1  0  0  0  0
M  END
>  <Name_Molregno>
599975

>  <HISTAMINE H3>
8.6

$$$$
599976
  Marvin  02231216192D 0   1.00000     0.00000     0

 29 33  0  0  1  0  0  0  0  0999 V2000
    0.2312    0.3100    0.0000 Cl  0  0  0  0  0  0  0  0  0
   -0.4833    0.7225    0.0000 C   0  0  0  0  0  0  0  0  0
   -1.1978    0.3100    0.0000 C   0  0  0  0  0  0  0  0  0
   -1.9123    0.7225    0.0000 C   0  0  0  0  0  0  0  0  0
   -2.6969    0.4676    0.0000 N   0  0  0  0  0  0  0  0  0
   -3.1818    1.1350    0.0000 C   0  0  0  0  0  0  0  0  0
   -2.6969    1.8025    0.0000 C   0  0  0  0  0  0  0  0  0
   -1.9123    1.5475    0.0000 C   0  0  0  0  0  0  0  0  0
   -1.1978    1.9600    0.0000 C   0  0  0  0  0  0  0  0  0
   -0.4833    1.5475    0.0000 C   0  0  0  0  0  0  0  0  0
   -2.9518   -0.3170    0.0000 C   0  0  0  0  0  0  0  0  0
   -3.7588   -0.4886    0.0000 C   0  0  0  0  0  0  0  0  0
   -4.0137   -1.2732    0.0000 C   0  0  0  0  0  0  0  0  0
   -4.8207   -1.4447    0.0000 C   0  0  0  0  0  0  0  0  0
   -5.3727   -0.8316    0.0000 C   0  0  0  0  0  0  0  0  0
   -5.1178   -0.0470    0.0000 C   0  0  0  0  0  0  0  0  0
   -4.3108    0.1245    0.0000 C   0  0  0  0  0  0  0  0  0
   -6.1797   -1.0032    0.0000 C   0  0  0  0  0  0  0  0  0
   -6.4346   -1.7878    0.0000 O   0  0  0  0  0  0  0  0  0
   -6.7317   -0.3901    0.0000 N   0  0  0  0  0  0  0  0  0
   -7.5522   -0.4763    0.0000 C   0  0  0  0  0  0  0  0  0
   -7.8878    0.2774    0.0000 C   0  0  0  0  0  0  0  0  0
   -8.6947    0.4489    0.0000 N   0  0  0  0  0  0  0  0  0
   -9.3078   -0.1031    0.0000 C   0  0  0  0  0  0  0  0  0
  -10.0223    0.3094    0.0000 C   0  0  0  0  0  0  0  0  0
   -9.8508    1.1163    0.0000 C   0  0  0  0  0  0  0  0  0
   -9.0303    1.2026    0.0000 C   0  0  0  0  0  0  0  0  0
   -7.2747    0.8294    0.0000 C   0  0  0  0  0  0  0  0  0
   -6.5602    0.4169    0.0000 C   0  0  0  0  0  0  0  0  0
  1  2  1  0  0  0  0
  2  3  4  0  0  0  0
  2 10  4  0  0  0  0
  3  4  4  0  0  0  0
  4  5  4  0  0  0  0
  4  8  4  0  0  0  0
  5  6  4  0  0  0  0
  5 11  1  0  0  0  0
  6  7  4  0  0  0  0
  7  8  4  0  0  0  0
  8  9  4  0  0  0  0
  9 10  4  0  0  0  0
 11 12  1  0  0  0  0
 12 13  4  0  0  0  0
 12 17  4  0  0  0  0
 13 14  4  0  0  0  0
 14 15  4  0  0  0  0
 15 16  4  0  0  0  0
 15 18  1  0  0  0  0
 16 17  4  0  0  0  0
 18 19  2  0  0  0  0
 18 20  1  0  0  0  0
 20 21  1  0  0  0  0
 20 29  1  0  0  0  0
 21 22  1  0  0  0  0
 22 23  1  0  0  0  0
 22 28  1  0  0  0  0
 23 24  1  0  0  0  0
 23 27  1  0  0  0  0
 24 25  1  0  0  0  0
 25 26  1  0  0  0  0
 26 27  1  0  0  0  0
 28 29  1  0  0  0  0
M  END
>  <Name_Molregno>
599976

>  <HISTAMINE H3>
6.82

$$$$
599977
  Marvin  02231216192D 0   1.00000     0.00000     0

 29 33  0  0  1  0  0  0  0  0999 V2000
    6.1469   -2.5781    0.0000 Cl  0  0  0  0  0  0  0  0  0
    5.4324   -2.1656    0.0000 C   0  0  0  0  0  0  0  0  0
    4.7179   -2.5781    0.0000 C   0  0  0  0  0  0  0  0  0
    4.0034   -2.1656    0.0000 C   0  0  0  0  0  0  0  0  0
    4.0034   -1.3406    0.0000 C   0  0  0  0  0  0  0  0  0
    3.2188   -1.0856    0.0000 N   0  0  0  0  0  0  0  0  0
    2.7339   -1.7531    0.0000 C   0  0  0  0  0  0  0  0  0
    3.2188   -2.4205    0.0000 C   0  0  0  0  0  0  0  0  0
    2.9639   -0.3010    0.0000 C   0  0  0  0  0  0  0  0  0
    3.5159    0.3121    0.0000 C   0  0  0  0  0  0  0  0  0
    3.2610    1.0967    0.0000 C   0  0  0  0  0  0  0  0  0
    3.8130    1.7098    0.0000 C   0  0  0  0  0  0  0  0  0
    4.6200    1.5383    0.0000 C   0  0  0  0  0  0  0  0  0
    4.8749    0.7537    0.0000 C   0  0  0  0  0  0  0  0  0
    4.3229    0.1406    0.0000 C   0  0  0  0  0  0  0  0  0
    5.1720    2.1514    0.0000 C   0  0  0  0  0  0  0  0  0
    4.9171    2.9360    0.0000 O   0  0  0  0  0  0  0  0  0
    5.9790    1.9798    0.0000 N   0  0  0  0  0  0  0  0  0
    6.5921    2.5319    0.0000 C   0  0  0  0  0  0  0  0  0
    7.3066    2.1194    0.0000 C   0  0  0  0  0  0  0  0  0
    8.0602    2.4549    0.0000 N   0  0  0  0  0  0  0  0  0
    8.2318    3.2619    0.0000 C   0  0  0  0  0  0  0  0  0
    9.0522    3.3481    0.0000 C   0  0  0  0  0  0  0  0  0
    9.3878    2.5945    0.0000 C   0  0  0  0  0  0  0  0  0
    8.7747    2.0424    0.0000 C   0  0  0  0  0  0  0  0  0
    7.1350    1.3124    0.0000 C   0  0  0  0  0  0  0  0  0
    6.3145    1.2262    0.0000 C   0  0  0  0  0  0  0  0  0
    4.7179   -0.9281    0.0000 C   0  0  0  0  0  0  0  0  0
    5.4324   -1.3406    0.0000 C   0  0  0  0  0  0  0  0  0
  1  2  1  0  0  0  0
  2  3  4  0  0  0  0
  2 29  4  0  0  0  0
  3  4  4  0  0  0  0
  4  5  4  0  0  0  0
  4  8  4  0  0  0  0
  5  6  4  0  0  0  0
  5 28  4  0  0  0  0
  6  7  4  0  0  0  0
  6  9  1  0  0  0  0
  7  8  4  0  0  0  0
  9 10  1  0  0  0  0
 10 11  4  0  0  0  0
 10 15  4  0  0  0  0
 11 12  4  0  0  0  0
 12 13  4  0  0  0  0
 13 14  4  0  0  0  0
 13 16  1  0  0  0  0
 14 15  4  0  0  0  0
 16 17  2  0  0  0  0
 16 18  1  0  0  0  0
 18 19  1  0  0  0  0
 18 27  1  0  0  0  0
 19 20  1  0  0  0  0
 20 21  1  0  0  0  0
 20 26  1  0  0  0  0
 21 22  1  0  0  0  0
 21 25  1  0  0  0  0
 22 23  1  0  0  0  0
 23 24  1  0  0  0  0
 24 25  1  0  0  0  0
 26 27  1  0  0  0  0
 28 29  4  0  0  0  0
M  END
>  <Name_Molregno>
599977

>  <HISTAMINE H3>
6.89

$$$$
600869
  Marvin  02231216192D 0   1.00000     0.00000     0

 33 37  0  0  1  0  0  0  0  0999 V2000
    2.7572   -3.8291    0.0000 O   0  0  0  0  0  0  0  0  0
    3.0121   -3.0445    0.0000 C   0  0  0  0  0  0  0  0  0
    3.8191   -2.8729    0.0000 N   0  0  0  0  0  0  0  0  0
    4.1547   -2.1193    0.0000 C   0  0  0  0  0  0  0  0  0
    4.9752   -2.2055    0.0000 C   0  0  0  0  0  0  0  0  0
    5.5272   -1.5924    0.0000 N   0  0  0  0  0  0  0  0  0
    6.3342   -1.7639    0.0000 C   0  0  0  0  0  0  0  0  0
    6.8862   -1.1508    0.0000 C   0  0  0  0  0  0  0  0  0
    5.2723   -0.8078    0.0000 C   0  0  0  0  0  0  0  0  0
    5.1467   -3.0125    0.0000 C   0  0  0  0  0  0  0  0  0
    4.4322   -3.4250    0.0000 C   0  0  0  0  0  0  0  0  0
    2.4601   -2.4314    0.0000 C   0  0  0  0  0  0  0  0  0
    1.6531   -2.6029    0.0000 C   0  0  0  0  0  0  0  0  0
    1.1011   -1.9898    0.0000 C   0  0  0  0  0  0  0  0  0
    1.3560   -1.2052    0.0000 C   0  0  0  0  0  0  0  0  0
    2.1630   -1.0337    0.0000 C   0  0  0  0  0  0  0  0  0
    2.7151   -1.6468    0.0000 C   0  0  0  0  0  0  0  0  0
    0.8040   -0.5921    0.0000 C   0  0  0  0  0  0  0  0  0
    1.0590    0.1925    0.0000 N   0  0  0  0  0  0  0  0  0
    1.8436    0.4475    0.0000 C   0  0  0  0  0  0  0  0  0
    1.8436    1.2725    0.0000 C   0  0  0  0  0  0  0  0  0
    1.0590    1.5274    0.0000 N   0  0  0  0  0  0  0  0  0
    0.5740    0.8600    0.0000 C   0  0  0  0  0  0  0  0  0
   -0.2510    0.8600    0.0000 C   0  0  0  0  0  0  0  0  0
   -0.6635    0.1455    0.0000 C   0  0  0  0  0  0  0  0  0
   -1.4885    0.1455    0.0000 C   0  0  0  0  0  0  0  0  0
   -1.9010    0.8600    0.0000 C   0  0  0  0  0  0  0  0  0
   -1.4885    1.5744    0.0000 C   0  0  0  0  0  0  0  0  0
   -0.6635    1.5744    0.0000 C   0  0  0  0  0  0  0  0  0
    2.5580    1.6850    0.0000 C   0  0  0  0  0  0  0  0  0
    3.2725    1.2725    0.0000 C   0  0  0  0  0  0  0  0  0
    3.2725    0.4475    0.0000 C   0  0  0  0  0  0  0  0  0
    2.5580    0.0350    0.0000 C   0  0  0  0  0  0  0  0  0
  1  2  2  0  0  0  0
  2  3  1  0  0  0  0
  2 12  1  0  0  0  0
  3  4  1  0  0  0  0
  3 11  1  0  0  0  0
  4  5  1  0  0  0  0
  5  6  1  0  0  0  0
  5 10  1  0  0  0  0
  6  7  1  0  0  0  0
  6  9  1  0  0  0  0
  7  8  1  0  0  0  0
 10 11  1  0  0  0  0
 12 13  4  0  0  0  0
 12 17  4  0  0  0  0
 13 14  4  0  0  0  0
 14 15  4  0  0  0  0
 15 16  4  0  0  0  0
 15 18  1  0  0  0  0
 16 17  4  0  0  0  0
 18 19  1  0  0  0  0
 19 20  4  0  0  0  0
 19 23  4  0  0  0  0
 20 21  4  0  0  0  0
 20 33  4  0  0  0  0
 21 22  4  0  0  0  0
 21 30  4  0  0  0  0
 22 23  4  0  0  0  0
 23 24  1  0  0  0  0
 24 25  4  0  0  0  0
 24 29  4  0  0  0  0
 25 26  4  0  0  0  0
 26 27  4  0  0  0  0
 27 28  4  0  0  0  0
 28 29  4  0  0  0  0
 30 31  4  0  0  0  0
 31 32  4  0  0  0  0
 32 33  4  0  0  0  0
M  END
>  <Name_Molregno>
600869

>  <HISTAMINE H3>
7.04

$$$$
601190
  Marvin  02231216192D 0   1.00000     0.00000     0

 20 22  0  0  1  0  0  0  0  0999 V2000
   -0.0713   -2.2634    0.0000 Cl  0  0  0  0  0  0  0  0  0
    0.6432   -1.8509    0.0000 C   0  0  0  0  0  0  0  0  0
    0.6432   -1.0259    0.0000 C   0  0  0  0  0  0  0  0  0
    1.3577   -0.6134    0.0000 C   0  0  0  0  0  0  0  0  0
    2.0722   -1.0259    0.0000 C   0  0  0  0  0  0  0  0  0
    2.0722   -1.8509    0.0000 C   0  0  0  0  0  0  0  0  0
    1.3577   -2.2634    0.0000 C   0  0  0  0  0  0  0  0  0
    2.7866   -0.6134    0.0000 C   0  0  0  0  0  0  0  0  0
    3.5011   -1.0259    0.0000 N   0  0  0  0  0  0  0  0  0
    4.2156   -0.6134    0.0000 C   0  0  0  0  0  0  0  0  0
    4.9300   -1.0259    0.0000 C   0  0  0  0  0  0  0  0  0
    5.6445   -0.6134    0.0000 C   0  0  0  0  0  0  0  0  0
    6.0570    0.1011    0.0000 C   0  0  0  0  0  0  0  0  0
    6.4695   -0.6134    0.0000 C   0  0  0  0  0  0  0  0  0
    7.1840   -1.0259    0.0000 C   0  0  0  0  0  0  0  0  0
    7.9377   -0.6904    0.0000 N   0  0  0  0  0  0  0  0  0
    8.4897   -1.3034    0.0000 C   0  0  0  0  0  0  0  0  0
    8.0772   -2.0179    0.0000 N   0  0  0  0  0  0  0  0  0
    7.2702   -1.8464    0.0000 C   0  0  0  0  0  0  0  0  0
    6.6571   -2.3984    0.0000 C   0  0  0  0  0  0  0  0  0
  1  2  1  0  0  0  0
  2  3  4  0  0  0  0
  2  7  4  0  0  0  0
  3  4  4  0  0  0  0
  4  5  4  0  0  0  0
  5  6  4  0  0  0  0
  5  8  1  0  0  0  0
  6  7  4  0  0  0  0
  8  9  1  0  0  0  0
  9 10  1  0  0  0  0
 10 11  1  0  0  0  0
 11 12  1  0  0  0  0
 12 13  1  0  0  0  0
 12 14  1  0  0  0  0
 13 14  1  0  0  0  0
 14 15  1  0  0  0  0
 15 16  4  0  0  0  0
 15 19  4  0  0  0  0
 16 17  4  0  0  0  0
 17 18  4  0  0  0  0
 18 19  4  0  0  0  0
 19 20  1  0  0  0  0
M  STY  1   1 DAT
M  SAL   1  1  18
M  SDT   1 MRV_IMPLICIT_H                                        
M  SDD   1     0.0000    0.0000    DR    ALL  0       0  
M  SED   1 IMPL_H1
M  END
>  <Name_Molregno>
601190

>  <HISTAMINE H3>
7.41

>  <HISTAMINE H4>
6.83

$$$$
601255
  Marvin  02231216192D 0   1.00000     0.00000     0

 19 21  0  0  1  0  0  0  0  0999 V2000
    7.3991    2.6955    0.0000 Cl  0  0  0  0  0  0  0  0  0
    6.6846    2.2830    0.0000 C   0  0  0  0  0  0  0  0  0
    6.6846    1.4580    0.0000 C   0  0  0  0  0  0  0  0  0
    5.9702    1.0455    0.0000 C   0  0  0  0  0  0  0  0  0
    5.2557    1.4580    0.0000 C   0  0  0  0  0  0  0  0  0
    5.2557    2.2830    0.0000 C   0  0  0  0  0  0  0  0  0
    5.9702    2.6955    0.0000 C   0  0  0  0  0  0  0  0  0
    4.5412    1.0455    0.0000 C   0  0  0  0  0  0  0  0  0
    4.5412    0.2205    0.0000 N   0  0  0  0  0  0  0  0  0
    3.8268   -0.1920    0.0000 C   0  0  0  0  0  0  0  0  0
    3.8268   -1.0170    0.0000 C   0  0  0  0  0  0  0  0  0
    4.2393   -1.7315    0.0000 C   0  0  0  0  0  0  0  0  0
    3.4143   -1.7315    0.0000 C   0  0  0  0  0  0  0  0  0
    2.6998   -2.1440    0.0000 C   0  0  0  0  0  0  0  0  0
    2.6136   -2.9645    0.0000 N   0  0  0  0  0  0  0  0  0
    1.8066   -3.1360    0.0000 C   0  0  0  0  0  0  0  0  0
    1.3941   -2.4216    0.0000 N   0  0  0  0  0  0  0  0  0
    1.9461   -1.8085    0.0000 C   0  0  0  0  0  0  0  0  0
    1.7746   -1.0015    0.0000 C   0  0  0  0  0  0  0  0  0
  1  2  1  0  0  0  0
  2  3  4  0  0  0  0
  2  7  4  0  0  0  0
  3  4  4  0  0  0  0
  4  5  4  0  0  0  0
  5  6  4  0  0  0  0
  5  8  1  0  0  0  0
  6  7  4  0  0  0  0
  8  9  1  0  0  0  0
  9 10  1  0  0  0  0
 10 11  1  0  0  0  0
 11 12  1  0  0  0  0
 11 13  1  0  0  0  0
 12 13  1  0  0  0  0
 13 14  1  0  0  0  0
 14 15  4  0  0  0  0
 14 18  4  0  0  0  0
 15 16  4  0  0  0  0
 16 17  4  0  0  0  0
 17 18  4  0  0  0  0
 18 19  1  0  0  0  0
M  STY  1   1 DAT
M  SAL   1  1  17
M  SDT   1 MRV_IMPLICIT_H                                        
M  SDD   1     0.0000    0.0000    DR    ALL  0       0  
M  SED   1 IMPL_H1
M  END
>  <Name_Molregno>
601255

>  <HISTAMINE H3>
6

>  <HISTAMINE H4>
6

$$$$
610113
  Marvin  02231216192D 0   1.00000     0.00000     0

 20 21  0  0  0  0  0  0  0  0999 V2000
   -0.1733   -2.3952    0.0000 Cl  0  0  0  0  0  0  0  0  0
    0.5412   -1.9827    0.0000 C   0  0  0  0  0  0  0  0  0
    0.5412   -1.1577    0.0000 C   0  0  0  0  0  0  0  0  0
    1.2557   -0.7452    0.0000 C   0  0  0  0  0  0  0  0  0
    1.9702   -1.1577    0.0000 C   0  0  0  0  0  0  0  0  0
    1.9702   -1.9827    0.0000 C   0  0  0  0  0  0  0  0  0
    1.2557   -2.3952    0.0000 C   0  0  0  0  0  0  0  0  0
    2.6846   -0.7452    0.0000 C   0  0  0  0  0  0  0  0  0
    3.3991   -1.1577    0.0000 N   0  0  0  0  0  0  0  0  0
    4.1136   -0.7452    0.0000 C   0  0  0  0  0  0  0  0  0
    4.8280   -1.1577    0.0000 S   0  0  0  0  0  0  0  0  0
    5.5425   -0.7452    0.0000 C   0  0  0  0  0  0  0  0  0
    6.2570   -1.1577    0.0000 C   0  0  0  0  0  0  0  0  0
    6.9715   -0.7452    0.0000 C   0  0  0  0  0  0  0  0  0
    7.6859   -1.1577    0.0000 C   0  0  0  0  0  0  0  0  0
    8.4396   -0.8222    0.0000 N   0  0  0  0  0  0  0  0  0
    8.9916   -1.4353    0.0000 C   0  0  0  0  0  0  0  0  0
    8.5791   -2.1497    0.0000 C   0  0  0  0  0  0  0  0  0
    7.7722   -1.9782    0.0000 N   0  0  0  0  0  0  0  0  0
    4.1136    0.0798    0.0000 N   0  0  0  0  0  0  0  0  0
  1  2  1  0  0  0  0
  2  3  4  0  0  0  0
  2  7  4  0  0  0  0
  3  4  4  0  0  0  0
  4  5  4  0  0  0  0
  5  6  4  0  0  0  0
  5  8  1  0  0  0  0
  6  7  4  0  0  0  0
  8  9  1  0  0  0  0
  9 10  1  0  0  0  0
 10 11  1  0  0  0  0
 10 20  2  0  0  0  0
 11 12  1  0  0  0  0
 12 13  1  0  0  0  0
 13 14  1  0  0  0  0
 14 15  1  0  0  0  0
 15 16  4  0  0  0  0
 15 19  4  0  0  0  0
 16 17  4  0  0  0  0
 17 18  4  0  0  0  0
 18 19  4  0  0  0  0
M  STY  1   1 DAT
M  SAL   1  1  16
M  SDT   1 MRV_IMPLICIT_H                                        
M  SDD   1     0.0000    0.0000    DR    ALL  0       0  
M  SED   1 IMPL_H1
M  END
>  <Name_Molregno>
610113

>  <HISTAMINE H3>
8.95

>  <HISTAMINE H4>
8.15

$$$$
611818
  Marvin  02231216192D 0   1.00000     0.00000     0

 16 16  0  0  1  0  0  0  0  0999 V2000
    0.9933   -0.3397    0.0000 O   0  0  0  0  0  0  0  0  0
    0.2788    0.0728    0.0000 C   0  0  0  0  0  0  0  0  0
   -0.4357   -0.3397    0.0000 C   0  0  0  0  0  0  0  0  0
   -1.1501    0.0728    0.0000 C   0  0  0  0  0  0  0  0  0
   -1.8646   -0.3397    0.0000 C   0  0  0  0  0  0  0  0  0
   -1.9508   -1.1602    0.0000 N   0  0  0  0  0  0  0  0  0
   -2.7578   -1.3317    0.0000 C   0  0  0  0  0  0  0  0  0
   -3.1703   -0.6172    0.0000 N   0  0  0  0  0  0  0  0  0
   -2.6183   -0.0042    0.0000 C   0  0  0  0  0  0  0  0  0
    1.7078    0.0728    0.0000 C   0  0  0  0  0  0  0  0  0
    1.7078    0.8978    0.0000 O   0  0  0  0  0  0  0  0  0
    2.4222   -0.3397    0.0000 N   0  0  0  0  0  0  0  0  0
    3.1367    0.0728    0.0000 C   0  0  0  0  0  0  0  0  0
    3.8512   -0.3397    0.0000 C   0  0  0  0  0  0  0  0  0
    4.5656    0.0728    0.0000 C   0  0  0  0  0  0  0  0  0
    3.1367    0.8978    0.0000 C   0  0  0  0  0  0  0  0  0
  1  2  1  0  0  0  0
  1 10  1  0  0  0  0
  2  3  1  0  0  0  0
  3  4  1  0  0  0  0
  4  5  1  0  0  0  0
  5  6  4  0  0  0  0
  5  9  4  0  0  0  0
  6  7  4  0  0  0  0
  7  8  4  0  0  0  0
  8  9  4  0  0  0  0
 10 11  2  0  0  0  0
 10 12  1  0  0  0  0
 12 13  1  0  0  0  0
 13 14  1  0  0  0  0
 13 16  1  0  0  0  0
 14 15  1  0  0  0  0
M  STY  1   1 DAT
M  SAL   1  1   8
M  SDT   1 MRV_IMPLICIT_H                                        
M  SDD   1     0.0000    0.0000    DR    ALL  0       0  
M  SED   1 IMPL_H1
M  END
>  <Name_Molregno>
611818

>  <HISTAMINE H3>
7.58

>  <HISTAMINE H4>
6.54

$$$$
611821
  Marvin  02231216192D 0   1.00000     0.00000     0

 17 17  0  0  1  0  0  0  0  0999 V2000
    0.4363    0.3224    0.0000 O   0  0  0  0  0  0  0  0  0
   -0.2782   -0.0901    0.0000 C   0  0  0  0  0  0  0  0  0
   -0.9926    0.3224    0.0000 C   0  0  0  0  0  0  0  0  0
   -1.7071   -0.0901    0.0000 C   0  0  0  0  0  0  0  0  0
   -2.4216    0.3224    0.0000 C   0  0  0  0  0  0  0  0  0
   -3.1753   -0.0131    0.0000 N   0  0  0  0  0  0  0  0  0
   -3.7273    0.6000    0.0000 C   0  0  0  0  0  0  0  0  0
   -3.3148    1.3144    0.0000 N   0  0  0  0  0  0  0  0  0
   -2.5078    1.1429    0.0000 C   0  0  0  0  0  0  0  0  0
    1.1508   -0.0901    0.0000 C   0  0  0  0  0  0  0  0  0
    1.1508   -0.9151    0.0000 O   0  0  0  0  0  0  0  0  0
    1.8652    0.3224    0.0000 N   0  0  0  0  0  0  0  0  0
    2.5797   -0.0901    0.0000 C   0  0  0  0  0  0  0  0  0
    3.2942    0.3224    0.0000 C   0  0  0  0  0  0  0  0  0
    4.0087   -0.0901    0.0000 C   0  0  0  0  0  0  0  0  0
    4.7231    0.3224    0.0000 C   0  0  0  0  0  0  0  0  0
    2.5797   -0.9151    0.0000 C   0  0  0  0  0  0  0  0  0
  1  2  1  0  0  0  0
  1 10  1  0  0  0  0
  2  3  1  0  0  0  0
  3  4  1  0  0  0  0
  4  5  1  0  0  0  0
  5  6  4  0  0  0  0
  5  9  4  0  0  0  0
  6  7  4  0  0  0  0
  7  8  4  0  0  0  0
  8  9  4  0  0  0  0
 10 11  2  0  0  0  0
 10 12  1  0  0  0  0
 12 13  1  0  0  0  0
 13 14  1  0  0  0  0
 13 17  1  0  0  0  0
 14 15  1  0  0  0  0
 15 16  1  0  0  0  0
M  STY  1   1 DAT
M  SAL   1  1   8
M  SDT   1 MRV_IMPLICIT_H                                        
M  SDD   1     0.0000    0.0000    DR    ALL  0       0  
M  SED   1 IMPL_H1
M  END
>  <Name_Molregno>
611821

>  <HISTAMINE H3>
7.75

$$$$
611823
  Marvin  02231216192D 0   1.00000     0.00000     0

 17 17  0  0  1  0  0  0  0  0999 V2000
    0.3529    0.0011    0.0000 O   0  0  0  0  0  0  0  0  0
   -0.3616   -0.4114    0.0000 C   0  0  0  0  0  0  0  0  0
   -1.0761    0.0011    0.0000 C   0  0  0  0  0  0  0  0  0
   -1.7906   -0.4114    0.0000 C   0  0  0  0  0  0  0  0  0
   -2.5050    0.0011    0.0000 C   0  0  0  0  0  0  0  0  0
   -3.2587   -0.3344    0.0000 N   0  0  0  0  0  0  0  0  0
   -3.8107    0.2787    0.0000 C   0  0  0  0  0  0  0  0  0
   -3.3982    0.9931    0.0000 N   0  0  0  0  0  0  0  0  0
   -2.5913    0.8216    0.0000 C   0  0  0  0  0  0  0  0  0
    1.0673   -0.4114    0.0000 C   0  0  0  0  0  0  0  0  0
    1.0673   -1.2364    0.0000 O   0  0  0  0  0  0  0  0  0
    1.7818    0.0011    0.0000 N   0  0  0  0  0  0  0  0  0
    2.4963   -0.4114    0.0000 C   0  0  0  0  0  0  0  0  0
    3.2107    0.0011    0.0000 C   0  0  0  0  0  0  0  0  0
    3.9252   -0.4114    0.0000 C   0  0  0  0  0  0  0  0  0
    4.6397    0.0011    0.0000 C   0  0  0  0  0  0  0  0  0
    3.2107    0.8261    0.0000 C   0  0  0  0  0  0  0  0  0
  1  2  1  0  0  0  0
  1 10  1  0  0  0  0
  2  3  1  0  0  0  0
  3  4  1  0  0  0  0
  4  5  1  0  0  0  0
  5  6  4  0  0  0  0
  5  9  4  0  0  0  0
  6  7  4  0  0  0  0
  7  8  4  0  0  0  0
  8  9  4  0  0  0  0
 10 11  2  0  0  0  0
 10 12  1  0  0  0  0
 12 13  1  0  0  0  0
 13 14  1  0  0  0  0
 14 15  1  0  0  0  0
 14 17  1  0  0  0  0
 15 16  1  0  0  0  0
M  STY  1   1 DAT
M  SAL   1  1   8
M  SDT   1 MRV_IMPLICIT_H                                        
M  SDD   1     0.0000    0.0000    DR    ALL  0       0  
M  SED   1 IMPL_H1
M  END
>  <Name_Molregno>
611823

>  <HISTAMINE H3>
8.33

>  <HISTAMINE H4>
6.93

$$$$
611887
  Marvin  02231216192D 0   1.00000     0.00000     0

 18 18  0  0  1  0  0  0  0  0999 V2000
   -0.1376   -0.3501    0.0000 O   0  0  0  0  0  0  0  0  0
   -0.8520    0.0624    0.0000 C   0  0  0  0  0  0  0  0  0
   -1.5665   -0.3501    0.0000 C   0  0  0  0  0  0  0  0  0
   -2.2810    0.0624    0.0000 C   0  0  0  0  0  0  0  0  0
   -2.9955   -0.3501    0.0000 C   0  0  0  0  0  0  0  0  0
   -3.0817   -1.1706    0.0000 N   0  0  0  0  0  0  0  0  0
   -3.8887   -1.3422    0.0000 C   0  0  0  0  0  0  0  0  0
   -4.3012   -0.6277    0.0000 N   0  0  0  0  0  0  0  0  0
   -3.7491   -0.0146    0.0000 C   0  0  0  0  0  0  0  0  0
    0.5769    0.0624    0.0000 C   0  0  0  0  0  0  0  0  0
    0.5769    0.8874    0.0000 O   0  0  0  0  0  0  0  0  0
    1.2914   -0.3501    0.0000 N   0  0  0  0  0  0  0  0  0
    2.0058    0.0624    0.0000 C   0  0  0  0  0  0  0  0  0
    2.7203   -0.3501    0.0000 C   0  0  0  0  0  0  0  0  0
    3.4348    0.0624    0.0000 C   0  0  0  0  0  0  0  0  0
    4.1492   -0.3501    0.0000 C   0  0  0  0  0  0  0  0  0
    4.8637    0.0624    0.0000 C   0  0  0  0  0  0  0  0  0
    2.0058    0.8874    0.0000 C   0  0  0  0  0  0  0  0  0
  1  2  1  0  0  0  0
  1 10  1  0  0  0  0
  2  3  1  0  0  0  0
  3  4  1  0  0  0  0
  4  5  1  0  0  0  0
  5  6  4  0  0  0  0
  5  9  4  0  0  0  0
  6  7  4  0  0  0  0
  7  8  4  0  0  0  0
  8  9  4  0  0  0  0
 10 11  2  0  0  0  0
 10 12  1  0  0  0  0
 12 13  1  0  0  0  0
 13 14  1  0  0  0  0
 13 18  1  0  0  0  0
 14 15  1  0  0  0  0
 15 16  1  0  0  0  0
 16 17  1  0  0  0  0
M  STY  1   1 DAT
M  SAL   1  1   8
M  SDT   1 MRV_IMPLICIT_H                                        
M  SDD   1     0.0000    0.0000    DR    ALL  0       0  
M  SED   1 IMPL_H1
M  END
>  <Name_Molregno>
611887

>  <HISTAMINE H3>
7.55

>  <HISTAMINE H4>
6.26

$$$$
611890
  Marvin  02231216192D 0   1.00000     0.00000     0

 18 18  0  0  1  0  0  0  0  0999 V2000
   -0.2155   -0.1239    0.0000 O   0  0  0  0  0  0  0  0  0
   -0.9299    0.2886    0.0000 C   0  0  0  0  0  0  0  0  0
   -1.6444   -0.1239    0.0000 C   0  0  0  0  0  0  0  0  0
   -2.3589    0.2886    0.0000 C   0  0  0  0  0  0  0  0  0
   -3.0733   -0.1239    0.0000 C   0  0  0  0  0  0  0  0  0
   -3.1596   -0.9444    0.0000 N   0  0  0  0  0  0  0  0  0
   -3.9665   -1.1159    0.0000 C   0  0  0  0  0  0  0  0  0
   -4.3790   -0.4015    0.0000 N   0  0  0  0  0  0  0  0  0
   -3.8270    0.2116    0.0000 C   0  0  0  0  0  0  0  0  0
    0.4990    0.2886    0.0000 C   0  0  0  0  0  0  0  0  0
    0.4990    1.1136    0.0000 O   0  0  0  0  0  0  0  0  0
    1.2135   -0.1239    0.0000 N   0  0  0  0  0  0  0  0  0
    1.9280    0.2886    0.0000 C   0  0  0  0  0  0  0  0  0
    2.6424   -0.1239    0.0000 C   0  0  0  0  0  0  0  0  0
    3.3569    0.2886    0.0000 C   0  0  0  0  0  0  0  0  0
    4.0714   -0.1239    0.0000 C   0  0  0  0  0  0  0  0  0
    4.7858    0.2886    0.0000 C   0  0  0  0  0  0  0  0  0
    2.6424   -0.9489    0.0000 C   0  0  0  0  0  0  0  0  0
  1  2  1  0  0  0  0
  1 10  1  0  0  0  0
  2  3  1  0  0  0  0
  3  4  1  0  0  0  0
  4  5  1  0  0  0  0
  5  6  4  0  0  0  0
  5  9  4  0  0  0  0
  6  7  4  0  0  0  0
  7  8  4  0  0  0  0
  8  9  4  0  0  0  0
 10 11  2  0  0  0  0
 10 12  1  0  0  0  0
 12 13  1  0  0  0  0
 13 14  1  0  0  0  0
 14 15  1  0  0  0  0
 14 18  1  0  0  0  0
 15 16  1  0  0  0  0
 16 17  1  0  0  0  0
M  STY  1   1 DAT
M  SAL   1  1   8
M  SDT   1 MRV_IMPLICIT_H                                        
M  SDD   1     0.0000    0.0000    DR    ALL  0       0  
M  SED   1 IMPL_H1
M  END
>  <Name_Molregno>
611890

>  <HISTAMINE H3>
8.08

>  <HISTAMINE H4>
6.79

$$$$
611891
  Marvin  02231216192D 0   1.00000     0.00000     0

 18 18  0  0  1  0  0  0  0  0999 V2000
   -0.2922   -0.3516    0.0000 O   0  0  0  0  0  0  0  0  0
   -1.0066    0.0609    0.0000 C   0  0  0  0  0  0  0  0  0
   -1.7211   -0.3516    0.0000 C   0  0  0  0  0  0  0  0  0
   -2.4356    0.0609    0.0000 C   0  0  0  0  0  0  0  0  0
   -3.1501   -0.3516    0.0000 C   0  0  0  0  0  0  0  0  0
   -3.2363   -1.1721    0.0000 N   0  0  0  0  0  0  0  0  0
   -4.0433   -1.3436    0.0000 C   0  0  0  0  0  0  0  0  0
   -4.4558   -0.6291    0.0000 N   0  0  0  0  0  0  0  0  0
   -3.9037   -0.0160    0.0000 C   0  0  0  0  0  0  0  0  0
    0.4223    0.0609    0.0000 C   0  0  0  0  0  0  0  0  0
    0.4223    0.8859    0.0000 O   0  0  0  0  0  0  0  0  0
    1.1368   -0.3516    0.0000 N   0  0  0  0  0  0  0  0  0
    1.8512    0.0609    0.0000 C   0  0  0  0  0  0  0  0  0
    2.5657   -0.3516    0.0000 C   0  0  0  0  0  0  0  0  0
    3.2802    0.0609    0.0000 C   0  0  0  0  0  0  0  0  0
    3.9947   -0.3516    0.0000 C   0  0  0  0  0  0  0  0  0
    4.7091    0.0609    0.0000 C   0  0  0  0  0  0  0  0  0
    3.2802    0.8859    0.0000 C   0  0  0  0  0  0  0  0  0
  1  2  1  0  0  0  0
  1 10  1  0  0  0  0
  2  3  1  0  0  0  0
  3  4  1  0  0  0  0
  4  5  1  0  0  0  0
  5  6  4  0  0  0  0
  5  9  4  0  0  0  0
  6  7  4  0  0  0  0
  7  8  4  0  0  0  0
  8  9  4  0  0  0  0
 10 11  2  0  0  0  0
 10 12  1  0  0  0  0
 12 13  1  0  0  0  0
 13 14  1  0  0  0  0
 14 15  1  0  0  0  0
 15 16  1  0  0  0  0
 15 18  1  0  0  0  0
 16 17  1  0  0  0  0
M  STY  1   1 DAT
M  SAL   1  1   8
M  SDT   1 MRV_IMPLICIT_H                                        
M  SDD   1     0.0000    0.0000    DR    ALL  0       0  
M  SED   1 IMPL_H1
M  END
>  <Name_Molregno>
611891

>  <HISTAMINE H3>
7.89

>  <HISTAMINE H4>
6.91

$$$$
611892
  Marvin  02231216192D 0   1.00000     0.00000     0

 18 18  0  0  0  0  0  0  0  0999 V2000
   -0.3715   -0.1257    0.0000 O   0  0  0  0  0  0  0  0  0
   -1.0859    0.2868    0.0000 C   0  0  0  0  0  0  0  0  0
   -1.8004   -0.1257    0.0000 C   0  0  0  0  0  0  0  0  0
   -2.5149    0.2868    0.0000 C   0  0  0  0  0  0  0  0  0
   -3.2294   -0.1257    0.0000 C   0  0  0  0  0  0  0  0  0
   -3.3156   -0.9462    0.0000 N   0  0  0  0  0  0  0  0  0
   -4.1226   -1.1178    0.0000 C   0  0  0  0  0  0  0  0  0
   -4.5351   -0.4033    0.0000 N   0  0  0  0  0  0  0  0  0
   -3.9830    0.2098    0.0000 C   0  0  0  0  0  0  0  0  0
    0.3430    0.2868    0.0000 C   0  0  0  0  0  0  0  0  0
    0.3430    1.1118    0.0000 O   0  0  0  0  0  0  0  0  0
    1.0575   -0.1257    0.0000 N   0  0  0  0  0  0  0  0  0
    1.7719    0.2868    0.0000 C   0  0  0  0  0  0  0  0  0
    2.4864   -0.1257    0.0000 C   0  0  0  0  0  0  0  0  0
    3.2009    0.2868    0.0000 C   0  0  0  0  0  0  0  0  0
    3.9153   -0.1257    0.0000 C   0  0  0  0  0  0  0  0  0
    4.6298    0.2868    0.0000 C   0  0  0  0  0  0  0  0  0
    3.9153   -0.9507    0.0000 C   0  0  0  0  0  0  0  0  0
  1  2  1  0  0  0  0
  1 10  1  0  0  0  0
  2  3  1  0  0  0  0
  3  4  1  0  0  0  0
  4  5  1  0  0  0  0
  5  6  4  0  0  0  0
  5  9  4  0  0  0  0
  6  7  4  0  0  0  0
  7  8  4  0  0  0  0
  8  9  4  0  0  0  0
 10 11  2  0  0  0  0
 10 12  1  0  0  0  0
 12 13  1  0  0  0  0
 13 14  1  0  0  0  0
 14 15  1  0  0  0  0
 15 16  1  0  0  0  0
 16 17  1  0  0  0  0
 16 18  1  0  0  0  0
M  STY  1   1 DAT
M  SAL   1  1   8
M  SDT   1 MRV_IMPLICIT_H                                        
M  SDD   1     0.0000    0.0000    DR    ALL  0       0  
M  SED   1 IMPL_H1
M  END
>  <Name_Molregno>
611892

>  <HISTAMINE H3>
7.89

$$$$
611893
  Marvin  02231216192D 0   1.00000     0.00000     0

 19 19  0  0  1  0  0  0  0  0999 V2000
   -0.5757   -0.0046    0.0000 O   0  0  0  0  0  0  0  0  0
   -1.2902    0.4079    0.0000 C   0  0  0  0  0  0  0  0  0
   -2.0046   -0.0046    0.0000 C   0  0  0  0  0  0  0  0  0
   -2.7191    0.4079    0.0000 C   0  0  0  0  0  0  0  0  0
   -3.4336   -0.0046    0.0000 C   0  0  0  0  0  0  0  0  0
   -3.5198   -0.8251    0.0000 N   0  0  0  0  0  0  0  0  0
   -4.3268   -0.9966    0.0000 C   0  0  0  0  0  0  0  0  0
   -4.7393   -0.2821    0.0000 N   0  0  0  0  0  0  0  0  0
   -4.1872    0.3310    0.0000 C   0  0  0  0  0  0  0  0  0
    0.1388    0.4079    0.0000 C   0  0  0  0  0  0  0  0  0
    0.1388    1.2329    0.0000 O   0  0  0  0  0  0  0  0  0
    0.8533   -0.0046    0.0000 N   0  0  0  0  0  0  0  0  0
    1.5677    0.4079    0.0000 C   0  0  0  0  0  0  0  0  0
    2.2822   -0.0046    0.0000 C   0  0  0  0  0  0  0  0  0
    2.9967    0.4079    0.0000 C   0  0  0  0  0  0  0  0  0
    3.7111   -0.0046    0.0000 C   0  0  0  0  0  0  0  0  0
    4.4256    0.4079    0.0000 C   0  0  0  0  0  0  0  0  0
    3.7111   -0.8296    0.0000 C   0  0  0  0  0  0  0  0  0
    1.5677    1.2329    0.0000 C   0  0  0  0  0  0  0  0  0
  1  2  1  0  0  0  0
  1 10  1  0  0  0  0
  2  3  1  0  0  0  0
  3  4  1  0  0  0  0
  4  5  1  0  0  0  0
  5  6  4  0  0  0  0
  5  9  4  0  0  0  0
  6  7  4  0  0  0  0
  7  8  4  0  0  0  0
  8  9  4  0  0  0  0
 10 11  2  0  0  0  0
 10 12  1  0  0  0  0
 12 13  1  0  0  0  0
 13 14  1  0  0  0  0
 13 19  1  0  0  0  0
 14 15  1  0  0  0  0
 15 16  1  0  0  0  0
 16 17  1  0  0  0  0
 16 18  1  0  0  0  0
M  STY  1   1 DAT
M  SAL   1  1   8
M  SDT   1 MRV_IMPLICIT_H                                        
M  SDD   1     0.0000    0.0000    DR    ALL  0       0  
M  SED   1 IMPL_H1
M  END
>  <Name_Molregno>
611893

>  <HISTAMINE H3>
7.52

$$$$
611894
  Marvin  02231216192D 0   1.00000     0.00000     0

 19 19  0  0  1  0  0  0  0  0999 V2000
   -0.7236    0.3319    0.0000 O   0  0  0  0  0  0  0  0  0
   -1.4380   -0.0806    0.0000 C   0  0  0  0  0  0  0  0  0
   -2.1525    0.3319    0.0000 C   0  0  0  0  0  0  0  0  0
   -2.8670   -0.0806    0.0000 C   0  0  0  0  0  0  0  0  0
   -3.5814    0.3319    0.0000 C   0  0  0  0  0  0  0  0  0
   -4.3351   -0.0036    0.0000 N   0  0  0  0  0  0  0  0  0
   -4.8871    0.6095    0.0000 C   0  0  0  0  0  0  0  0  0
   -4.4746    1.3239    0.0000 N   0  0  0  0  0  0  0  0  0
   -3.6677    1.1524    0.0000 C   0  0  0  0  0  0  0  0  0
   -0.0091   -0.0806    0.0000 C   0  0  0  0  0  0  0  0  0
   -0.0091   -0.9056    0.0000 O   0  0  0  0  0  0  0  0  0
    0.7054    0.3319    0.0000 N   0  0  0  0  0  0  0  0  0
    1.4199   -0.0806    0.0000 C   0  0  0  0  0  0  0  0  0
    2.1343    0.3319    0.0000 C   0  0  0  0  0  0  0  0  0
    2.8488   -0.0806    0.0000 C   0  0  0  0  0  0  0  0  0
    3.5633    0.3319    0.0000 C   0  0  0  0  0  0  0  0  0
    4.2777   -0.0806    0.0000 C   0  0  0  0  0  0  0  0  0
    4.9922    0.3319    0.0000 C   0  0  0  0  0  0  0  0  0
    1.4199   -0.9056    0.0000 C   0  0  0  0  0  0  0  0  0
  1  2  1  0  0  0  0
  1 10  1  0  0  0  0
  2  3  1  0  0  0  0
  3  4  1  0  0  0  0
  4  5  1  0  0  0  0
  5  6  4  0  0  0  0
  5  9  4  0  0  0  0
  6  7  4  0  0  0  0
  7  8  4  0  0  0  0
  8  9  4  0  0  0  0
 10 11  2  0  0  0  0
 10 12  1  0  0  0  0
 12 13  1  0  0  0  0
 13 14  1  0  0  0  0
 13 19  1  0  0  0  0
 14 15  1  0  0  0  0
 15 16  1  0  0  0  0
 16 17  1  0  0  0  0
 17 18  1  0  0  0  0
M  STY  1   1 DAT
M  SAL   1  1   8
M  SDT   1 MRV_IMPLICIT_H                                        
M  SDD   1     0.0000    0.0000    DR    ALL  0       0  
M  SED   1 IMPL_H1
M  END
>  <Name_Molregno>
611894

>  <HISTAMINE H3>
7.27

>  <HISTAMINE H4>
6.02

$$$$
611978
  Marvin  02231216192D 0   1.00000     0.00000     0

 20 20  0  0  1  0  0  0  0  0999 V2000
   -1.1810    0.0058    0.0000 O   0  0  0  0  0  0  0  0  0
   -1.8954   -0.4067    0.0000 C   0  0  0  0  0  0  0  0  0
   -2.6099    0.0058    0.0000 C   0  0  0  0  0  0  0  0  0
   -3.3244   -0.4067    0.0000 C   0  0  0  0  0  0  0  0  0
   -4.0389    0.0058    0.0000 C   0  0  0  0  0  0  0  0  0
   -4.7925   -0.3297    0.0000 N   0  0  0  0  0  0  0  0  0
   -5.3446    0.2833    0.0000 C   0  0  0  0  0  0  0  0  0
   -4.9321    0.9978    0.0000 N   0  0  0  0  0  0  0  0  0
   -4.1251    0.8263    0.0000 C   0  0  0  0  0  0  0  0  0
   -0.4665   -0.4067    0.0000 C   0  0  0  0  0  0  0  0  0
   -0.4665   -1.2317    0.0000 O   0  0  0  0  0  0  0  0  0
    0.2480    0.0058    0.0000 N   0  0  0  0  0  0  0  0  0
    0.9624   -0.4067    0.0000 C   0  0  0  0  0  0  0  0  0
    1.6769    0.0058    0.0000 C   0  0  0  0  0  0  0  0  0
    2.3914   -0.4067    0.0000 C   0  0  0  0  0  0  0  0  0
    3.1058    0.0058    0.0000 C   0  0  0  0  0  0  0  0  0
    3.8203   -0.4067    0.0000 C   0  0  0  0  0  0  0  0  0
    4.5348    0.0058    0.0000 C   0  0  0  0  0  0  0  0  0
    3.8203   -1.2317    0.0000 C   0  0  0  0  0  0  0  0  0
    0.9624   -1.2317    0.0000 C   0  0  0  0  0  0  0  0  0
  1  2  1  0  0  0  0
  1 10  1  0  0  0  0
  2  3  1  0  0  0  0
  3  4  1  0  0  0  0
  4  5  1  0  0  0  0
  5  6  4  0  0  0  0
  5  9  4  0  0  0  0
  6  7  4  0  0  0  0
  7  8  4  0  0  0  0
  8  9  4  0  0  0  0
 10 11  2  0  0  0  0
 10 12  1  0  0  0  0
 12 13  1  0  0  0  0
 13 14  1  0  0  0  0
 13 20  1  0  0  0  0
 14 15  1  0  0  0  0
 15 16  1  0  0  0  0
 16 17  1  0  0  0  0
 17 18  1  0  0  0  0
 17 19  1  0  0  0  0
M  STY  1   1 DAT
M  SAL   1  1   8
M  SDT   1 MRV_IMPLICIT_H                                        
M  SDD   1     0.0000    0.0000    DR    ALL  0       0  
M  SED   1 IMPL_H1
M  END
>  <Name_Molregno>
611978

>  <HISTAMINE H3>
7.12

$$$$
611979
  Marvin  02231216192D 0   1.00000     0.00000     0

 20 20  0  0  1  0  0  0  0  0999 V2000
   -0.9370    0.1794    0.0000 O   0  0  0  0  0  0  0  0  0
   -1.6515   -0.2331    0.0000 C   0  0  0  0  0  0  0  0  0
   -2.3660    0.1794    0.0000 C   0  0  0  0  0  0  0  0  0
   -3.0805   -0.2331    0.0000 C   0  0  0  0  0  0  0  0  0
   -3.7949    0.1794    0.0000 C   0  0  0  0  0  0  0  0  0
   -4.5486   -0.1562    0.0000 N   0  0  0  0  0  0  0  0  0
   -5.1006    0.4569    0.0000 C   0  0  0  0  0  0  0  0  0
   -4.6881    1.1714    0.0000 N   0  0  0  0  0  0  0  0  0
   -3.8812    0.9998    0.0000 C   0  0  0  0  0  0  0  0  0
   -0.2226   -0.2331    0.0000 C   0  0  0  0  0  0  0  0  0
   -0.2226   -1.0581    0.0000 O   0  0  0  0  0  0  0  0  0
    0.4919    0.1794    0.0000 N   0  0  0  0  0  0  0  0  0
    1.2064   -0.2331    0.0000 C   0  0  0  0  0  0  0  0  0
    1.9208    0.1794    0.0000 C   0  0  0  0  0  0  0  0  0
    2.6353   -0.2331    0.0000 C   0  0  0  0  0  0  0  0  0
    3.3498    0.1794    0.0000 C   0  0  0  0  0  0  0  0  0
    4.0642   -0.2331    0.0000 C   0  0  0  0  0  0  0  0  0
    4.7787    0.1794    0.0000 C   0  0  0  0  0  0  0  0  0
    1.9208    1.0044    0.0000 C   0  0  0  0  0  0  0  0  0
    2.6353    1.4169    0.0000 C   0  0  0  0  0  0  0  0  0
  1  2  1  0  0  0  0
  1 10  1  0  0  0  0
  2  3  1  0  0  0  0
  3  4  1  0  0  0  0
  4  5  1  0  0  0  0
  5  6  4  0  0  0  0
  5  9  4  0  0  0  0
  6  7  4  0  0  0  0
  7  8  4  0  0  0  0
  8  9  4  0  0  0  0
 10 11  2  0  0  0  0
 10 12  1  0  0  0  0
 12 13  1  0  0  0  0
 13 14  1  0  0  0  0
 14 15  1  0  0  0  0
 14 19  1  0  0  0  0
 15 16  1  0  0  0  0
 16 17  1  0  0  0  0
 17 18  1  0  0  0  0
 19 20  1  0  0  0  0
M  STY  1   1 DAT
M  SAL   1  1   8
M  SDT   1 MRV_IMPLICIT_H                                        
M  SDD   1     0.0000    0.0000    DR    ALL  0       0  
M  SED   1 IMPL_H1
M  END
>  <Name_Molregno>
611979

>  <HISTAMINE H3>
7.43

>  <HISTAMINE H4>
6.11

$$$$
611980
  Marvin  02231216192D 0   1.00000     0.00000     0

 20 20  0  0  1  0  0  0  0  0999 V2000
   -1.3211   -0.0016    0.0000 O   0  0  0  0  0  0  0  0  0
   -2.0356    0.4109    0.0000 C   0  0  0  0  0  0  0  0  0
   -2.7501   -0.0016    0.0000 C   0  0  0  0  0  0  0  0  0
   -3.4645    0.4109    0.0000 C   0  0  0  0  0  0  0  0  0
   -4.1790   -0.0016    0.0000 C   0  0  0  0  0  0  0  0  0
   -4.2652   -0.8221    0.0000 N   0  0  0  0  0  0  0  0  0
   -5.0722   -0.9936    0.0000 C   0  0  0  0  0  0  0  0  0
   -5.4847   -0.2791    0.0000 N   0  0  0  0  0  0  0  0  0
   -4.9327    0.3340    0.0000 C   0  0  0  0  0  0  0  0  0
   -0.6067    0.4109    0.0000 C   0  0  0  0  0  0  0  0  0
   -0.6067    1.2359    0.0000 O   0  0  0  0  0  0  0  0  0
    0.1078   -0.0016    0.0000 N   0  0  0  0  0  0  0  0  0
    0.8223    0.4109    0.0000 C   0  0  0  0  0  0  0  0  0
    1.5368   -0.0016    0.0000 C   0  0  0  0  0  0  0  0  0
    2.2512    0.4109    0.0000 C   0  0  0  0  0  0  0  0  0
    2.9657   -0.0016    0.0000 C   0  0  0  0  0  0  0  0  0
    3.6802    0.4109    0.0000 C   0  0  0  0  0  0  0  0  0
    4.3946   -0.0016    0.0000 C   0  0  0  0  0  0  0  0  0
    5.1091    0.4109    0.0000 C   0  0  0  0  0  0  0  0  0
    0.8223    1.2359    0.0000 C   0  0  0  0  0  0  0  0  0
  1  2  1  0  0  0  0
  1 10  1  0  0  0  0
  2  3  1  0  0  0  0
  3  4  1  0  0  0  0
  4  5  1  0  0  0  0
  5  6  4  0  0  0  0
  5  9  4  0  0  0  0
  6  7  4  0  0  0  0
  7  8  4  0  0  0  0
  8  9  4  0  0  0  0
 10 11  2  0  0  0  0
 10 12  1  0  0  0  0
 12 13  1  0  0  0  0
 13 14  1  0  0  0  0
 13 20  1  0  0  0  0
 14 15  1  0  0  0  0
 15 16  1  0  0  0  0
 16 17  1  0  0  0  0
 17 18  1  0  0  0  0
 18 19  1  0  0  0  0
M  STY  1   1 DAT
M  SAL   1  1   8
M  SDT   1 MRV_IMPLICIT_H                                        
M  SDD   1     0.0000    0.0000    DR    ALL  0       0  
M  SED   1 IMPL_H1
M  END
>  <Name_Molregno>
611980

>  <HISTAMINE H3>
7.32

$$$$
612991
  Marvin  02231216192D 0   1.00000     0.00000     0

 41 46  0  0  0  0  0  0  0  0999 V2000
   -1.2140   -2.2029    0.0000 F   0  0  0  0  0  0  0  0  0
   -0.4996   -1.7904    0.0000 C   0  0  0  0  0  0  0  0  0
    0.2149   -2.2029    0.0000 C   0  0  0  0  0  0  0  0  0
    0.9294   -1.7904    0.0000 C   0  0  0  0  0  0  0  0  0
    0.9294   -0.9654    0.0000 C   0  0  0  0  0  0  0  0  0
    1.6439   -0.5529    0.0000 N   0  0  0  0  0  0  0  0  0
    2.3583   -0.9654    0.0000 C   0  0  0  0  0  0  0  0  0
    2.3583   -1.7904    0.0000 C   0  0  0  0  0  0  0  0  0
    3.0728   -2.2029    0.0000 C   0  0  0  0  0  0  0  0  0
    3.7873   -1.7904    0.0000 O   0  0  0  0  0  0  0  0  0
    3.0728   -3.0279    0.0000 O   0  0  0  0  0  0  0  0  0
    1.6439   -2.2029    0.0000 C   0  0  0  0  0  0  0  0  0
    1.6439   -3.0279    0.0000 O   0  0  0  0  0  0  0  0  0
    1.6439    0.2721    0.0000 C   0  0  0  0  0  0  0  0  0
    1.2314    0.9866    0.0000 C   0  0  0  0  0  0  0  0  0
    2.0564    0.9866    0.0000 C   0  0  0  0  0  0  0  0  0
    0.2149   -0.5529    0.0000 C   0  0  0  0  0  0  0  0  0
   -0.4996   -0.9654    0.0000 C   0  0  0  0  0  0  0  0  0
   -1.2140   -0.5529    0.0000 N   0  0  0  0  0  0  0  0  0
   -1.9285   -0.9654    0.0000 C   0  0  0  0  0  0  0  0  0
   -2.6430   -0.5529    0.0000 C   0  0  0  0  0  0  0  0  0
   -2.6430    0.2721    0.0000 N   0  0  0  0  0  0  0  0  0
   -1.9285    0.6846    0.0000 C   0  0  0  0  0  0  0  0  0
   -1.2140    0.2721    0.0000 C   0  0  0  0  0  0  0  0  0
   -3.3574    0.6846    0.0000 C   0  0  0  0  0  0  0  0  0
   -3.3574    1.5096    0.0000 C   0  0  0  0  0  0  0  0  0
   -4.0719    1.9221    0.0000 C   0  0  0  0  0  0  0  0  0
   -4.0719    2.7471    0.0000 C   0  0  0  0  0  0  0  0  0
   -3.3574    3.1596    0.0000 C   0  0  0  0  0  0  0  0  0
   -3.3574    3.9846    0.0000 O   0  0  0  0  0  0  0  0  0
   -4.0719    4.3971    0.0000 C   0  0  0  0  0  0  0  0  0
   -4.0719    5.2221    0.0000 C   0  0  0  0  0  0  0  0  0
   -4.7864    5.6346    0.0000 C   0  0  0  0  0  0  0  0  0
   -4.7864    6.4596    0.0000 N   0  0  0  0  0  0  0  0  0
   -5.5009    6.8721    0.0000 C   0  0  0  0  0  0  0  0  0
   -5.5009    7.6971    0.0000 C   0  0  0  0  0  0  0  0  0
   -4.7864    8.1096    0.0000 C   0  0  0  0  0  0  0  0  0
   -4.0719    7.6971    0.0000 C   0  0  0  0  0  0  0  0  0
   -4.0719    6.8721    0.0000 C   0  0  0  0  0  0  0  0  0
   -2.6430    2.7471    0.0000 C   0  0  0  0  0  0  0  0  0
   -2.6430    1.9221    0.0000 C   0  0  0  0  0  0  0  0  0
  1  2  1  0  0  0  0
  2  3  4  0  0  0  0
  2 18  4  0  0  0  0
  3  4  4  0  0  0  0
  4  5  4  0  0  0  0
  4 12  1  0  0  0  0
  5  6  1  0  0  0  0
  5 17  4  0  0  0  0
  6  7  1  0  0  0  0
  6 14  1  0  0  0  0
  7  8  2  0  0  0  0
  8  9  1  0  0  0  0
  8 12  1  0  0  0  0
  9 10  1  0  0  0  0
  9 11  2  0  0  0  0
 12 13  2  0  0  0  0
 14 15  1  0  0  0  0
 14 16  1  0  0  0  0
 15 16  1  0  0  0  0
 17 18  4  0  0  0  0
 18 19  1  0  0  0  0
 19 20  1  0  0  0  0
 19 24  1  0  0  0  0
 20 21  1  0  0  0  0
 21 22  1  0  0  0  0
 22 23  1  0  0  0  0
 22 25  1  0  0  0  0
 23 24  1  0  0  0  0
 25 26  1  0  0  0  0
 26 27  4  0  0  0  0
 26 41  4  0  0  0  0
 27 28  4  0  0  0  0
 28 29  4  0  0  0  0
 29 30  1  0  0  0  0
 29 40  4  0  0  0  0
 30 31  1  0  0  0  0
 31 32  1  0  0  0  0
 32 33  1  0  0  0  0
 33 34  1  0  0  0  0
 34 35  1  0  0  0  0
 34 39  1  0  0  0  0
 35 36  1  0  0  0  0
 36 37  1  0  0  0  0
 37 38  1  0  0  0  0
 38 39  1  0  0  0  0
 40 41  4  0  0  0  0
M  END
>  <Name_Molregno>
612991

>  <HISTAMINE H3>
8.7

$$$$
612992
  Marvin  02231216192D 0   1.00000     0.00000     0

 21 23  0  0  0  0  0  0  0  0999 V2000
    0.0037   -1.2507    0.0000 O   0  0  0  0  0  0  0  0  0
    0.7182   -0.8382    0.0000 C   0  0  0  0  0  0  0  0  0
    1.4327   -1.2507    0.0000 C   0  0  0  0  0  0  0  0  0
    2.1471   -0.8382    0.0000 C   0  0  0  0  0  0  0  0  0
    2.8616   -1.2507    0.0000 N   0  0  0  0  0  0  0  0  0
    3.5761   -0.8382    0.0000 C   0  0  0  0  0  0  0  0  0
    4.2905   -1.2507    0.0000 C   0  0  0  0  0  0  0  0  0
    4.2905   -2.0757    0.0000 C   0  0  0  0  0  0  0  0  0
    3.5761   -2.4882    0.0000 C   0  0  0  0  0  0  0  0  0
    2.8616   -2.0757    0.0000 C   0  0  0  0  0  0  0  0  0
   -0.7108   -0.8382    0.0000 C   0  0  0  0  0  0  0  0  0
   -1.4252   -1.2507    0.0000 C   0  0  0  0  0  0  0  0  0
   -2.1397   -0.8382    0.0000 C   0  0  0  0  0  0  0  0  0
   -2.1397   -0.0132    0.0000 C   0  0  0  0  0  0  0  0  0
   -1.4252    0.3993    0.0000 C   0  0  0  0  0  0  0  0  0
   -0.7108   -0.0132    0.0000 C   0  0  0  0  0  0  0  0  0
   -2.8542    0.3993    0.0000 C   0  0  0  0  0  0  0  0  0
   -3.6078    0.0638    0.0000 N   0  0  0  0  0  0  0  0  0
   -4.1599    0.6769    0.0000 C   0  0  0  0  0  0  0  0  0
   -3.7474    1.3913    0.0000 C   0  0  0  0  0  0  0  0  0
   -2.9404    1.2198    0.0000 N   0  0  0  0  0  0  0  0  0
  1  2  1  0  0  0  0
  1 11  1  0  0  0  0
  2  3  1  0  0  0  0
  3  4  1  0  0  0  0
  4  5  1  0  0  0  0
  5  6  1  0  0  0  0
  5 10  1  0  0  0  0
  6  7  1  0  0  0  0
  7  8  1  0  0  0  0
  8  9  1  0  0  0  0
  9 10  1  0  0  0  0
 11 12  4  0  0  0  0
 11 16  4  0  0  0  0
 12 13  4  0  0  0  0
 13 14  4  0  0  0  0
 14 15  4  0  0  0  0
 14 17  1  0  0  0  0
 15 16  4  0  0  0  0
 17 18  1  0  0  0  0
 17 21  2  0  0  0  0
 18 19  1  0  0  0  0
 19 20  1  0  0  0  0
 20 21  1  0  0  0  0
M  END
>  <Name_Molregno>
612992

>  <HISTAMINE H3>
8.1

$$$$
612994
  Marvin  02231216192D 0   1.00000     0.00000     0

 24 26  0  0  1  0  0  0  0  0999 V2000
    0.4616   -2.0428    0.0000 S   0  0  0  0  0  0  0  0  0
   -0.3454   -2.2143    0.0000 C   0  0  0  0  0  0  0  0  0
   -0.7579   -1.4998    0.0000 C   0  0  0  0  0  0  0  0  0
   -0.2059   -0.8867    0.0000 N   0  0  0  0  0  0  0  0  0
    0.5478   -1.2223    0.0000 C   0  0  0  0  0  0  0  0  0
    1.2623   -0.8098    0.0000 C   0  0  0  0  0  0  0  0  0
    1.2623    0.0152    0.0000 C   0  0  0  0  0  0  0  0  0
    1.9768    0.4277    0.0000 C   0  0  0  0  0  0  0  0  0
    2.6912    0.0152    0.0000 C   0  0  0  0  0  0  0  0  0
    3.4057    0.4277    0.0000 O   0  0  0  0  0  0  0  0  0
    4.1202    0.0152    0.0000 C   0  0  0  0  0  0  0  0  0
    4.8346    0.4277    0.0000 C   0  0  0  0  0  0  0  0  0
    5.5491    0.0152    0.0000 C   0  0  0  0  0  0  0  0  0
    6.2636    0.4277    0.0000 N   0  0  0  0  0  0  0  0  0
    6.2636    1.2527    0.0000 C   0  0  0  0  0  0  0  0  0
    6.9780    1.6652    0.0000 C   0  0  0  0  0  0  0  0  0
    7.6925    1.2527    0.0000 C   0  0  0  0  0  0  0  0  0
    7.6925    0.4277    0.0000 C   0  0  0  0  0  0  0  0  0
    6.9780    0.0152    0.0000 C   0  0  0  0  0  0  0  0  0
    2.6912   -0.8098    0.0000 C   0  0  0  0  0  0  0  0  0
    1.9768   -1.2223    0.0000 C   0  0  0  0  0  0  0  0  0
   -1.5784   -1.4136    0.0000 C   0  0  0  0  0  0  0  0  0
   -2.0633   -2.0810    0.0000 O   0  0  0  0  0  0  0  0  0
   -1.9139   -0.6599    0.0000 O   0  0  0  0  0  0  0  0  0
  1  2  1  0  0  0  0
  1  5  1  0  0  0  0
  2  3  1  0  0  0  0
  3  4  1  0  0  0  0
  3 22  1  0  0  0  0
  4  5  1  0  0  0  0
  5  6  1  0  0  0  0
  6  7  4  0  0  0  0
  6 21  4  0  0  0  0
  7  8  4  0  0  0  0
  8  9  4  0  0  0  0
  9 10  1  0  0  0  0
  9 20  4  0  0  0  0
 10 11  1  0  0  0  0
 11 12  1  0  0  0  0
 12 13  1  0  0  0  0
 13 14  1  0  0  0  0
 14 15  1  0  0  0  0
 14 19  1  0  0  0  0
 15 16  1  0  0  0  0
 16 17  1  0  0  0  0
 17 18  1  0  0  0  0
 18 19  1  0  0  0  0
 20 21  4  0  0  0  0
 22 23  1  0  0  0  0
 22 24  2  0  0  0  0
M  END
>  <Name_Molregno>
612994

>  <HISTAMINE H3>
8

$$$$
613078
  Marvin  02231216192D 0   1.00000     0.00000     0

 24 26  0  0  0  0  0  0  0  0999 V2000
   -5.4977    0.6256    0.0000 S   0  0  0  0  0  0  0  0  0
   -5.4115   -0.1949    0.0000 C   0  0  0  0  0  0  0  0  0
   -4.6970   -0.6074    0.0000 C   0  0  0  0  0  0  0  0  0
   -3.9825   -0.1949    0.0000 C   0  0  0  0  0  0  0  0  0
   -3.9825    0.6301    0.0000 C   0  0  0  0  0  0  0  0  0
   -3.2680    1.0426    0.0000 C   0  0  0  0  0  0  0  0  0
   -2.5536    0.6301    0.0000 C   0  0  0  0  0  0  0  0  0
   -1.8391    1.0426    0.0000 O   0  0  0  0  0  0  0  0  0
   -1.1246    0.6301    0.0000 C   0  0  0  0  0  0  0  0  0
   -0.4102    1.0426    0.0000 C   0  0  0  0  0  0  0  0  0
    0.3043    0.6301    0.0000 C   0  0  0  0  0  0  0  0  0
    1.0188    1.0426    0.0000 N   0  0  0  0  0  0  0  0  0
    1.0188    1.8676    0.0000 C   0  0  0  0  0  0  0  0  0
    1.7333    2.2801    0.0000 C   0  0  0  0  0  0  0  0  0
    2.4477    1.8676    0.0000 C   0  0  0  0  0  0  0  0  0
    2.4477    1.0426    0.0000 C   0  0  0  0  0  0  0  0  0
    1.7333    0.6301    0.0000 C   0  0  0  0  0  0  0  0  0
   -2.5536   -0.1949    0.0000 C   0  0  0  0  0  0  0  0  0
   -3.2680   -0.6074    0.0000 C   0  0  0  0  0  0  0  0  0
   -6.1651   -0.5304    0.0000 C   0  0  0  0  0  0  0  0  0
   -6.3367   -1.3374    0.0000 O   0  0  0  0  0  0  0  0  0
   -6.7172    0.0827    0.0000 N   0  0  0  0  0  0  0  0  0
   -6.3047    0.7971    0.0000 C   0  0  0  0  0  0  0  0  0
   -6.6402    1.5508    0.0000 O   0  0  0  0  0  0  0  0  0
  1  2  1  0  0  0  0
  1 23  1  0  0  0  0
  2  3  2  0  0  0  0
  2 20  1  0  0  0  0
  3  4  1  0  0  0  0
  4  5  4  0  0  0  0
  4 19  4  0  0  0  0
  5  6  4  0  0  0  0
  6  7  4  0  0  0  0
  7  8  1  0  0  0  0
  7 18  4  0  0  0  0
  8  9  1  0  0  0  0
  9 10  1  0  0  0  0
 10 11  1  0  0  0  0
 11 12  1  0  0  0  0
 12 13  1  0  0  0  0
 12 17  1  0  0  0  0
 13 14  1  0  0  0  0
 14 15  1  0  0  0  0
 15 16  1  0  0  0  0
 16 17  1  0  0  0  0
 18 19  4  0  0  0  0
 20 21  2  0  0  0  0
 20 22  1  0  0  0  0
 22 23  1  0  0  0  0
 23 24  2  0  0  0  0
M  END
>  <Name_Molregno>
613078

>  <HISTAMINE H3>
8.1

$$$$
613079
  Marvin  02231216192D 0   1.00000     0.00000     0

 24 26  0  0  0  0  0  0  0  0999 V2000
   -5.4977    0.6256    0.0000 S   0  0  0  0  0  0  0  0  0
   -5.4115   -0.1949    0.0000 C   0  0  0  0  0  0  0  0  0
   -4.6970   -0.6074    0.0000 C   0  0  0  0  0  0  0  0  0
   -3.9825   -0.1949    0.0000 C   0  0  0  0  0  0  0  0  0
   -3.9825    0.6301    0.0000 C   0  0  0  0  0  0  0  0  0
   -3.2680    1.0426    0.0000 C   0  0  0  0  0  0  0  0  0
   -2.5536    0.6301    0.0000 C   0  0  0  0  0  0  0  0  0
   -1.8391    1.0426    0.0000 O   0  0  0  0  0  0  0  0  0
   -1.1246    0.6301    0.0000 C   0  0  0  0  0  0  0  0  0
   -0.4102    1.0426    0.0000 C   0  0  0  0  0  0  0  0  0
    0.3043    0.6301    0.0000 C   0  0  0  0  0  0  0  0  0
    1.0188    1.0426    0.0000 N   0  0  0  0  0  0  0  0  0
    1.0188    1.8676    0.0000 C   0  0  0  0  0  0  0  0  0
    1.7333    2.2801    0.0000 C   0  0  0  0  0  0  0  0  0
    2.4477    1.8676    0.0000 C   0  0  0  0  0  0  0  0  0
    2.4477    1.0426    0.0000 C   0  0  0  0  0  0  0  0  0
    1.7333    0.6301    0.0000 C   0  0  0  0  0  0  0  0  0
   -2.5536   -0.1949    0.0000 C   0  0  0  0  0  0  0  0  0
   -3.2680   -0.6074    0.0000 C   0  0  0  0  0  0  0  0  0
   -6.1651   -0.5304    0.0000 C   0  0  0  0  0  0  0  0  0
   -6.3367   -1.3374    0.0000 O   0  0  0  0  0  0  0  0  0
   -6.7172    0.0827    0.0000 N   0  0  0  0  0  0  0  0  0
   -6.3047    0.7971    0.0000 C   0  0  0  0  0  0  0  0  0
   -6.6402    1.5508    0.0000 S   0  0  0  0  0  0  0  0  0
  1  2  1  0  0  0  0
  1 23  1  0  0  0  0
  2  3  2  0  0  0  0
  2 20  1  0  0  0  0
  3  4  1  0  0  0  0
  4  5  4  0  0  0  0
  4 19  4  0  0  0  0
  5  6  4  0  0  0  0
  6  7  4  0  0  0  0
  7  8  1  0  0  0  0
  7 18  4  0  0  0  0
  8  9  1  0  0  0  0
  9 10  1  0  0  0  0
 10 11  1  0  0  0  0
 11 12  1  0  0  0  0
 12 13  1  0  0  0  0
 12 17  1  0  0  0  0
 13 14  1  0  0  0  0
 14 15  1  0  0  0  0
 15 16  1  0  0  0  0
 16 17  1  0  0  0  0
 18 19  4  0  0  0  0
 20 21  2  0  0  0  0
 20 22  1  0  0  0  0
 22 23  1  0  0  0  0
 23 24  2  0  0  0  0
M  END
>  <Name_Molregno>
613079

>  <HISTAMINE H3>
8.3

$$$$
613080
  Marvin  02231216192D 0   1.00000     0.00000     0

 24 26  0  0  1  0  0  0  0  0999 V2000
   -6.2281   -1.7412    0.0000 S   0  0  0  0  0  0  0  0  0
   -5.5606   -1.2562    0.0000 C   0  0  0  0  0  0  0  0  0
   -5.5606   -0.4312    0.0000 C   0  0  0  0  0  0  0  0  0
   -4.8462   -0.0187    0.0000 C   0  0  0  0  0  0  0  0  0
   -4.8462    0.8063    0.0000 C   0  0  0  0  0  0  0  0  0
   -4.1317    1.2188    0.0000 C   0  0  0  0  0  0  0  0  0
   -3.4172    0.8063    0.0000 C   0  0  0  0  0  0  0  0  0
   -2.7028    1.2188    0.0000 O   0  0  0  0  0  0  0  0  0
   -1.9883    0.8063    0.0000 C   0  0  0  0  0  0  0  0  0
   -1.2738    1.2188    0.0000 C   0  0  0  0  0  0  0  0  0
   -0.5594    0.8063    0.0000 C   0  0  0  0  0  0  0  0  0
    0.1551    1.2188    0.0000 N   0  0  0  0  0  0  0  0  0
    0.1551    2.0438    0.0000 C   0  0  0  0  0  0  0  0  0
    0.8696    2.4563    0.0000 C   0  0  0  0  0  0  0  0  0
    1.5841    2.0438    0.0000 C   0  0  0  0  0  0  0  0  0
    1.5841    1.2188    0.0000 C   0  0  0  0  0  0  0  0  0
    0.8696    0.8063    0.0000 C   0  0  0  0  0  0  0  0  0
   -3.4172   -0.0187    0.0000 C   0  0  0  0  0  0  0  0  0
   -4.1317   -0.4312    0.0000 C   0  0  0  0  0  0  0  0  0
   -4.8932   -1.7412    0.0000 C   0  0  0  0  0  0  0  0  0
   -4.1086   -1.4862    0.0000 O   0  0  0  0  0  0  0  0  0
   -5.1481   -2.5258    0.0000 N   0  0  0  0  0  0  0  0  0
   -5.9731   -2.5258    0.0000 C   0  0  0  0  0  0  0  0  0
   -6.4581   -3.1932    0.0000 O   0  0  0  0  0  0  0  0  0
  1  2  1  0  0  0  0
  1 23  1  0  0  0  0
  2  3  1  0  0  0  0
  2 20  1  0  0  0  0
  3  4  1  0  0  0  0
  4  5  4  0  0  0  0
  4 19  4  0  0  0  0
  5  6  4  0  0  0  0
  6  7  4  0  0  0  0
  7  8  1  0  0  0  0
  7 18  4  0  0  0  0
  8  9  1  0  0  0  0
  9 10  1  0  0  0  0
 10 11  1  0  0  0  0
 11 12  1  0  0  0  0
 12 13  1  0  0  0  0
 12 17  1  0  0  0  0
 13 14  1  0  0  0  0
 14 15  1  0  0  0  0
 15 16  1  0  0  0  0
 16 17  1  0  0  0  0
 18 19  4  0  0  0  0
 20 21  2  0  0  0  0
 20 22  1  0  0  0  0
 22 23  1  0  0  0  0
 23 24  2  0  0  0  0
M  END
>  <Name_Molregno>
613080

>  <HISTAMINE H3>
7.3

$$$$
616183
  Marvin  02231216192D 0   1.00000     0.00000     0

 25 28  0  0  1  0  0  0  0  0999 V2000
   -2.7220    1.5492    0.0000 N   0  0  0  0  0  0  0  0  0
   -2.0075    1.9617    0.0000 C   0  0  0  0  0  0  0  0  0
   -2.0075    2.7867    0.0000 N   0  0  0  0  0  0  0  0  0
   -2.6750    3.2716    0.0000 C   0  0  0  0  0  0  0  0  0
   -2.4200    4.0562    0.0000 C   0  0  0  0  0  0  0  0  0
   -2.9049    4.7237    0.0000 N   0  0  0  0  0  0  0  0  0
   -2.5694    5.4774    0.0000 C   0  0  0  0  0  0  0  0  0
   -1.5950    4.0562    0.0000 C   0  0  0  0  0  0  0  0  0
   -1.3401    3.2716    0.0000 C   0  0  0  0  0  0  0  0  0
   -1.2930    1.5492    0.0000 C   0  0  0  0  0  0  0  0  0
   -0.6480    2.0636    0.0000 C   0  0  0  0  0  0  0  0  0
    0.1563    1.8800    0.0000 C   0  0  0  0  0  0  0  0  0
    0.5142    1.1367    0.0000 C   0  0  0  0  0  0  0  0  0
    0.1563    0.3934    0.0000 C   0  0  0  0  0  0  0  0  0
   -0.6480    0.2098    0.0000 C   0  0  0  0  0  0  0  0  0
   -1.2930    0.7242    0.0000 C   0  0  0  0  0  0  0  0  0
   -2.0075    0.3117    0.0000 N   0  0  0  0  0  0  0  0  0
   -2.7220    0.7242    0.0000 C   0  0  0  0  0  0  0  0  0
   -3.4365    0.3117    0.0000 N   0  0  0  0  0  0  0  0  0
    0.6707   -0.2516    0.0000 C   0  0  0  0  0  0  0  0  0
    1.4864   -0.1287    0.0000 C   0  0  0  0  0  0  0  0  0
    2.0008   -0.7737    0.0000 C   0  0  0  0  0  0  0  0  0
    1.6994   -1.5416    0.0000 C   0  0  0  0  0  0  0  0  0
    0.8836   -1.6646    0.0000 C   0  0  0  0  0  0  0  0  0
    0.3693   -1.0196    0.0000 C   0  0  0  0  0  0  0  0  0
  1  2  4  0  0  0  0
  1 18  4  0  0  0  0
  2  3  1  0  0  0  0
  2 10  4  0  0  0  0
  3  4  1  0  0  0  0
  3  9  1  0  0  0  0
  4  5  1  0  0  0  0
  5  6  1  0  0  0  0
  5  8  1  0  0  0  0
  6  7  1  0  0  0  0
  8  9  1  0  0  0  0
 10 11  1  0  0  0  0
 10 16  4  0  0  0  0
 11 12  1  0  0  0  0
 12 13  1  0  0  0  0
 13 14  1  0  0  0  0
 14 15  1  0  0  0  0
 14 20  1  0  0  0  0
 15 16  1  0  0  0  0
 16 17  4  0  0  0  0
 17 18  4  0  0  0  0
 18 19  1  0  0  0  0
 20 21  4  0  0  0  0
 20 25  4  0  0  0  0
 21 22  4  0  0  0  0
 22 23  4  0  0  0  0
 23 24  4  0  0  0  0
 24 25  4  0  0  0  0
M  END
>  <Name_Molregno>
616183

>  <HISTAMINE H3>
6.65

>  <HISTAMINE H4>
7.31

$$$$
616321
  Marvin  02231216192D 0   1.00000     0.00000     0

 22 25  0  0  1  0  0  0  0  0999 V2000
    0.3285    0.0385    0.0000 N   0  0  0  0  0  0  0  0  0
    0.1415    0.8421    0.0000 C   0  0  0  0  0  0  0  0  0
    0.7438    1.4058    0.0000 N   0  0  0  0  0  0  0  0  0
    0.6418    2.2245    0.0000 C   0  0  0  0  0  0  0  0  0
    1.3889    2.5745    0.0000 C   0  0  0  0  0  0  0  0  0
    1.5448    3.3846    0.0000 N   0  0  0  0  0  0  0  0  0
    2.3244    3.6546    0.0000 C   0  0  0  0  0  0  0  0  0
    1.9526    1.9721    0.0000 C   0  0  0  0  0  0  0  0  0
    1.5539    1.2499    0.0000 C   0  0  0  0  0  0  0  0  0
   -0.6479    1.0818    0.0000 C   0  0  0  0  0  0  0  0  0
   -1.2503    0.5181    0.0000 C   0  0  0  0  0  0  0  0  0
   -1.0632   -0.2854    0.0000 N   0  0  0  0  0  0  0  0  0
   -0.2738   -0.5252    0.0000 C   0  0  0  0  0  0  0  0  0
   -0.0868   -1.3287    0.0000 N   0  0  0  0  0  0  0  0  0
   -2.0396    0.7579    0.0000 C   0  0  0  0  0  0  0  0  0
   -1.9376   -0.0608    0.0000 C   0  0  0  0  0  0  0  0  0
   -2.6847   -0.4108    0.0000 C   0  0  0  0  0  0  0  0  0
   -3.2484    0.1915    0.0000 C   0  0  0  0  0  0  0  0  0
   -2.8498    0.9138    0.0000 C   0  0  0  0  0  0  0  0  0
   -2.2267    1.5614    0.0000 C   0  0  0  0  0  0  0  0  0
   -1.6243    2.1251    0.0000 C   0  0  0  0  0  0  0  0  0
   -0.8350    1.8854    0.0000 C   0  0  0  0  0  0  0  0  0
  1  2  4  0  0  0  0
  1 13  4  0  0  0  0
  2  3  1  0  0  0  0
  2 10  4  0  0  0  0
  3  4  1  0  0  0  0
  3  9  1  0  0  0  0
  4  5  1  0  0  0  0
  5  6  1  0  0  0  0
  5  8  1  0  0  0  0
  6  7  1  0  0  0  0
  8  9  1  0  0  0  0
 10 11  4  0  0  0  0
 10 22  1  0  0  0  0
 11 12  4  0  0  0  0
 11 15  1  0  0  0  0
 12 13  4  0  0  0  0
 13 14  1  0  0  0  0
 15 16  1  0  0  0  0
 15 19  1  0  0  0  0
 15 20  1  0  0  0  0
 16 17  1  0  0  0  0
 17 18  1  0  0  0  0
 18 19  1  0  0  0  0
 20 21  1  0  0  0  0
 21 22  1  0  0  0  0
M  END
>  <Name_Molregno>
616321

>  <HISTAMINE H3>
6.98

>  <HISTAMINE H4>
8.7

$$$$
616382
  Marvin  02231216192D 0   1.00000     0.00000     0

 21 24  0  0  0  0  0  0  0  0999 V2000
    0.2341    0.1669    0.0000 N   0  0  0  0  0  0  0  0  0
    0.0471    0.9704    0.0000 C   0  0  0  0  0  0  0  0  0
    0.6494    1.5341    0.0000 N   0  0  0  0  0  0  0  0  0
    0.6767    2.3587    0.0000 C   0  0  0  0  0  0  0  0  0
    1.5013    2.3314    0.0000 C   0  0  0  0  0  0  0  0  0
    2.1036    2.8951    0.0000 N   0  0  0  0  0  0  0  0  0
    2.8930    2.6553    0.0000 C   0  0  0  0  0  0  0  0  0
    1.4740    1.5068    0.0000 C   0  0  0  0  0  0  0  0  0
   -0.7423    1.2101    0.0000 C   0  0  0  0  0  0  0  0  0
   -1.3447    0.6464    0.0000 C   0  0  0  0  0  0  0  0  0
   -1.1576   -0.1571    0.0000 N   0  0  0  0  0  0  0  0  0
   -0.3682   -0.3969    0.0000 C   0  0  0  0  0  0  0  0  0
   -0.1812   -1.2004    0.0000 N   0  0  0  0  0  0  0  0  0
   -2.1340    0.8862    0.0000 C   0  0  0  0  0  0  0  0  0
   -2.0320    0.0675    0.0000 C   0  0  0  0  0  0  0  0  0
   -2.7791   -0.2825    0.0000 C   0  0  0  0  0  0  0  0  0
   -3.3428    0.3198    0.0000 C   0  0  0  0  0  0  0  0  0
   -2.9442    1.0421    0.0000 C   0  0  0  0  0  0  0  0  0
   -2.3211    1.6897    0.0000 C   0  0  0  0  0  0  0  0  0
   -1.7187    2.2534    0.0000 C   0  0  0  0  0  0  0  0  0
   -0.9294    2.0137    0.0000 C   0  0  0  0  0  0  0  0  0
  1  2  4  0  0  0  0
  1 12  4  0  0  0  0
  2  3  1  0  0  0  0
  2  9  4  0  0  0  0
  3  4  1  0  0  0  0
  3  8  1  0  0  0  0
  4  5  1  0  0  0  0
  5  6  1  0  0  0  0
  5  8  1  0  0  0  0
  6  7  1  0  0  0  0
  9 10  4  0  0  0  0
  9 21  1  0  0  0  0
 10 11  4  0  0  0  0
 10 14  1  0  0  0  0
 11 12  4  0  0  0  0
 12 13  1  0  0  0  0
 14 15  1  0  0  0  0
 14 18  1  0  0  0  0
 14 19  1  0  0  0  0
 15 16  1  0  0  0  0
 16 17  1  0  0  0  0
 17 18  1  0  0  0  0
 19 20  1  0  0  0  0
 20 21  1  0  0  0  0
M  END
>  <Name_Molregno>
616382

>  <HISTAMINE H3>
7.2

>  <HISTAMINE H4>
8.82

$$$$
616383
  Marvin  02231216192D 0   1.00000     0.00000     0

 21 24  0  0  1  0  0  0  0  0999 V2000
    0.2804    0.1136    0.0000 N   0  0  0  0  0  0  0  0  0
    0.0934    0.9171    0.0000 C   0  0  0  0  0  0  0  0  0
    0.6957    1.4809    0.0000 N   0  0  0  0  0  0  0  0  0
    0.5937    2.2995    0.0000 C   0  0  0  0  0  0  0  0  0
    1.3408    2.6496    0.0000 C   0  0  0  0  0  0  0  0  0
    1.4967    3.4597    0.0000 N   0  0  0  0  0  0  0  0  0
    1.9045    2.0472    0.0000 C   0  0  0  0  0  0  0  0  0
    1.5059    1.3249    0.0000 C   0  0  0  0  0  0  0  0  0
   -0.6960    1.1569    0.0000 C   0  0  0  0  0  0  0  0  0
   -1.2983    0.5932    0.0000 C   0  0  0  0  0  0  0  0  0
   -1.1113   -0.2103    0.0000 N   0  0  0  0  0  0  0  0  0
   -0.3219   -0.4501    0.0000 C   0  0  0  0  0  0  0  0  0
   -0.1349   -1.2536    0.0000 N   0  0  0  0  0  0  0  0  0
   -2.0877    0.8329    0.0000 C   0  0  0  0  0  0  0  0  0
   -1.9857    0.0143    0.0000 C   0  0  0  0  0  0  0  0  0
   -2.7328   -0.3357    0.0000 C   0  0  0  0  0  0  0  0  0
   -3.2965    0.2666    0.0000 C   0  0  0  0  0  0  0  0  0
   -2.8978    0.9889    0.0000 C   0  0  0  0  0  0  0  0  0
   -2.2748    1.6365    0.0000 C   0  0  0  0  0  0  0  0  0
   -1.6724    2.2002    0.0000 C   0  0  0  0  0  0  0  0  0
   -0.8830    1.9604    0.0000 C   0  0  0  0  0  0  0  0  0
  1  2  4  0  0  0  0
  1 12  4  0  0  0  0
  2  3  1  0  0  0  0
  2  9  4  0  0  0  0
  3  4  1  0  0  0  0
  3  8  1  0  0  0  0
  4  5  1  0  0  0  0
  5  6  1  0  0  0  0
  5  7  1  0  0  0  0
  7  8  1  0  0  0  0
  9 10  4  0  0  0  0
  9 21  1  0  0  0  0
 10 11  4  0  0  0  0
 10 14  1  0  0  0  0
 11 12  4  0  0  0  0
 12 13  1  0  0  0  0
 14 15  1  0  0  0  0
 14 18  1  0  0  0  0
 14 19  1  0  0  0  0
 15 16  1  0  0  0  0
 16 17  1  0  0  0  0
 17 18  1  0  0  0  0
 19 20  1  0  0  0  0
 20 21  1  0  0  0  0
M  END
>  <Name_Molregno>
616383

>  <HISTAMINE H3>
6.53

$$$$
617531
  Marvin  02231216192D 0   1.00000     0.00000     0

 24 25  0  0  0  0  0  0  0  0999 V2000
   -0.4782   -0.4611    0.0000 S   0  0  0  0  0  0  0  0  0
    0.2363   -0.0486    0.0000 C   0  0  0  0  0  0  0  0  0
    0.9508   -0.4611    0.0000 C   0  0  0  0  0  0  0  0  0
    1.6652   -0.0486    0.0000 N   0  0  0  0  0  0  0  0  0
    2.3797   -0.4611    0.0000 C   0  0  0  0  0  0  0  0  0
    2.3797   -1.2861    0.0000 N   0  0  0  0  0  0  0  0  0
    1.6652   -1.6986    0.0000 C   0  0  0  0  0  0  0  0  0
    0.9508   -2.1111    0.0000 N   0  0  0  0  0  0  0  0  0
    3.0942   -0.0486    0.0000 N   0  0  0  0  0  0  0  0  0
    3.8087   -0.4611    0.0000 C   0  0  0  0  0  0  0  0  0
    4.5231   -0.0486    0.0000 C   0  0  0  0  0  0  0  0  0
    5.2376   -0.4611    0.0000 C   0  0  0  0  0  0  0  0  0
    5.9521   -0.0486    0.0000 C   0  0  0  0  0  0  0  0  0
    6.6665   -0.4611    0.0000 C   0  0  0  0  0  0  0  0  0
    7.4202   -0.1256    0.0000 N   0  0  0  0  0  0  0  0  0
    7.9722   -0.7387    0.0000 C   0  0  0  0  0  0  0  0  0
    7.5597   -1.4531    0.0000 N   0  0  0  0  0  0  0  0  0
    6.7528   -1.2816    0.0000 C   0  0  0  0  0  0  0  0  0
   -1.1926   -0.0486    0.0000 C   0  0  0  0  0  0  0  0  0
   -1.9071   -0.4611    0.0000 C   0  0  0  0  0  0  0  0  0
   -2.6216   -0.0486    0.0000 C   0  0  0  0  0  0  0  0  0
   -2.6216    0.7764    0.0000 C   0  0  0  0  0  0  0  0  0
   -1.9071    1.1889    0.0000 C   0  0  0  0  0  0  0  0  0
   -1.1926    0.7764    0.0000 C   0  0  0  0  0  0  0  0  0
  1  2  1  0  0  0  0
  1 19  1  0  0  0  0
  2  3  1  0  0  0  0
  3  4  1  0  0  0  0
  4  5  1  0  0  0  0
  5  6  2  0  0  0  0
  5  9  1  0  0  0  0
  6  7  1  0  0  0  0
  7  8  3  0  0  0  0
  9 10  1  0  0  0  0
 10 11  1  0  0  0  0
 11 12  1  0  0  0  0
 12 13  1  0  0  0  0
 13 14  1  0  0  0  0
 14 15  4  0  0  0  0
 14 18  4  0  0  0  0
 15 16  4  0  0  0  0
 16 17  4  0  0  0  0
 17 18  4  0  0  0  0
 19 20  4  0  0  0  0
 19 24  4  0  0  0  0
 20 21  4  0  0  0  0
 21 22  4  0  0  0  0
 22 23  4  0  0  0  0
 23 24  4  0  0  0  0
M  STY  1   1 DAT
M  SAL   1  1  17
M  SDT   1 MRV_IMPLICIT_H                                        
M  SDD   1     0.0000    0.0000    DR    ALL  0       0  
M  SED   1 IMPL_H1
M  END
>  <Name_Molregno>
617531

>  <HISTAMINE H1>
4.59

>  <HISTAMINE H2>
5.39

>  <HISTAMINE H3>
6.28

>  <HISTAMINE H4>
7.24

$$$$
619531
  Marvin  02231216192D 0   1.00000     0.00000     0

 28 30  0  0  0  0  0  0  0  0999 V2000
   -0.9645   -6.3095    0.0000 Cl  0  0  0  0  0  0  0  0  0
   -0.9645   -5.4845    0.0000 C   0  0  0  0  0  0  0  0  0
   -1.6790   -5.0720    0.0000 C   0  0  0  0  0  0  0  0  0
   -1.6790   -4.2470    0.0000 C   0  0  0  0  0  0  0  0  0
   -0.9645   -3.8345    0.0000 C   0  0  0  0  0  0  0  0  0
   -0.9645   -3.0095    0.0000 N   0  0  0  0  0  0  0  0  0
   -0.2501   -2.5970    0.0000 C   0  0  0  0  0  0  0  0  0
   -0.2501   -1.7720    0.0000 O   0  0  0  0  0  0  0  0  0
    0.4644   -3.0095    0.0000 N   0  0  0  0  0  0  0  0  0
    1.1789   -2.5970    0.0000 C   0  0  0  0  0  0  0  0  0
    1.8934   -3.0095    0.0000 C   0  0  0  0  0  0  0  0  0
    2.6078   -2.5970    0.0000 C   0  0  0  0  0  0  0  0  0
    3.3223   -3.0095    0.0000 C   0  0  0  0  0  0  0  0  0
    3.3223   -3.8345    0.0000 C   0  0  0  0  0  0  0  0  0
    4.0368   -4.2470    0.0000 F   0  0  0  0  0  0  0  0  0
    2.6078   -4.2470    0.0000 C   0  0  0  0  0  0  0  0  0
    1.8934   -3.8345    0.0000 C   0  0  0  0  0  0  0  0  0
   -1.6790   -2.5970    0.0000 C   0  0  0  0  0  0  0  0  0
   -2.3935   -3.0095    0.0000 C   0  0  0  0  0  0  0  0  0
   -3.1079   -2.5970    0.0000 C   0  0  0  0  0  0  0  0  0
   -3.1079   -1.7720    0.0000 N   0  0  0  0  0  0  0  0  0
   -2.3935   -1.3595    0.0000 C   0  0  0  0  0  0  0  0  0
   -1.6790   -1.7720    0.0000 C   0  0  0  0  0  0  0  0  0
   -3.8224   -1.3595    0.0000 C   0  0  0  0  0  0  0  0  0
   -3.8224   -0.5345    0.0000 C   0  0  0  0  0  0  0  0  0
   -4.5369   -0.1220    0.0000 O   0  0  0  0  0  0  0  0  0
   -0.2501   -4.2470    0.0000 C   0  0  0  0  0  0  0  0  0
   -0.2501   -5.0720    0.0000 C   0  0  0  0  0  0  0  0  0
  1  2  1  0  0  0  0
  2  3  4  0  0  0  0
  2 28  4  0  0  0  0
  3  4  4  0  0  0  0
  4  5  4  0  0  0  0
  5  6  1  0  0  0  0
  5 27  4  0  0  0  0
  6  7  1  0  0  0  0
  6 18  1  0  0  0  0
  7  8  2  0  0  0  0
  7  9  1  0  0  0  0
  9 10  1  0  0  0  0
 10 11  1  0  0  0  0
 11 12  4  0  0  0  0
 11 17  4  0  0  0  0
 12 13  4  0  0  0  0
 13 14  4  0  0  0  0
 14 15  1  0  0  0  0
 14 16  4  0  0  0  0
 16 17  4  0  0  0  0
 18 19  1  0  0  0  0
 18 23  1  0  0  0  0
 19 20  1  0  0  0  0
 20 21  1  0  0  0  0
 21 22  1  0  0  0  0
 21 24  1  0  0  0  0
 22 23  1  0  0  0  0
 24 25  1  0  0  0  0
 25 26  1  0  0  0  0
 27 28  4  0  0  0  0
M  END
>  <Name_Molregno>
619531

>  <HISTAMINE H3>
7.07

$$$$
619532
  Marvin  02231216192D 0   1.00000     0.00000     0

 28 30  0  0  0  0  0  0  0  0999 V2000
   -0.9645   -6.3095    0.0000 Br  0  0  0  0  0  0  0  0  0
   -0.9645   -5.4845    0.0000 C   0  0  0  0  0  0  0  0  0
   -1.6790   -5.0720    0.0000 C   0  0  0  0  0  0  0  0  0
   -1.6790   -4.2470    0.0000 C   0  0  0  0  0  0  0  0  0
   -0.9645   -3.8345    0.0000 C   0  0  0  0  0  0  0  0  0
   -0.9645   -3.0095    0.0000 N   0  0  0  0  0  0  0  0  0
   -0.2501   -2.5970    0.0000 C   0  0  0  0  0  0  0  0  0
   -0.2501   -1.7720    0.0000 O   0  0  0  0  0  0  0  0  0
    0.4644   -3.0095    0.0000 N   0  0  0  0  0  0  0  0  0
    1.1789   -2.5970    0.0000 C   0  0  0  0  0  0  0  0  0
    1.8934   -3.0095    0.0000 C   0  0  0  0  0  0  0  0  0
    2.6078   -2.5970    0.0000 C   0  0  0  0  0  0  0  0  0
    3.3223   -3.0095    0.0000 C   0  0  0  0  0  0  0  0  0
    3.3223   -3.8345    0.0000 C   0  0  0  0  0  0  0  0  0
    4.0368   -4.2470    0.0000 F   0  0  0  0  0  0  0  0  0
    2.6078   -4.2470    0.0000 C   0  0  0  0  0  0  0  0  0
    1.8934   -3.8345    0.0000 C   0  0  0  0  0  0  0  0  0
   -1.6790   -2.5970    0.0000 C   0  0  0  0  0  0  0  0  0
   -2.3935   -3.0095    0.0000 C   0  0  0  0  0  0  0  0  0
   -3.1079   -2.5970    0.0000 C   0  0  0  0  0  0  0  0  0
   -3.1079   -1.7720    0.0000 N   0  0  0  0  0  0  0  0  0
   -2.3935   -1.3595    0.0000 C   0  0  0  0  0  0  0  0  0
   -1.6790   -1.7720    0.0000 C   0  0  0  0  0  0  0  0  0
   -3.8224   -1.3595    0.0000 C   0  0  0  0  0  0  0  0  0
   -3.8224   -0.5345    0.0000 C   0  0  0  0  0  0  0  0  0
   -4.5369   -0.1220    0.0000 O   0  0  0  0  0  0  0  0  0
   -0.2501   -4.2470    0.0000 C   0  0  0  0  0  0  0  0  0
   -0.2501   -5.0720    0.0000 C   0  0  0  0  0  0  0  0  0
  1  2  1  0  0  0  0
  2  3  4  0  0  0  0
  2 28  4  0  0  0  0
  3  4  4  0  0  0  0
  4  5  4  0  0  0  0
  5  6  1  0  0  0  0
  5 27  4  0  0  0  0
  6  7  1  0  0  0  0
  6 18  1  0  0  0  0
  7  8  2  0  0  0  0
  7  9  1  0  0  0  0
  9 10  1  0  0  0  0
 10 11  1  0  0  0  0
 11 12  4  0  0  0  0
 11 17  4  0  0  0  0
 12 13  4  0  0  0  0
 13 14  4  0  0  0  0
 14 15  1  0  0  0  0
 14 16  4  0  0  0  0
 16 17  4  0  0  0  0
 18 19  1  0  0  0  0
 18 23  1  0  0  0  0
 19 20  1  0  0  0  0
 20 21  1  0  0  0  0
 21 22  1  0  0  0  0
 21 24  1  0  0  0  0
 22 23  1  0  0  0  0
 24 25  1  0  0  0  0
 25 26  1  0  0  0  0
 27 28  4  0  0  0  0
M  END
>  <Name_Molregno>
619532

>  <HISTAMINE H3>
7.17

$$$$
619533
  Marvin  02231216192D 0   1.00000     0.00000     0

 30 32  0  0  1  0  0  0  0  0999 V2000
    0.1395   -6.5108    0.0000 Cl  0  0  0  0  0  0  0  0  0
    0.1395   -5.6858    0.0000 C   0  0  0  0  0  0  0  0  0
   -0.5750   -5.2733    0.0000 C   0  0  0  0  0  0  0  0  0
   -0.5750   -4.4483    0.0000 C   0  0  0  0  0  0  0  0  0
    0.1395   -4.0358    0.0000 C   0  0  0  0  0  0  0  0  0
    0.1395   -3.2108    0.0000 N   0  0  0  0  0  0  0  0  0
    0.8539   -2.7983    0.0000 C   0  0  0  0  0  0  0  0  0
    0.8539   -1.9733    0.0000 O   0  0  0  0  0  0  0  0  0
    1.5684   -3.2108    0.0000 N   0  0  0  0  0  0  0  0  0
    2.2829   -2.7983    0.0000 C   0  0  0  0  0  0  0  0  0
    2.9973   -3.2108    0.0000 C   0  0  0  0  0  0  0  0  0
    3.7118   -2.7983    0.0000 C   0  0  0  0  0  0  0  0  0
    4.4263   -3.2108    0.0000 C   0  0  0  0  0  0  0  0  0
    4.4263   -4.0358    0.0000 C   0  0  0  0  0  0  0  0  0
    5.1408   -4.4483    0.0000 F   0  0  0  0  0  0  0  0  0
    3.7118   -4.4483    0.0000 C   0  0  0  0  0  0  0  0  0
    2.9973   -4.0358    0.0000 C   0  0  0  0  0  0  0  0  0
   -0.5750   -2.7983    0.0000 C   0  0  0  0  0  0  0  0  0
   -1.2895   -3.2108    0.0000 C   0  0  0  0  0  0  0  0  0
   -2.0040   -2.7983    0.0000 C   0  0  0  0  0  0  0  0  0
   -2.0040   -1.9733    0.0000 N   0  0  0  0  0  0  0  0  0
   -1.2895   -1.5608    0.0000 C   0  0  0  0  0  0  0  0  0
   -0.5750   -1.9733    0.0000 C   0  0  0  0  0  0  0  0  0
   -2.7184   -1.5608    0.0000 C   0  0  0  0  0  0  0  0  0
   -3.4329   -1.9733    0.0000 C   0  0  0  0  0  0  0  0  0
   -3.4329   -2.7983    0.0000 O   0  0  0  0  0  0  0  0  0
   -4.1474   -1.5608    0.0000 C   0  0  0  0  0  0  0  0  0
   -4.8618   -1.9733    0.0000 O   0  0  0  0  0  0  0  0  0
    0.8539   -4.4483    0.0000 C   0  0  0  0  0  0  0  0  0
    0.8539   -5.2733    0.0000 C   0  0  0  0  0  0  0  0  0
  1  2  1  0  0  0  0
  2  3  4  0  0  0  0
  2 30  4  0  0  0  0
  3  4  4  0  0  0  0
  4  5  4  0  0  0  0
  5  6  1  0  0  0  0
  5 29  4  0  0  0  0
  6  7  1  0  0  0  0
  6 18  1  0  0  0  0
  7  8  2  0  0  0  0
  7  9  1  0  0  0  0
  9 10  1  0  0  0  0
 10 11  1  0  0  0  0
 11 12  4  0  0  0  0
 11 17  4  0  0  0  0
 12 13  4  0  0  0  0
 13 14  4  0  0  0  0
 14 15  1  0  0  0  0
 14 16  4  0  0  0  0
 16 17  4  0  0  0  0
 18 19  1  0  0  0  0
 18 23  1  0  0  0  0
 19 20  1  0  0  0  0
 20 21  1  0  0  0  0
 21 22  1  0  0  0  0
 21 24  1  0  0  0  0
 22 23  1  0  0  0  0
 24 25  1  0  0  0  0
 25 26  1  0  0  0  0
 25 27  1  0  0  0  0
 27 28  1  0  0  0  0
 29 30  4  0  0  0  0
M  END
>  <Name_Molregno>
619533

>  <HISTAMINE H3>
6

$$$$
619534
  Marvin  02231216192D 0   1.00000     0.00000     0

 30 32  0  0  0  0  0  0  0  0999 V2000
    0.0516   -6.5272    0.0000 Cl  0  0  0  0  0  0  0  0  0
    0.0516   -5.7022    0.0000 C   0  0  0  0  0  0  0  0  0
   -0.6629   -5.2897    0.0000 C   0  0  0  0  0  0  0  0  0
   -0.6629   -4.4647    0.0000 C   0  0  0  0  0  0  0  0  0
    0.0516   -4.0522    0.0000 C   0  0  0  0  0  0  0  0  0
    0.0516   -3.2272    0.0000 N   0  0  0  0  0  0  0  0  0
    0.7660   -2.8147    0.0000 C   0  0  0  0  0  0  0  0  0
    0.7660   -1.9897    0.0000 O   0  0  0  0  0  0  0  0  0
    1.4805   -3.2272    0.0000 N   0  0  0  0  0  0  0  0  0
    2.1950   -2.8147    0.0000 C   0  0  0  0  0  0  0  0  0
    2.9095   -3.2272    0.0000 C   0  0  0  0  0  0  0  0  0
    3.6239   -2.8147    0.0000 C   0  0  0  0  0  0  0  0  0
    4.3384   -3.2272    0.0000 C   0  0  0  0  0  0  0  0  0
    4.3384   -4.0522    0.0000 C   0  0  0  0  0  0  0  0  0
    5.0529   -4.4647    0.0000 F   0  0  0  0  0  0  0  0  0
    3.6239   -4.4647    0.0000 C   0  0  0  0  0  0  0  0  0
    2.9095   -4.0522    0.0000 C   0  0  0  0  0  0  0  0  0
   -0.6629   -2.8147    0.0000 C   0  0  0  0  0  0  0  0  0
   -1.3774   -3.2272    0.0000 C   0  0  0  0  0  0  0  0  0
   -2.0918   -2.8147    0.0000 C   0  0  0  0  0  0  0  0  0
   -2.0918   -1.9897    0.0000 N   0  0  0  0  0  0  0  0  0
   -1.3774   -1.5772    0.0000 C   0  0  0  0  0  0  0  0  0
   -0.6629   -1.9897    0.0000 C   0  0  0  0  0  0  0  0  0
   -2.8063   -1.5772    0.0000 C   0  0  0  0  0  0  0  0  0
   -2.8063   -0.7522    0.0000 O   0  0  0  0  0  0  0  0  0
   -3.5208   -1.9897    0.0000 N   0  0  0  0  0  0  0  0  0
   -4.2353   -1.5772    0.0000 C   0  0  0  0  0  0  0  0  0
   -4.9497   -1.9897    0.0000 C   0  0  0  0  0  0  0  0  0
    0.7660   -4.4647    0.0000 C   0  0  0  0  0  0  0  0  0
    0.7660   -5.2897    0.0000 C   0  0  0  0  0  0  0  0  0
  1  2  1  0  0  0  0
  2  3  4  0  0  0  0
  2 30  4  0  0  0  0
  3  4  4  0  0  0  0
  4  5  4  0  0  0  0
  5  6  1  0  0  0  0
  5 29  4  0  0  0  0
  6  7  1  0  0  0  0
  6 18  1  0  0  0  0
  7  8  2  0  0  0  0
  7  9  1  0  0  0  0
  9 10  1  0  0  0  0
 10 11  1  0  0  0  0
 11 12  4  0  0  0  0
 11 17  4  0  0  0  0
 12 13  4  0  0  0  0
 13 14  4  0  0  0  0
 14 15  1  0  0  0  0
 14 16  4  0  0  0  0
 16 17  4  0  0  0  0
 18 19  1  0  0  0  0
 18 23  1  0  0  0  0
 19 20  1  0  0  0  0
 20 21  1  0  0  0  0
 21 22  1  0  0  0  0
 21 24  1  0  0  0  0
 22 23  1  0  0  0  0
 24 25  2  0  0  0  0
 24 26  1  0  0  0  0
 26 27  1  0  0  0  0
 27 28  1  0  0  0  0
 29 30  4  0  0  0  0
M  END
>  <Name_Molregno>
619534

>  <HISTAMINE H3>
6

$$$$
619607
  Marvin  02231216192D 0   1.00000     0.00000     0

 32 35  0  0  0  0  0  0  0  0999 V2000
    2.8732    1.3503    0.0000 Cl  0  0  0  0  0  0  0  0  0
    2.8732    0.5253    0.0000 C   0  0  0  0  0  0  0  0  0
    3.5877    0.1128    0.0000 C   0  0  0  0  0  0  0  0  0
    3.5877   -0.7122    0.0000 C   0  0  0  0  0  0  0  0  0
    2.8732   -1.1247    0.0000 C   0  0  0  0  0  0  0  0  0
    2.8732   -1.9497    0.0000 N   0  0  0  0  0  0  0  0  0
    2.1587   -2.3622    0.0000 C   0  0  0  0  0  0  0  0  0
    2.1587   -3.1872    0.0000 O   0  0  0  0  0  0  0  0  0
    1.4442   -1.9497    0.0000 N   0  0  0  0  0  0  0  0  0
    0.7298   -2.3622    0.0000 C   0  0  0  0  0  0  0  0  0
    0.0153   -1.9497    0.0000 C   0  0  0  0  0  0  0  0  0
   -0.6992   -2.3622    0.0000 C   0  0  0  0  0  0  0  0  0
   -1.4136   -1.9497    0.0000 C   0  0  0  0  0  0  0  0  0
   -1.4136   -1.1247    0.0000 C   0  0  0  0  0  0  0  0  0
   -2.1281   -0.7122    0.0000 F   0  0  0  0  0  0  0  0  0
   -0.6992   -0.7122    0.0000 C   0  0  0  0  0  0  0  0  0
    0.0153   -1.1247    0.0000 C   0  0  0  0  0  0  0  0  0
    3.5877   -2.3622    0.0000 C   0  0  0  0  0  0  0  0  0
    4.3021   -1.9497    0.0000 C   0  0  0  0  0  0  0  0  0
    5.0166   -2.3622    0.0000 C   0  0  0  0  0  0  0  0  0
    5.0166   -3.1872    0.0000 N   0  0  0  0  0  0  0  0  0
    4.3021   -3.5997    0.0000 C   0  0  0  0  0  0  0  0  0
    3.5877   -3.1872    0.0000 C   0  0  0  0  0  0  0  0  0
    5.7311   -3.5997    0.0000 C   0  0  0  0  0  0  0  0  0
    6.4455   -3.1872    0.0000 C   0  0  0  0  0  0  0  0  0
    6.4455   -2.3622    0.0000 N   0  0  0  0  0  0  0  0  0
    7.1600   -1.9497    0.0000 C   0  0  0  0  0  0  0  0  0
    7.8745   -2.3622    0.0000 C   0  0  0  0  0  0  0  0  0
    7.8745   -3.1872    0.0000 C   0  0  0  0  0  0  0  0  0
    7.1600   -3.5997    0.0000 C   0  0  0  0  0  0  0  0  0
    2.1587   -0.7122    0.0000 C   0  0  0  0  0  0  0  0  0
    2.1587    0.1128    0.0000 C   0  0  0  0  0  0  0  0  0
  1  2  1  0  0  0  0
  2  3  4  0  0  0  0
  2 32  4  0  0  0  0
  3  4  4  0  0  0  0
  4  5  4  0  0  0  0
  5  6  1  0  0  0  0
  5 31  4  0  0  0  0
  6  7  1  0  0  0  0
  6 18  1  0  0  0  0
  7  8  2  0  0  0  0
  7  9  1  0  0  0  0
  9 10  1  0  0  0  0
 10 11  1  0  0  0  0
 11 12  4  0  0  0  0
 11 17  4  0  0  0  0
 12 13  4  0  0  0  0
 13 14  4  0  0  0  0
 14 15  1  0  0  0  0
 14 16  4  0  0  0  0
 16 17  4  0  0  0  0
 18 19  1  0  0  0  0
 18 23  1  0  0  0  0
 19 20  1  0  0  0  0
 20 21  1  0  0  0  0
 21 22  1  0  0  0  0
 21 24  1  0  0  0  0
 22 23  1  0  0  0  0
 24 25  1  0  0  0  0
 25 26  4  0  0  0  0
 25 30  4  0  0  0  0
 26 27  4  0  0  0  0
 27 28  4  0  0  0  0
 28 29  4  0  0  0  0
 29 30  4  0  0  0  0
 31 32  4  0  0  0  0
M  END
>  <Name_Molregno>
619607

>  <HISTAMINE H3>
6

$$$$
619608
  Marvin  02231216192D 0   1.00000     0.00000     0

 32 35  0  0  0  0  0  0  0  0999 V2000
    2.8732    1.3503    0.0000 Cl  0  0  0  0  0  0  0  0  0
    2.8732    0.5253    0.0000 C   0  0  0  0  0  0  0  0  0
    3.5877    0.1128    0.0000 C   0  0  0  0  0  0  0  0  0
    3.5877   -0.7122    0.0000 C   0  0  0  0  0  0  0  0  0
    2.8732   -1.1247    0.0000 C   0  0  0  0  0  0  0  0  0
    2.8732   -1.9497    0.0000 N   0  0  0  0  0  0  0  0  0
    2.1587   -2.3622    0.0000 C   0  0  0  0  0  0  0  0  0
    2.1587   -3.1872    0.0000 O   0  0  0  0  0  0  0  0  0
    1.4442   -1.9497    0.0000 N   0  0  0  0  0  0  0  0  0
    0.7298   -2.3622    0.0000 C   0  0  0  0  0  0  0  0  0
    0.0153   -1.9497    0.0000 C   0  0  0  0  0  0  0  0  0
   -0.6992   -2.3622    0.0000 C   0  0  0  0  0  0  0  0  0
   -1.4136   -1.9497    0.0000 C   0  0  0  0  0  0  0  0  0
   -1.4136   -1.1247    0.0000 C   0  0  0  0  0  0  0  0  0
   -2.1281   -0.7122    0.0000 F   0  0  0  0  0  0  0  0  0
   -0.6992   -0.7122    0.0000 C   0  0  0  0  0  0  0  0  0
    0.0153   -1.1247    0.0000 C   0  0  0  0  0  0  0  0  0
    3.5877   -2.3622    0.0000 C   0  0  0  0  0  0  0  0  0
    4.3021   -1.9497    0.0000 C   0  0  0  0  0  0  0  0  0
    5.0166   -2.3622    0.0000 C   0  0  0  0  0  0  0  0  0
    5.0166   -3.1872    0.0000 N   0  0  0  0  0  0  0  0  0
    4.3021   -3.5997    0.0000 C   0  0  0  0  0  0  0  0  0
    3.5877   -3.1872    0.0000 C   0  0  0  0  0  0  0  0  0
    5.7311   -3.5997    0.0000 C   0  0  0  0  0  0  0  0  0
    6.4455   -3.1872    0.0000 C   0  0  0  0  0  0  0  0  0
    6.4455   -2.3622    0.0000 C   0  0  0  0  0  0  0  0  0
    7.1600   -1.9497    0.0000 C   0  0  0  0  0  0  0  0  0
    7.8745   -2.3622    0.0000 N   0  0  0  0  0  0  0  0  0
    7.8745   -3.1872    0.0000 C   0  0  0  0  0  0  0  0  0
    7.1600   -3.5997    0.0000 C   0  0  0  0  0  0  0  0  0
    2.1587   -0.7122    0.0000 C   0  0  0  0  0  0  0  0  0
    2.1587    0.1128    0.0000 C   0  0  0  0  0  0  0  0  0
  1  2  1  0  0  0  0
  2  3  4  0  0  0  0
  2 32  4  0  0  0  0
  3  4  4  0  0  0  0
  4  5  4  0  0  0  0
  5  6  1  0  0  0  0
  5 31  4  0  0  0  0
  6  7  1  0  0  0  0
  6 18  1  0  0  0  0
  7  8  2  0  0  0  0
  7  9  1  0  0  0  0
  9 10  1  0  0  0  0
 10 11  1  0  0  0  0
 11 12  4  0  0  0  0
 11 17  4  0  0  0  0
 12 13  4  0  0  0  0
 13 14  4  0  0  0  0
 14 15  1  0  0  0  0
 14 16  4  0  0  0  0
 16 17  4  0  0  0  0
 18 19  1  0  0  0  0
 18 23  1  0  0  0  0
 19 20  1  0  0  0  0
 20 21  1  0  0  0  0
 21 22  1  0  0  0  0
 21 24  1  0  0  0  0
 22 23  1  0  0  0  0
 24 25  1  0  0  0  0
 25 26  4  0  0  0  0
 25 30  4  0  0  0  0
 26 27  4  0  0  0  0
 27 28  4  0  0  0  0
 28 29  4  0  0  0  0
 29 30  4  0  0  0  0
 31 32  4  0  0  0  0
M  END
>  <Name_Molregno>
619608

>  <HISTAMINE H3>
7.8

$$$$
619609
  Marvin  02231216192D 0   1.00000     0.00000     0

 33 36  0  0  0  0  0  0  0  0999 V2000
    3.1772    2.0002    0.0000 Cl  0  0  0  0  0  0  0  0  0
    3.1772    1.1752    0.0000 C   0  0  0  0  0  0  0  0  0
    3.8917    0.7627    0.0000 C   0  0  0  0  0  0  0  0  0
    3.8917   -0.0623    0.0000 C   0  0  0  0  0  0  0  0  0
    3.1772   -0.4748    0.0000 C   0  0  0  0  0  0  0  0  0
    3.1772   -1.2998    0.0000 N   0  0  0  0  0  0  0  0  0
    2.4627   -1.7123    0.0000 C   0  0  0  0  0  0  0  0  0
    2.4627   -2.5373    0.0000 O   0  0  0  0  0  0  0  0  0
    1.7482   -1.2998    0.0000 N   0  0  0  0  0  0  0  0  0
    1.0338   -1.7123    0.0000 C   0  0  0  0  0  0  0  0  0
    0.3193   -1.2998    0.0000 C   0  0  0  0  0  0  0  0  0
   -0.3952   -1.7123    0.0000 C   0  0  0  0  0  0  0  0  0
   -1.1096   -1.2998    0.0000 C   0  0  0  0  0  0  0  0  0
   -1.1096   -0.4748    0.0000 C   0  0  0  0  0  0  0  0  0
   -1.8241   -0.0623    0.0000 F   0  0  0  0  0  0  0  0  0
   -0.3952   -0.0623    0.0000 C   0  0  0  0  0  0  0  0  0
    0.3193   -0.4748    0.0000 C   0  0  0  0  0  0  0  0  0
    3.8917   -1.7123    0.0000 C   0  0  0  0  0  0  0  0  0
    4.6061   -1.2998    0.0000 C   0  0  0  0  0  0  0  0  0
    5.3206   -1.7123    0.0000 C   0  0  0  0  0  0  0  0  0
    5.3206   -2.5373    0.0000 N   0  0  0  0  0  0  0  0  0
    4.6061   -2.9498    0.0000 C   0  0  0  0  0  0  0  0  0
    3.8917   -2.5373    0.0000 C   0  0  0  0  0  0  0  0  0
    6.0351   -2.9498    0.0000 C   0  0  0  0  0  0  0  0  0
    6.0351   -3.7748    0.0000 C   0  0  0  0  0  0  0  0  0
    6.7495   -4.1873    0.0000 C   0  0  0  0  0  0  0  0  0
    6.7495   -5.0123    0.0000 C   0  0  0  0  0  0  0  0  0
    7.4640   -5.4248    0.0000 O   0  0  0  0  0  0  0  0  0
    6.0351   -5.4248    0.0000 N   0  0  0  0  0  0  0  0  0
    5.3206   -5.0123    0.0000 C   0  0  0  0  0  0  0  0  0
    5.3206   -4.1873    0.0000 C   0  0  0  0  0  0  0  0  0
    2.4627   -0.0623    0.0000 C   0  0  0  0  0  0  0  0  0
    2.4627    0.7627    0.0000 C   0  0  0  0  0  0  0  0  0
  1  2  1  0  0  0  0
  2  3  4  0  0  0  0
  2 33  4  0  0  0  0
  3  4  4  0  0  0  0
  4  5  4  0  0  0  0
  5  6  1  0  0  0  0
  5 32  4  0  0  0  0
  6  7  1  0  0  0  0
  6 18  1  0  0  0  0
  7  8  2  0  0  0  0
  7  9  1  0  0  0  0
  9 10  1  0  0  0  0
 10 11  1  0  0  0  0
 11 12  4  0  0  0  0
 11 17  4  0  0  0  0
 12 13  4  0  0  0  0
 13 14  4  0  0  0  0
 14 15  1  0  0  0  0
 14 16  4  0  0  0  0
 16 17  4  0  0  0  0
 18 19  1  0  0  0  0
 18 23  1  0  0  0  0
 19 20  1  0  0  0  0
 20 21  1  0  0  0  0
 21 22  1  0  0  0  0
 21 24  1  0  0  0  0
 22 23  1  0  0  0  0
 24 25  1  0  0  0  0
 25 26  4  0  0  0  0
 25 31  4  0  0  0  0
 26 27  4  0  0  0  0
 27 28  1  0  0  0  0
 27 29  4  0  0  0  0
 29 30  4  0  0  0  0
 30 31  4  0  0  0  0
 32 33  4  0  0  0  0
M  END
>  <Name_Molregno>
619609

>  <HISTAMINE H3>
6.2

$$$$
619610
  Marvin  02231216192D 0   1.00000     0.00000     0

 33 36  0  0  0  0  0  0  0  0999 V2000
    2.9174    1.4002    0.0000 Cl  0  0  0  0  0  0  0  0  0
    2.9174    0.5752    0.0000 C   0  0  0  0  0  0  0  0  0
    3.6318    0.1627    0.0000 C   0  0  0  0  0  0  0  0  0
    3.6318   -0.6623    0.0000 C   0  0  0  0  0  0  0  0  0
    2.9174   -1.0748    0.0000 C   0  0  0  0  0  0  0  0  0
    2.9174   -1.8998    0.0000 N   0  0  0  0  0  0  0  0  0
    2.2029   -2.3123    0.0000 C   0  0  0  0  0  0  0  0  0
    2.2029   -3.1373    0.0000 O   0  0  0  0  0  0  0  0  0
    1.4884   -1.8998    0.0000 N   0  0  0  0  0  0  0  0  0
    0.7740   -2.3123    0.0000 C   0  0  0  0  0  0  0  0  0
    0.0595   -1.8998    0.0000 C   0  0  0  0  0  0  0  0  0
   -0.6550   -2.3123    0.0000 C   0  0  0  0  0  0  0  0  0
   -1.3694   -1.8998    0.0000 C   0  0  0  0  0  0  0  0  0
   -1.3694   -1.0748    0.0000 C   0  0  0  0  0  0  0  0  0
   -2.0839   -0.6623    0.0000 F   0  0  0  0  0  0  0  0  0
   -0.6550   -0.6623    0.0000 C   0  0  0  0  0  0  0  0  0
    0.0595   -1.0748    0.0000 C   0  0  0  0  0  0  0  0  0
    3.6318   -2.3123    0.0000 C   0  0  0  0  0  0  0  0  0
    4.3463   -1.8998    0.0000 C   0  0  0  0  0  0  0  0  0
    5.0608   -2.3123    0.0000 C   0  0  0  0  0  0  0  0  0
    5.0608   -3.1373    0.0000 N   0  0  0  0  0  0  0  0  0
    4.3463   -3.5498    0.0000 C   0  0  0  0  0  0  0  0  0
    3.6318   -3.1373    0.0000 C   0  0  0  0  0  0  0  0  0
    5.7753   -3.5498    0.0000 C   0  0  0  0  0  0  0  0  0
    6.4897   -3.1373    0.0000 C   0  0  0  0  0  0  0  0  0
    6.4897   -2.3123    0.0000 C   0  0  0  0  0  0  0  0  0
    7.2042   -1.8998    0.0000 C   0  0  0  0  0  0  0  0  0
    7.9187   -2.3123    0.0000 N   0  0  0  0  0  0  0  0  0
    7.9187   -3.1373    0.0000 C   0  0  0  0  0  0  0  0  0
    7.2042   -3.5498    0.0000 C   0  0  0  0  0  0  0  0  0
    7.2042   -1.0748    0.0000 N   0  0  0  0  0  0  0  0  0
    2.2029   -0.6623    0.0000 C   0  0  0  0  0  0  0  0  0
    2.2029    0.1627    0.0000 C   0  0  0  0  0  0  0  0  0
  1  2  1  0  0  0  0
  2  3  4  0  0  0  0
  2 33  4  0  0  0  0
  3  4  4  0  0  0  0
  4  5  4  0  0  0  0
  5  6  1  0  0  0  0
  5 32  4  0  0  0  0
  6  7  1  0  0  0  0
  6 18  1  0  0  0  0
  7  8  2  0  0  0  0
  7  9  1  0  0  0  0
  9 10  1  0  0  0  0
 10 11  1  0  0  0  0
 11 12  4  0  0  0  0
 11 17  4  0  0  0  0
 12 13  4  0  0  0  0
 13 14  4  0  0  0  0
 14 15  1  0  0  0  0
 14 16  4  0  0  0  0
 16 17  4  0  0  0  0
 18 19  1  0  0  0  0
 18 23  1  0  0  0  0
 19 20  1  0  0  0  0
 20 21  1  0  0  0  0
 21 22  1  0  0  0  0
 21 24  1  0  0  0  0
 22 23  1  0  0  0  0
 24 25  1  0  0  0  0
 25 26  4  0  0  0  0
 25 30  4  0  0  0  0
 26 27  4  0  0  0  0
 27 28  4  0  0  0  0
 27 31  1  0  0  0  0
 28 29  4  0  0  0  0
 29 30  4  0  0  0  0
 32 33  4  0  0  0  0
M  END
>  <Name_Molregno>
619610

>  <HISTAMINE H3>
8.52

$$$$
619673
  Marvin  02231216192D 0   1.00000     0.00000     0

 32 35  0  0  0  0  0  0  0  0999 V2000
    2.8732    1.3503    0.0000 Cl  0  0  0  0  0  0  0  0  0
    2.8732    0.5253    0.0000 C   0  0  0  0  0  0  0  0  0
    3.5877    0.1128    0.0000 C   0  0  0  0  0  0  0  0  0
    3.5877   -0.7122    0.0000 C   0  0  0  0  0  0  0  0  0
    2.8732   -1.1247    0.0000 C   0  0  0  0  0  0  0  0  0
    2.8732   -1.9497    0.0000 N   0  0  0  0  0  0  0  0  0
    2.1587   -2.3622    0.0000 C   0  0  0  0  0  0  0  0  0
    2.1587   -3.1872    0.0000 O   0  0  0  0  0  0  0  0  0
    1.4442   -1.9497    0.0000 N   0  0  0  0  0  0  0  0  0
    0.7298   -2.3622    0.0000 C   0  0  0  0  0  0  0  0  0
    0.0153   -1.9497    0.0000 C   0  0  0  0  0  0  0  0  0
   -0.6992   -2.3622    0.0000 C   0  0  0  0  0  0  0  0  0
   -1.4136   -1.9497    0.0000 C   0  0  0  0  0  0  0  0  0
   -1.4136   -1.1247    0.0000 C   0  0  0  0  0  0  0  0  0
   -2.1281   -0.7122    0.0000 F   0  0  0  0  0  0  0  0  0
   -0.6992   -0.7122    0.0000 C   0  0  0  0  0  0  0  0  0
    0.0153   -1.1247    0.0000 C   0  0  0  0  0  0  0  0  0
    3.5877   -2.3622    0.0000 C   0  0  0  0  0  0  0  0  0
    4.3021   -1.9497    0.0000 C   0  0  0  0  0  0  0  0  0
    5.0166   -2.3622    0.0000 C   0  0  0  0  0  0  0  0  0
    5.0166   -3.1872    0.0000 N   0  0  0  0  0  0  0  0  0
    4.3021   -3.5997    0.0000 C   0  0  0  0  0  0  0  0  0
    3.5877   -3.1872    0.0000 C   0  0  0  0  0  0  0  0  0
    5.7311   -3.5997    0.0000 C   0  0  0  0  0  0  0  0  0
    6.4455   -3.1872    0.0000 C   0  0  0  0  0  0  0  0  0
    6.4455   -2.3622    0.0000 C   0  0  0  0  0  0  0  0  0
    7.1600   -1.9497    0.0000 C   0  0  0  0  0  0  0  0  0
    7.8745   -2.3622    0.0000 N   0  0  0  0  0  0  0  0  0
    7.8745   -3.1872    0.0000 N   0  0  0  0  0  0  0  0  0
    7.1600   -3.5997    0.0000 C   0  0  0  0  0  0  0  0  0
    2.1587   -0.7122    0.0000 C   0  0  0  0  0  0  0  0  0
    2.1587    0.1128    0.0000 C   0  0  0  0  0  0  0  0  0
  1  2  1  0  0  0  0
  2  3  4  0  0  0  0
  2 32  4  0  0  0  0
  3  4  4  0  0  0  0
  4  5  4  0  0  0  0
  5  6  1  0  0  0  0
  5 31  4  0  0  0  0
  6  7  1  0  0  0  0
  6 18  1  0  0  0  0
  7  8  2  0  0  0  0
  7  9  1  0  0  0  0
  9 10  1  0  0  0  0
 10 11  1  0  0  0  0
 11 12  4  0  0  0  0
 11 17  4  0  0  0  0
 12 13  4  0  0  0  0
 13 14  4  0  0  0  0
 14 15  1  0  0  0  0
 14 16  4  0  0  0  0
 16 17  4  0  0  0  0
 18 19  1  0  0  0  0
 18 23  1  0  0  0  0
 19 20  1  0  0  0  0
 20 21  1  0  0  0  0
 21 22  1  0  0  0  0
 21 24  1  0  0  0  0
 22 23  1  0  0  0  0
 24 25  1  0  0  0  0
 25 26  4  0  0  0  0
 25 30  4  0  0  0  0
 26 27  4  0  0  0  0
 27 28  4  0  0  0  0
 28 29  4  0  0  0  0
 29 30  4  0  0  0  0
 31 32  4  0  0  0  0
M  END
>  <Name_Molregno>
619673

>  <HISTAMINE H3>
7.31

$$$$
619674
  Marvin  02231216192D 0   1.00000     0.00000     0

 31 34  0  0  0  0  0  0  0  0999 V2000
    2.8069    1.4609    0.0000 Br  0  0  0  0  0  0  0  0  0
    2.8069    0.6359    0.0000 C   0  0  0  0  0  0  0  0  0
    3.5213    0.2234    0.0000 C   0  0  0  0  0  0  0  0  0
    3.5213   -0.6016    0.0000 C   0  0  0  0  0  0  0  0  0
    2.8069   -1.0141    0.0000 C   0  0  0  0  0  0  0  0  0
    2.8069   -1.8391    0.0000 N   0  0  0  0  0  0  0  0  0
    2.0924   -2.2516    0.0000 C   0  0  0  0  0  0  0  0  0
    2.0924   -3.0766    0.0000 O   0  0  0  0  0  0  0  0  0
    1.3779   -1.8391    0.0000 N   0  0  0  0  0  0  0  0  0
    0.6635   -2.2516    0.0000 C   0  0  0  0  0  0  0  0  0
   -0.0510   -1.8391    0.0000 C   0  0  0  0  0  0  0  0  0
   -0.7655   -2.2516    0.0000 C   0  0  0  0  0  0  0  0  0
   -1.4800   -1.8391    0.0000 C   0  0  0  0  0  0  0  0  0
   -1.4800   -1.0141    0.0000 C   0  0  0  0  0  0  0  0  0
   -0.7655   -0.6016    0.0000 C   0  0  0  0  0  0  0  0  0
   -0.0510   -1.0141    0.0000 C   0  0  0  0  0  0  0  0  0
    3.5213   -2.2516    0.0000 C   0  0  0  0  0  0  0  0  0
    4.2358   -1.8391    0.0000 C   0  0  0  0  0  0  0  0  0
    4.9503   -2.2516    0.0000 C   0  0  0  0  0  0  0  0  0
    4.9503   -3.0766    0.0000 N   0  0  0  0  0  0  0  0  0
    4.2358   -3.4891    0.0000 C   0  0  0  0  0  0  0  0  0
    3.5213   -3.0766    0.0000 C   0  0  0  0  0  0  0  0  0
    5.6647   -3.4891    0.0000 C   0  0  0  0  0  0  0  0  0
    6.3792   -3.0766    0.0000 C   0  0  0  0  0  0  0  0  0
    6.3792   -2.2516    0.0000 C   0  0  0  0  0  0  0  0  0
    7.0937   -1.8391    0.0000 C   0  0  0  0  0  0  0  0  0
    7.8082   -2.2516    0.0000 N   0  0  0  0  0  0  0  0  0
    7.8082   -3.0766    0.0000 C   0  0  0  0  0  0  0  0  0
    7.0937   -3.4891    0.0000 C   0  0  0  0  0  0  0  0  0
    2.0924   -0.6016    0.0000 C   0  0  0  0  0  0  0  0  0
    2.0924    0.2234    0.0000 C   0  0  0  0  0  0  0  0  0
  1  2  1  0  0  0  0
  2  3  4  0  0  0  0
  2 31  4  0  0  0  0
  3  4  4  0  0  0  0
  4  5  4  0  0  0  0
  5  6  1  0  0  0  0
  5 30  4  0  0  0  0
  6  7  1  0  0  0  0
  6 17  1  0  0  0  0
  7  8  2  0  0  0  0
  7  9  1  0  0  0  0
  9 10  1  0  0  0  0
 10 11  1  0  0  0  0
 11 12  4  0  0  0  0
 11 16  4  0  0  0  0
 12 13  4  0  0  0  0
 13 14  4  0  0  0  0
 14 15  4  0  0  0  0
 15 16  4  0  0  0  0
 17 18  1  0  0  0  0
 17 22  1  0  0  0  0
 18 19  1  0  0  0  0
 19 20  1  0  0  0  0
 20 21  1  0  0  0  0
 20 23  1  0  0  0  0
 21 22  1  0  0  0  0
 23 24  1  0  0  0  0
 24 25  4  0  0  0  0
 24 29  4  0  0  0  0
 25 26  4  0  0  0  0
 26 27  4  0  0  0  0
 27 28  4  0  0  0  0
 28 29  4  0  0  0  0
 30 31  4  0  0  0  0
M  END
>  <Name_Molregno>
619674

>  <HISTAMINE H3>
8.7

$$$$
619675
  Marvin  02231216192D 0   1.00000     0.00000     0

 31 34  0  0  0  0  0  0  0  0999 V2000
    2.8069    1.4609    0.0000 Br  0  0  0  0  0  0  0  0  0
    2.8069    0.6359    0.0000 C   0  0  0  0  0  0  0  0  0
    3.5213    0.2234    0.0000 C   0  0  0  0  0  0  0  0  0
    3.5213   -0.6016    0.0000 C   0  0  0  0  0  0  0  0  0
    2.8069   -1.0141    0.0000 C   0  0  0  0  0  0  0  0  0
    2.8069   -1.8391    0.0000 N   0  0  0  0  0  0  0  0  0
    2.0924   -2.2516    0.0000 C   0  0  0  0  0  0  0  0  0
    2.0924   -3.0766    0.0000 O   0  0  0  0  0  0  0  0  0
    1.3779   -1.8391    0.0000 N   0  0  0  0  0  0  0  0  0
    0.6635   -2.2516    0.0000 C   0  0  0  0  0  0  0  0  0
   -0.0510   -1.8391    0.0000 C   0  0  0  0  0  0  0  0  0
   -0.7655   -2.2516    0.0000 C   0  0  0  0  0  0  0  0  0
   -1.4800   -1.8391    0.0000 C   0  0  0  0  0  0  0  0  0
   -1.4800   -1.0141    0.0000 C   0  0  0  0  0  0  0  0  0
   -0.7655   -0.6016    0.0000 C   0  0  0  0  0  0  0  0  0
   -0.0510   -1.0141    0.0000 C   0  0  0  0  0  0  0  0  0
    3.5213   -2.2516    0.0000 C   0  0  0  0  0  0  0  0  0
    4.2358   -1.8391    0.0000 C   0  0  0  0  0  0  0  0  0
    4.9503   -2.2516    0.0000 C   0  0  0  0  0  0  0  0  0
    4.9503   -3.0766    0.0000 N   0  0  0  0  0  0  0  0  0
    4.2358   -3.4891    0.0000 C   0  0  0  0  0  0  0  0  0
    3.5213   -3.0766    0.0000 C   0  0  0  0  0  0  0  0  0
    5.6647   -3.4891    0.0000 C   0  0  0  0  0  0  0  0  0
    6.3792   -3.0766    0.0000 C   0  0  0  0  0  0  0  0  0
    6.3792   -2.2516    0.0000 C   0  0  0  0  0  0  0  0  0
    7.0937   -1.8391    0.0000 C   0  0  0  0  0  0  0  0  0
    7.8082   -2.2516    0.0000 N   0  0  0  0  0  0  0  0  0
    7.8082   -3.0766    0.0000 N   0  0  0  0  0  0  0  0  0
    7.0937   -3.4891    0.0000 C   0  0  0  0  0  0  0  0  0
    2.0924   -0.6016    0.0000 C   0  0  0  0  0  0  0  0  0
    2.0924    0.2234    0.0000 C   0  0  0  0  0  0  0  0  0
  1  2  1  0  0  0  0
  2  3  4  0  0  0  0
  2 31  4  0  0  0  0
  3  4  4  0  0  0  0
  4  5  4  0  0  0  0
  5  6  1  0  0  0  0
  5 30  4  0  0  0  0
  6  7  1  0  0  0  0
  6 17  1  0  0  0  0
  7  8  2  0  0  0  0
  7  9  1  0  0  0  0
  9 10  1  0  0  0  0
 10 11  1  0  0  0  0
 11 12  4  0  0  0  0
 11 16  4  0  0  0  0
 12 13  4  0  0  0  0
 13 14  4  0  0  0  0
 14 15  4  0  0  0  0
 15 16  4  0  0  0  0
 17 18  1  0  0  0  0
 17 22  1  0  0  0  0
 18 19  1  0  0  0  0
 19 20  1  0  0  0  0
 20 21  1  0  0  0  0
 20 23  1  0  0  0  0
 21 22  1  0  0  0  0
 23 24  1  0  0  0  0
 24 25  4  0  0  0  0
 24 29  4  0  0  0  0
 25 26  4  0  0  0  0
 26 27  4  0  0  0  0
 27 28  4  0  0  0  0
 28 29  4  0  0  0  0
 30 31  4  0  0  0  0
M  END
>  <Name_Molregno>
619675

>  <HISTAMINE H3>
8

$$$$
620509
  Marvin  02231216192D 0   1.00000     0.00000     0

 31 34  0  0  0  0  0  0  0  0999 V2000
    4.3746   -1.5164    0.0000 Br  0  0  0  0  0  0  0  0  0
    3.6602   -1.9289    0.0000 C   0  0  0  0  0  0  0  0  0
    3.6602   -2.7539    0.0000 C   0  0  0  0  0  0  0  0  0
    2.9457   -3.1664    0.0000 C   0  0  0  0  0  0  0  0  0
    2.2312   -2.7539    0.0000 C   0  0  0  0  0  0  0  0  0
    1.5167   -3.1664    0.0000 N   0  0  0  0  0  0  0  0  0
    0.8023   -2.7539    0.0000 C   0  0  0  0  0  0  0  0  0
    0.0878   -3.1664    0.0000 O   0  0  0  0  0  0  0  0  0
    0.8023   -1.9289    0.0000 N   0  0  0  0  0  0  0  0  0
    0.0878   -1.5164    0.0000 C   0  0  0  0  0  0  0  0  0
    0.0878   -0.6914    0.0000 C   0  0  0  0  0  0  0  0  0
   -0.6267   -0.2789    0.0000 C   0  0  0  0  0  0  0  0  0
   -0.6267    0.5461    0.0000 C   0  0  0  0  0  0  0  0  0
   -1.3411    0.9586    0.0000 Cl  0  0  0  0  0  0  0  0  0
    0.0878    0.9586    0.0000 C   0  0  0  0  0  0  0  0  0
    0.8023    0.5461    0.0000 C   0  0  0  0  0  0  0  0  0
    1.5167    0.9586    0.0000 Cl  0  0  0  0  0  0  0  0  0
    0.8023   -0.2789    0.0000 C   0  0  0  0  0  0  0  0  0
    1.5167   -3.9914    0.0000 C   0  0  0  0  0  0  0  0  0
    2.2312   -4.4039    0.0000 C   0  0  0  0  0  0  0  0  0
    2.2312   -5.2289    0.0000 C   0  0  0  0  0  0  0  0  0
    1.5167   -5.6414    0.0000 N   0  0  0  0  0  0  0  0  0
    0.8023   -5.2289    0.0000 C   0  0  0  0  0  0  0  0  0
    0.8023   -4.4039    0.0000 C   0  0  0  0  0  0  0  0  0
    1.5167   -6.4664    0.0000 C   0  0  0  0  0  0  0  0  0
    2.1842   -6.9514    0.0000 C   0  0  0  0  0  0  0  0  0
    1.9292   -7.7360    0.0000 C   0  0  0  0  0  0  0  0  0
    1.1042   -7.7360    0.0000 C   0  0  0  0  0  0  0  0  0
    0.8493   -6.9514    0.0000 C   0  0  0  0  0  0  0  0  0
    2.2312   -1.9289    0.0000 C   0  0  0  0  0  0  0  0  0
    2.9457   -1.5164    0.0000 C   0  0  0  0  0  0  0  0  0
  1  2  1  0  0  0  0
  2  3  4  0  0  0  0
  2 31  4  0  0  0  0
  3  4  4  0  0  0  0
  4  5  4  0  0  0  0
  5  6  1  0  0  0  0
  5 30  4  0  0  0  0
  6  7  1  0  0  0  0
  6 19  1  0  0  0  0
  7  8  2  0  0  0  0
  7  9  1  0  0  0  0
  9 10  1  0  0  0  0
 10 11  1  0  0  0  0
 11 12  4  0  0  0  0
 11 18  4  0  0  0  0
 12 13  4  0  0  0  0
 13 14  1  0  0  0  0
 13 15  4  0  0  0  0
 15 16  4  0  0  0  0
 16 17  1  0  0  0  0
 16 18  4  0  0  0  0
 19 20  1  0  0  0  0
 19 24  1  0  0  0  0
 20 21  1  0  0  0  0
 21 22  1  0  0  0  0
 22 23  1  0  0  0  0
 22 25  1  0  0  0  0
 23 24  1  0  0  0  0
 25 26  1  0  0  0  0
 25 29  1  0  0  0  0
 26 27  1  0  0  0  0
 27 28  1  0  0  0  0
 28 29  1  0  0  0  0
 30 31  4  0  0  0  0
M  END
>  <Name_Molregno>
620509

>  <HISTAMINE H3>
7.44

$$$$
620510
  Marvin  02231216192D 0   1.00000     0.00000     0

 31 34  0  0  0  0  0  0  0  0999 V2000
    4.3630   -1.6027    0.0000 Br  0  0  0  0  0  0  0  0  0
    3.6485   -2.0152    0.0000 C   0  0  0  0  0  0  0  0  0
    3.6485   -2.8402    0.0000 C   0  0  0  0  0  0  0  0  0
    2.9340   -3.2527    0.0000 C   0  0  0  0  0  0  0  0  0
    2.2195   -2.8402    0.0000 C   0  0  0  0  0  0  0  0  0
    1.5051   -3.2527    0.0000 N   0  0  0  0  0  0  0  0  0
    0.7906   -2.8402    0.0000 C   0  0  0  0  0  0  0  0  0
    0.0761   -3.2527    0.0000 O   0  0  0  0  0  0  0  0  0
    0.7906   -2.0152    0.0000 N   0  0  0  0  0  0  0  0  0
    0.0761   -1.6027    0.0000 C   0  0  0  0  0  0  0  0  0
    0.0761   -0.7777    0.0000 C   0  0  0  0  0  0  0  0  0
   -0.6383   -0.3652    0.0000 C   0  0  0  0  0  0  0  0  0
   -0.6383    0.4598    0.0000 C   0  0  0  0  0  0  0  0  0
   -1.3528    0.8723    0.0000 Cl  0  0  0  0  0  0  0  0  0
    0.0761    0.8723    0.0000 C   0  0  0  0  0  0  0  0  0
    0.0761    1.6973    0.0000 Cl  0  0  0  0  0  0  0  0  0
    0.7906    0.4598    0.0000 C   0  0  0  0  0  0  0  0  0
    0.7906   -0.3652    0.0000 C   0  0  0  0  0  0  0  0  0
    1.5051   -4.0777    0.0000 C   0  0  0  0  0  0  0  0  0
    2.2195   -4.4902    0.0000 C   0  0  0  0  0  0  0  0  0
    2.2195   -5.3152    0.0000 C   0  0  0  0  0  0  0  0  0
    1.5051   -5.7277    0.0000 N   0  0  0  0  0  0  0  0  0
    0.7906   -5.3152    0.0000 C   0  0  0  0  0  0  0  0  0
    0.7906   -4.4902    0.0000 C   0  0  0  0  0  0  0  0  0
    1.5051   -6.5527    0.0000 C   0  0  0  0  0  0  0  0  0
    2.1725   -7.0376    0.0000 C   0  0  0  0  0  0  0  0  0
    1.9176   -7.8222    0.0000 C   0  0  0  0  0  0  0  0  0
    1.0926   -7.8222    0.0000 C   0  0  0  0  0  0  0  0  0
    0.8376   -7.0376    0.0000 C   0  0  0  0  0  0  0  0  0
    2.2195   -2.0152    0.0000 C   0  0  0  0  0  0  0  0  0
    2.9340   -1.6027    0.0000 C   0  0  0  0  0  0  0  0  0
  1  2  1  0  0  0  0
  2  3  4  0  0  0  0
  2 31  4  0  0  0  0
  3  4  4  0  0  0  0
  4  5  4  0  0  0  0
  5  6  1  0  0  0  0
  5 30  4  0  0  0  0
  6  7  1  0  0  0  0
  6 19  1  0  0  0  0
  7  8  2  0  0  0  0
  7  9  1  0  0  0  0
  9 10  1  0  0  0  0
 10 11  1  0  0  0  0
 11 12  4  0  0  0  0
 11 18  4  0  0  0  0
 12 13  4  0  0  0  0
 13 14  1  0  0  0  0
 13 15  4  0  0  0  0
 15 16  1  0  0  0  0
 15 17  4  0  0  0  0
 17 18  4  0  0  0  0
 19 20  1  0  0  0  0
 19 24  1  0  0  0  0
 20 21  1  0  0  0  0
 21 22  1  0  0  0  0
 22 23  1  0  0  0  0
 22 25  1  0  0  0  0
 23 24  1  0  0  0  0
 25 26  1  0  0  0  0
 25 29  1  0  0  0  0
 26 27  1  0  0  0  0
 27 28  1  0  0  0  0
 28 29  1  0  0  0  0
 30 31  4  0  0  0  0
M  END
>  <Name_Molregno>
620510

>  <HISTAMINE H3>
6.72

$$$$
620571
  Marvin  02231216192D 0   1.00000     0.00000     0

 31 34  0  0  0  0  0  0  0  0999 V2000
    4.2522   -1.6213    0.0000 Br  0  0  0  0  0  0  0  0  0
    3.5378   -2.0338    0.0000 C   0  0  0  0  0  0  0  0  0
    3.5378   -2.8588    0.0000 C   0  0  0  0  0  0  0  0  0
    2.8233   -3.2713    0.0000 C   0  0  0  0  0  0  0  0  0
    2.1088   -2.8588    0.0000 C   0  0  0  0  0  0  0  0  0
    1.3944   -3.2713    0.0000 N   0  0  0  0  0  0  0  0  0
    0.6799   -2.8588    0.0000 C   0  0  0  0  0  0  0  0  0
   -0.0346   -3.2713    0.0000 O   0  0  0  0  0  0  0  0  0
    0.6799   -2.0338    0.0000 N   0  0  0  0  0  0  0  0  0
   -0.0346   -1.6213    0.0000 C   0  0  0  0  0  0  0  0  0
   -0.0346   -0.7963    0.0000 C   0  0  0  0  0  0  0  0  0
   -0.7491   -0.3838    0.0000 C   0  0  0  0  0  0  0  0  0
   -0.7491    0.4412    0.0000 C   0  0  0  0  0  0  0  0  0
   -0.0346    0.8537    0.0000 C   0  0  0  0  0  0  0  0  0
   -0.0346    1.6787    0.0000 O   0  0  0  0  0  0  0  0  0
    0.6799    2.0912    0.0000 C   0  0  0  0  0  0  0  0  0
    0.6799    0.4412    0.0000 C   0  0  0  0  0  0  0  0  0
    0.6799   -0.3838    0.0000 C   0  0  0  0  0  0  0  0  0
    1.3944   -4.0963    0.0000 C   0  0  0  0  0  0  0  0  0
    2.1088   -4.5088    0.0000 C   0  0  0  0  0  0  0  0  0
    2.1088   -5.3338    0.0000 C   0  0  0  0  0  0  0  0  0
    1.3944   -5.7463    0.0000 N   0  0  0  0  0  0  0  0  0
    0.6799   -5.3338    0.0000 C   0  0  0  0  0  0  0  0  0
    0.6799   -4.5088    0.0000 C   0  0  0  0  0  0  0  0  0
    1.3944   -6.5713    0.0000 C   0  0  0  0  0  0  0  0  0
    2.0618   -7.0563    0.0000 C   0  0  0  0  0  0  0  0  0
    1.8069   -7.8409    0.0000 C   0  0  0  0  0  0  0  0  0
    0.9819   -7.8409    0.0000 C   0  0  0  0  0  0  0  0  0
    0.7269   -7.0563    0.0000 C   0  0  0  0  0  0  0  0  0
    2.1088   -2.0338    0.0000 C   0  0  0  0  0  0  0  0  0
    2.8233   -1.6213    0.0000 C   0  0  0  0  0  0  0  0  0
  1  2  1  0  0  0  0
  2  3  4  0  0  0  0
  2 31  4  0  0  0  0
  3  4  4  0  0  0  0
  4  5  4  0  0  0  0
  5  6  1  0  0  0  0
  5 30  4  0  0  0  0
  6  7  1  0  0  0  0
  6 19  1  0  0  0  0
  7  8  2  0  0  0  0
  7  9  1  0  0  0  0
  9 10  1  0  0  0  0
 10 11  1  0  0  0  0
 11 12  4  0  0  0  0
 11 18  4  0  0  0  0
 12 13  4  0  0  0  0
 13 14  4  0  0  0  0
 14 15  1  0  0  0  0
 14 17  4  0  0  0  0
 15 16  1  0  0  0  0
 17 18  4  0  0  0  0
 19 20  1  0  0  0  0
 19 24  1  0  0  0  0
 20 21  1  0  0  0  0
 21 22  1  0  0  0  0
 22 23  1  0  0  0  0
 22 25  1  0  0  0  0
 23 24  1  0  0  0  0
 25 26  1  0  0  0  0
 25 29  1  0  0  0  0
 26 27  1  0  0  0  0
 27 28  1  0  0  0  0
 28 29  1  0  0  0  0
 30 31  4  0  0  0  0
M  END
>  <Name_Molregno>
620571

>  <HISTAMINE H3>
7.33

$$$$
620572
  Marvin  02231216192D 0   1.00000     0.00000     0

 29 32  0  0  0  0  0  0  0  0999 V2000
    4.5086   -1.1816    0.0000 Br  0  0  0  0  0  0  0  0  0
    3.7942   -1.5941    0.0000 C   0  0  0  0  0  0  0  0  0
    3.7942   -2.4191    0.0000 C   0  0  0  0  0  0  0  0  0
    3.0797   -2.8316    0.0000 C   0  0  0  0  0  0  0  0  0
    2.3652   -2.4191    0.0000 C   0  0  0  0  0  0  0  0  0
    1.6508   -2.8316    0.0000 N   0  0  0  0  0  0  0  0  0
    0.9363   -2.4191    0.0000 C   0  0  0  0  0  0  0  0  0
    0.2218   -2.8316    0.0000 O   0  0  0  0  0  0  0  0  0
    0.9363   -1.5941    0.0000 N   0  0  0  0  0  0  0  0  0
    0.2218   -1.1816    0.0000 C   0  0  0  0  0  0  0  0  0
    0.2218   -0.3566    0.0000 C   0  0  0  0  0  0  0  0  0
   -0.4926    0.0559    0.0000 C   0  0  0  0  0  0  0  0  0
   -0.4926    0.8809    0.0000 C   0  0  0  0  0  0  0  0  0
    0.2218    1.2934    0.0000 C   0  0  0  0  0  0  0  0  0
    0.9363    0.8809    0.0000 C   0  0  0  0  0  0  0  0  0
    0.9363    0.0559    0.0000 C   0  0  0  0  0  0  0  0  0
    1.6508   -3.6566    0.0000 C   0  0  0  0  0  0  0  0  0
    2.3652   -4.0691    0.0000 C   0  0  0  0  0  0  0  0  0
    2.3652   -4.8941    0.0000 C   0  0  0  0  0  0  0  0  0
    1.6508   -5.3066    0.0000 N   0  0  0  0  0  0  0  0  0
    0.9363   -4.8941    0.0000 C   0  0  0  0  0  0  0  0  0
    0.9363   -4.0691    0.0000 C   0  0  0  0  0  0  0  0  0
    1.6508   -6.1316    0.0000 C   0  0  0  0  0  0  0  0  0
    2.3182   -6.6165    0.0000 C   0  0  0  0  0  0  0  0  0
    2.0633   -7.4011    0.0000 C   0  0  0  0  0  0  0  0  0
    1.2383   -7.4011    0.0000 C   0  0  0  0  0  0  0  0  0
    0.9833   -6.6165    0.0000 C   0  0  0  0  0  0  0  0  0
    2.3652   -1.5941    0.0000 C   0  0  0  0  0  0  0  0  0
    3.0797   -1.1816    0.0000 C   0  0  0  0  0  0  0  0  0
  1  2  1  0  0  0  0
  2  3  4  0  0  0  0
  2 29  4  0  0  0  0
  3  4  4  0  0  0  0
  4  5  4  0  0  0  0
  5  6  1  0  0  0  0
  5 28  4  0  0  0  0
  6  7  1  0  0  0  0
  6 17  1  0  0  0  0
  7  8  2  0  0  0  0
  7  9  1  0  0  0  0
  9 10  1  0  0  0  0
 10 11  1  0  0  0  0
 11 12  4  0  0  0  0
 11 16  4  0  0  0  0
 12 13  4  0  0  0  0
 13 14  4  0  0  0  0
 14 15  4  0  0  0  0
 15 16  4  0  0  0  0
 17 18  1  0  0  0  0
 17 22  1  0  0  0  0
 18 19  1  0  0  0  0
 19 20  1  0  0  0  0
 20 21  1  0  0  0  0
 20 23  1  0  0  0  0
 21 22  1  0  0  0  0
 23 24  1  0  0  0  0
 23 27  1  0  0  0  0
 24 25  1  0  0  0  0
 25 26  1  0  0  0  0
 26 27  1  0  0  0  0
 28 29  4  0  0  0  0
M  END
>  <Name_Molregno>
620572

>  <HISTAMINE H3>
8

$$$$
620573
  Marvin  02231216192D 0   1.00000     0.00000     0

 28 31  0  0  0  0  0  0  0  0999 V2000
    3.2084   -1.5238    0.0000 Br  0  0  0  0  0  0  0  0  0
    2.4940   -1.9363    0.0000 C   0  0  0  0  0  0  0  0  0
    2.4940   -2.7613    0.0000 C   0  0  0  0  0  0  0  0  0
    1.7795   -3.1738    0.0000 C   0  0  0  0  0  0  0  0  0
    1.0650   -2.7613    0.0000 C   0  0  0  0  0  0  0  0  0
    0.3505   -3.1738    0.0000 N   0  0  0  0  0  0  0  0  0
   -0.3639   -2.7613    0.0000 C   0  0  0  0  0  0  0  0  0
   -1.0784   -3.1738    0.0000 O   0  0  0  0  0  0  0  0  0
   -0.3639   -1.9363    0.0000 N   0  0  0  0  0  0  0  0  0
   -1.0784   -1.5238    0.0000 C   0  0  0  0  0  0  0  0  0
   -1.7929   -1.9363    0.0000 C   0  0  0  0  0  0  0  0  0
   -2.5073   -1.5238    0.0000 C   0  0  0  0  0  0  0  0  0
   -2.5073   -0.6988    0.0000 C   0  0  0  0  0  0  0  0  0
   -1.7929   -0.2863    0.0000 C   0  0  0  0  0  0  0  0  0
   -1.0784   -0.6988    0.0000 C   0  0  0  0  0  0  0  0  0
    0.3505   -3.9988    0.0000 C   0  0  0  0  0  0  0  0  0
    1.0650   -4.4113    0.0000 C   0  0  0  0  0  0  0  0  0
    1.0650   -5.2363    0.0000 C   0  0  0  0  0  0  0  0  0
    0.3505   -5.6488    0.0000 N   0  0  0  0  0  0  0  0  0
   -0.3639   -5.2363    0.0000 C   0  0  0  0  0  0  0  0  0
   -0.3639   -4.4113    0.0000 C   0  0  0  0  0  0  0  0  0
    0.3505   -6.4738    0.0000 C   0  0  0  0  0  0  0  0  0
    1.0180   -6.9587    0.0000 C   0  0  0  0  0  0  0  0  0
    0.7630   -7.7433    0.0000 C   0  0  0  0  0  0  0  0  0
   -0.0620   -7.7433    0.0000 C   0  0  0  0  0  0  0  0  0
   -0.3169   -6.9587    0.0000 C   0  0  0  0  0  0  0  0  0
    1.0650   -1.9363    0.0000 C   0  0  0  0  0  0  0  0  0
    1.7795   -1.5238    0.0000 C   0  0  0  0  0  0  0  0  0
  1  2  1  0  0  0  0
  2  3  4  0  0  0  0
  2 28  4  0  0  0  0
  3  4  4  0  0  0  0
  4  5  4  0  0  0  0
  5  6  1  0  0  0  0
  5 27  4  0  0  0  0
  6  7  1  0  0  0  0
  6 16  1  0  0  0  0
  7  8  2  0  0  0  0
  7  9  1  0  0  0  0
  9 10  1  0  0  0  0
 10 11  4  0  0  0  0
 10 15  4  0  0  0  0
 11 12  4  0  0  0  0
 12 13  4  0  0  0  0
 13 14  4  0  0  0  0
 14 15  4  0  0  0  0
 16 17  1  0  0  0  0
 16 21  1  0  0  0  0
 17 18  1  0  0  0  0
 18 19  1  0  0  0  0
 19 20  1  0  0  0  0
 19 22  1  0  0  0  0
 20 21  1  0  0  0  0
 22 23  1  0  0  0  0
 22 26  1  0  0  0  0
 23 24  1  0  0  0  0
 24 25  1  0  0  0  0
 25 26  1  0  0  0  0
 27 28  4  0  0  0  0
M  END
>  <Name_Molregno>
620573

>  <HISTAMINE H3>
7.85

$$$$
620574
  Marvin  02231216192D 0   1.00000     0.00000     0

 30 33  0  0  0  0  0  0  0  0999 V2000
    4.3878   -1.3938    0.0000 Br  0  0  0  0  0  0  0  0  0
    3.6733   -1.8063    0.0000 C   0  0  0  0  0  0  0  0  0
    3.6733   -2.6313    0.0000 C   0  0  0  0  0  0  0  0  0
    2.9588   -3.0438    0.0000 C   0  0  0  0  0  0  0  0  0
    2.2444   -2.6313    0.0000 C   0  0  0  0  0  0  0  0  0
    1.5299   -3.0438    0.0000 N   0  0  0  0  0  0  0  0  0
    0.8154   -2.6313    0.0000 C   0  0  0  0  0  0  0  0  0
    0.1009   -3.0438    0.0000 O   0  0  0  0  0  0  0  0  0
    0.8154   -1.8063    0.0000 N   0  0  0  0  0  0  0  0  0
    0.1009   -1.3938    0.0000 C   0  0  0  0  0  0  0  0  0
    0.1009   -0.5688    0.0000 C   0  0  0  0  0  0  0  0  0
   -0.6135   -0.1563    0.0000 C   0  0  0  0  0  0  0  0  0
   -0.6135    0.6687    0.0000 C   0  0  0  0  0  0  0  0  0
    0.1009    1.0812    0.0000 C   0  0  0  0  0  0  0  0  0
    0.1009    1.9062    0.0000 F   0  0  0  0  0  0  0  0  0
    0.8154    0.6687    0.0000 C   0  0  0  0  0  0  0  0  0
    0.8154   -0.1563    0.0000 C   0  0  0  0  0  0  0  0  0
    1.5299   -3.8688    0.0000 C   0  0  0  0  0  0  0  0  0
    2.2444   -4.2813    0.0000 C   0  0  0  0  0  0  0  0  0
    2.2444   -5.1063    0.0000 C   0  0  0  0  0  0  0  0  0
    1.5299   -5.5188    0.0000 N   0  0  0  0  0  0  0  0  0
    0.8154   -5.1063    0.0000 C   0  0  0  0  0  0  0  0  0
    0.8154   -4.2813    0.0000 C   0  0  0  0  0  0  0  0  0
    1.5299   -6.3438    0.0000 C   0  0  0  0  0  0  0  0  0
    2.1973   -6.8287    0.0000 C   0  0  0  0  0  0  0  0  0
    1.9424   -7.6133    0.0000 C   0  0  0  0  0  0  0  0  0
    1.1174   -7.6133    0.0000 C   0  0  0  0  0  0  0  0  0
    0.8624   -6.8287    0.0000 C   0  0  0  0  0  0  0  0  0
    2.2444   -1.8063    0.0000 C   0  0  0  0  0  0  0  0  0
    2.9588   -1.3938    0.0000 C   0  0  0  0  0  0  0  0  0
  1  2  1  0  0  0  0
  2  3  4  0  0  0  0
  2 30  4  0  0  0  0
  3  4  4  0  0  0  0
  4  5  4  0  0  0  0
  5  6  1  0  0  0  0
  5 29  4  0  0  0  0
  6  7  1  0  0  0  0
  6 18  1  0  0  0  0
  7  8  2  0  0  0  0
  7  9  1  0  0  0  0
  9 10  1  0  0  0  0
 10 11  1  0  0  0  0
 11 12  4  0  0  0  0
 11 17  4  0  0  0  0
 12 13  4  0  0  0  0
 13 14  4  0  0  0  0
 14 15  1  0  0  0  0
 14 16  4  0  0  0  0
 16 17  4  0  0  0  0
 18 19  1  0  0  0  0
 18 23  1  0  0  0  0
 19 20  1  0  0  0  0
 20 21  1  0  0  0  0
 21 22  1  0  0  0  0
 21 24  1  0  0  0  0
 22 23  1  0  0  0  0
 24 25  1  0  0  0  0
 24 28  1  0  0  0  0
 25 26  1  0  0  0  0
 26 27  1  0  0  0  0
 27 28  1  0  0  0  0
 29 30  4  0  0  0  0
M  END
>  <Name_Molregno>
620574

>  <HISTAMINE H3>
8.15

$$$$
620575
  Marvin  02231216192D 0   1.00000     0.00000     0

 28 30  0  0  0  0  0  0  0  0999 V2000
   -1.5180   -6.0966    0.0000 Br  0  0  0  0  0  0  0  0  0
   -1.5180   -5.2716    0.0000 C   0  0  0  0  0  0  0  0  0
   -2.2325   -4.8591    0.0000 C   0  0  0  0  0  0  0  0  0
   -2.2325   -4.0341    0.0000 C   0  0  0  0  0  0  0  0  0
   -1.5180   -3.6216    0.0000 C   0  0  0  0  0  0  0  0  0
   -1.5180   -2.7966    0.0000 N   0  0  0  0  0  0  0  0  0
   -0.8036   -2.3841    0.0000 C   0  0  0  0  0  0  0  0  0
   -0.8036   -1.5591    0.0000 O   0  0  0  0  0  0  0  0  0
   -0.0891   -2.7966    0.0000 N   0  0  0  0  0  0  0  0  0
    0.6254   -2.3841    0.0000 C   0  0  0  0  0  0  0  0  0
    1.3398   -2.7966    0.0000 C   0  0  0  0  0  0  0  0  0
    2.0543   -2.3841    0.0000 C   0  0  0  0  0  0  0  0  0
    2.7688   -2.7966    0.0000 C   0  0  0  0  0  0  0  0  0
    3.4832   -2.3841    0.0000 Cl  0  0  0  0  0  0  0  0  0
    2.7688   -3.6216    0.0000 C   0  0  0  0  0  0  0  0  0
    3.4832   -4.0341    0.0000 Cl  0  0  0  0  0  0  0  0  0
    2.0543   -4.0341    0.0000 C   0  0  0  0  0  0  0  0  0
    1.3398   -3.6216    0.0000 C   0  0  0  0  0  0  0  0  0
   -2.2325   -2.3841    0.0000 C   0  0  0  0  0  0  0  0  0
   -2.9470   -2.7966    0.0000 C   0  0  0  0  0  0  0  0  0
   -3.6615   -2.3841    0.0000 C   0  0  0  0  0  0  0  0  0
   -3.6615   -1.5591    0.0000 N   0  0  0  0  0  0  0  0  0
   -2.9470   -1.1466    0.0000 C   0  0  0  0  0  0  0  0  0
   -2.2325   -1.5591    0.0000 C   0  0  0  0  0  0  0  0  0
   -4.3759   -1.1466    0.0000 C   0  0  0  0  0  0  0  0  0
   -5.0904   -1.5591    0.0000 C   0  0  0  0  0  0  0  0  0
   -0.8036   -4.0341    0.0000 C   0  0  0  0  0  0  0  0  0
   -0.8036   -4.8591    0.0000 C   0  0  0  0  0  0  0  0  0
  1  2  1  0  0  0  0
  2  3  4  0  0  0  0
  2 28  4  0  0  0  0
  3  4  4  0  0  0  0
  4  5  4  0  0  0  0
  5  6  1  0  0  0  0
  5 27  4  0  0  0  0
  6  7  1  0  0  0  0
  6 19  1  0  0  0  0
  7  8  2  0  0  0  0
  7  9  1  0  0  0  0
  9 10  1  0  0  0  0
 10 11  1  0  0  0  0
 11 12  4  0  0  0  0
 11 18  4  0  0  0  0
 12 13  4  0  0  0  0
 13 14  1  0  0  0  0
 13 15  4  0  0  0  0
 15 16  1  0  0  0  0
 15 17  4  0  0  0  0
 17 18  4  0  0  0  0
 19 20  1  0  0  0  0
 19 24  1  0  0  0  0
 20 21  1  0  0  0  0
 21 22  1  0  0  0  0
 22 23  1  0  0  0  0
 22 25  1  0  0  0  0
 23 24  1  0  0  0  0
 25 26  1  0  0  0  0
 27 28  4  0  0  0  0
M  END
>  <Name_Molregno>
620575

>  <HISTAMINE H3>
7.64

$$$$
620658
  Marvin  02231216192D 0   1.00000     0.00000     0

 27 29  0  0  0  0  0  0  0  0999 V2000
    0.3579   -5.9530    0.0000 Cl  0  0  0  0  0  0  0  0  0
    0.3579   -5.1280    0.0000 C   0  0  0  0  0  0  0  0  0
   -0.3566   -4.7155    0.0000 C   0  0  0  0  0  0  0  0  0
   -0.3566   -3.8905    0.0000 C   0  0  0  0  0  0  0  0  0
    0.3579   -3.4780    0.0000 C   0  0  0  0  0  0  0  0  0
    0.3579   -2.6530    0.0000 N   0  0  0  0  0  0  0  0  0
    1.0724   -2.2405    0.0000 C   0  0  0  0  0  0  0  0  0
    1.0724   -1.4155    0.0000 O   0  0  0  0  0  0  0  0  0
    1.7868   -2.6530    0.0000 N   0  0  0  0  0  0  0  0  0
    2.5013   -2.2405    0.0000 C   0  0  0  0  0  0  0  0  0
    3.2158   -2.6530    0.0000 C   0  0  0  0  0  0  0  0  0
    3.9302   -2.2405    0.0000 C   0  0  0  0  0  0  0  0  0
    4.6447   -2.6530    0.0000 C   0  0  0  0  0  0  0  0  0
    4.6447   -3.4780    0.0000 C   0  0  0  0  0  0  0  0  0
    5.3592   -3.8905    0.0000 F   0  0  0  0  0  0  0  0  0
    3.9302   -3.8905    0.0000 C   0  0  0  0  0  0  0  0  0
    3.2158   -3.4780    0.0000 C   0  0  0  0  0  0  0  0  0
   -0.3566   -2.2405    0.0000 C   0  0  0  0  0  0  0  0  0
   -1.0711   -2.6530    0.0000 C   0  0  0  0  0  0  0  0  0
   -1.7855   -2.2405    0.0000 C   0  0  0  0  0  0  0  0  0
   -1.7855   -1.4155    0.0000 N   0  0  0  0  0  0  0  0  0
   -1.0711   -1.0030    0.0000 C   0  0  0  0  0  0  0  0  0
   -0.3566   -1.4155    0.0000 C   0  0  0  0  0  0  0  0  0
   -2.5000   -1.0030    0.0000 C   0  0  0  0  0  0  0  0  0
   -3.2145   -1.4155    0.0000 C   0  0  0  0  0  0  0  0  0
    1.0724   -3.8905    0.0000 C   0  0  0  0  0  0  0  0  0
    1.0724   -4.7155    0.0000 C   0  0  0  0  0  0  0  0  0
  1  2  1  0  0  0  0
  2  3  4  0  0  0  0
  2 27  4  0  0  0  0
  3  4  4  0  0  0  0
  4  5  4  0  0  0  0
  5  6  1  0  0  0  0
  5 26  4  0  0  0  0
  6  7  1  0  0  0  0
  6 18  1  0  0  0  0
  7  8  2  0  0  0  0
  7  9  1  0  0  0  0
  9 10  1  0  0  0  0
 10 11  1  0  0  0  0
 11 12  4  0  0  0  0
 11 17  4  0  0  0  0
 12 13  4  0  0  0  0
 13 14  4  0  0  0  0
 14 15  1  0  0  0  0
 14 16  4  0  0  0  0
 16 17  4  0  0  0  0
 18 19  1  0  0  0  0
 18 23  1  0  0  0  0
 19 20  1  0  0  0  0
 20 21  1  0  0  0  0
 21 22  1  0  0  0  0
 21 24  1  0  0  0  0
 22 23  1  0  0  0  0
 24 25  1  0  0  0  0
 26 27  4  0  0  0  0
M  END
>  <Name_Molregno>
620658

>  <HISTAMINE H3>
8.15

$$$$
620659
  Marvin  02231216192D 0   1.00000     0.00000     0

 27 29  0  0  0  0  0  0  0  0999 V2000
    0.3579   -5.9530    0.0000 Cl  0  0  0  0  0  0  0  0  0
    0.3579   -5.1280    0.0000 C   0  0  0  0  0  0  0  0  0
   -0.3566   -4.7155    0.0000 C   0  0  0  0  0  0  0  0  0
   -0.3566   -3.8905    0.0000 C   0  0  0  0  0  0  0  0  0
    0.3579   -3.4780    0.0000 C   0  0  0  0  0  0  0  0  0
    1.0724   -3.8905    0.0000 N   0  0  0  0  0  0  0  0  0
    1.0724   -4.7155    0.0000 C   0  0  0  0  0  0  0  0  0
    0.3579   -2.6530    0.0000 N   0  0  0  0  0  0  0  0  0
    1.0724   -2.2405    0.0000 C   0  0  0  0  0  0  0  0  0
    1.0724   -1.4155    0.0000 O   0  0  0  0  0  0  0  0  0
    1.7868   -2.6530    0.0000 N   0  0  0  0  0  0  0  0  0
    2.5013   -2.2405    0.0000 C   0  0  0  0  0  0  0  0  0
    3.2158   -2.6530    0.0000 C   0  0  0  0  0  0  0  0  0
    3.9302   -2.2405    0.0000 C   0  0  0  0  0  0  0  0  0
    4.6447   -2.6530    0.0000 C   0  0  0  0  0  0  0  0  0
    4.6447   -3.4780    0.0000 C   0  0  0  0  0  0  0  0  0
    5.3592   -3.8905    0.0000 F   0  0  0  0  0  0  0  0  0
    3.9302   -3.8905    0.0000 C   0  0  0  0  0  0  0  0  0
    3.2158   -3.4780    0.0000 C   0  0  0  0  0  0  0  0  0
   -0.3566   -2.2405    0.0000 C   0  0  0  0  0  0  0  0  0
   -1.0711   -2.6530    0.0000 C   0  0  0  0  0  0  0  0  0
   -1.7855   -2.2405    0.0000 C   0  0  0  0  0  0  0  0  0
   -1.7855   -1.4155    0.0000 N   0  0  0  0  0  0  0  0  0
   -1.0711   -1.0030    0.0000 C   0  0  0  0  0  0  0  0  0
   -0.3566   -1.4155    0.0000 C   0  0  0  0  0  0  0  0  0
   -2.5000   -1.0030    0.0000 C   0  0  0  0  0  0  0  0  0
   -3.2145   -1.4155    0.0000 C   0  0  0  0  0  0  0  0  0
  1  2  1  0  0  0  0
  2  3  4  0  0  0  0
  2  7  4  0  0  0  0
  3  4  4  0  0  0  0
  4  5  4  0  0  0  0
  5  6  4  0  0  0  0
  5  8  1  0  0  0  0
  6  7  4  0  0  0  0
  8  9  1  0  0  0  0
  8 20  1  0  0  0  0
  9 10  2  0  0  0  0
  9 11  1  0  0  0  0
 11 12  1  0  0  0  0
 12 13  1  0  0  0  0
 13 14  4  0  0  0  0
 13 19  4  0  0  0  0
 14 15  4  0  0  0  0
 15 16  4  0  0  0  0
 16 17  1  0  0  0  0
 16 18  4  0  0  0  0
 18 19  4  0  0  0  0
 20 21  1  0  0  0  0
 20 25  1  0  0  0  0
 21 22  1  0  0  0  0
 22 23  1  0  0  0  0
 23 24  1  0  0  0  0
 23 26  1  0  0  0  0
 24 25  1  0  0  0  0
 26 27  1  0  0  0  0
M  END
>  <Name_Molregno>
620659

>  <HISTAMINE H3>
7.39

$$$$
620660
  Marvin  02231216192D 0   1.00000     0.00000     0

 27 29  0  0  0  0  0  0  0  0999 V2000
   -0.2108    2.2397    0.0000 F   0  0  0  0  0  0  0  0  0
    0.5037    1.8272    0.0000 C   0  0  0  0  0  0  0  0  0
    1.2181    2.2397    0.0000 C   0  0  0  0  0  0  0  0  0
    1.9326    1.8272    0.0000 C   0  0  0  0  0  0  0  0  0
    1.9326    1.0022    0.0000 C   0  0  0  0  0  0  0  0  0
    1.2181    0.5897    0.0000 C   0  0  0  0  0  0  0  0  0
    0.5037    1.0022    0.0000 C   0  0  0  0  0  0  0  0  0
    2.6471    0.5897    0.0000 C   0  0  0  0  0  0  0  0  0
    3.3615    1.0022    0.0000 N   0  0  0  0  0  0  0  0  0
    4.0760    0.5897    0.0000 C   0  0  0  0  0  0  0  0  0
    4.0760   -0.2353    0.0000 O   0  0  0  0  0  0  0  0  0
    4.7905    1.0022    0.0000 N   0  0  0  0  0  0  0  0  0
    5.5050    0.5897    0.0000 C   0  0  0  0  0  0  0  0  0
    6.2194    1.0022    0.0000 C   0  0  0  0  0  0  0  0  0
    6.9339    0.5897    0.0000 C   0  0  0  0  0  0  0  0  0
    6.9339   -0.2353    0.0000 N   0  0  0  0  0  0  0  0  0
    6.2194   -0.6478    0.0000 C   0  0  0  0  0  0  0  0  0
    5.5050   -0.2353    0.0000 C   0  0  0  0  0  0  0  0  0
    7.6484   -0.6478    0.0000 C   0  0  0  0  0  0  0  0  0
    8.3628   -0.2353    0.0000 C   0  0  0  0  0  0  0  0  0
    4.7905    1.8272    0.0000 C   0  0  0  0  0  0  0  0  0
    4.0760    2.2397    0.0000 C   0  0  0  0  0  0  0  0  0
    4.0760    3.0647    0.0000 C   0  0  0  0  0  0  0  0  0
    4.7905    3.4772    0.0000 C   0  0  0  0  0  0  0  0  0
    4.7905    4.3022    0.0000 F   0  0  0  0  0  0  0  0  0
    5.5050    3.0647    0.0000 C   0  0  0  0  0  0  0  0  0
    5.5050    2.2397    0.0000 C   0  0  0  0  0  0  0  0  0
  1  2  1  0  0  0  0
  2  3  4  0  0  0  0
  2  7  4  0  0  0  0
  3  4  4  0  0  0  0
  4  5  4  0  0  0  0
  5  6  4  0  0  0  0
  5  8  1  0  0  0  0
  6  7  4  0  0  0  0
  8  9  1  0  0  0  0
  9 10  1  0  0  0  0
 10 11  2  0  0  0  0
 10 12  1  0  0  0  0
 12 13  1  0  0  0  0
 12 21  1  0  0  0  0
 13 14  1  0  0  0  0
 13 18  1  0  0  0  0
 14 15  1  0  0  0  0
 15 16  1  0  0  0  0
 16 17  1  0  0  0  0
 16 19  1  0  0  0  0
 17 18  1  0  0  0  0
 19 20  1  0  0  0  0
 21 22  4  0  0  0  0
 21 27  4  0  0  0  0
 22 23  4  0  0  0  0
 23 24  4  0  0  0  0
 24 25  1  0  0  0  0
 24 26  4  0  0  0  0
 26 27  4  0  0  0  0
M  END
>  <Name_Molregno>
620660

>  <HISTAMINE H3>
6.35

$$$$
620661
  Marvin  02231216192D 0   1.00000     0.00000     0

 29 32  0  0  0  0  0  0  0  0999 V2000
    3.4946    6.0080    0.0000 F   0  0  0  0  0  0  0  0  0
    3.4946    5.1830    0.0000 C   0  0  0  0  0  0  0  0  0
    4.2091    4.7705    0.0000 C   0  0  0  0  0  0  0  0  0
    4.2091    3.9455    0.0000 C   0  0  0  0  0  0  0  0  0
    3.4946    3.5330    0.0000 C   0  0  0  0  0  0  0  0  0
    2.7802    3.9455    0.0000 C   0  0  0  0  0  0  0  0  0
    2.7802    4.7705    0.0000 C   0  0  0  0  0  0  0  0  0
    3.4946    2.7080    0.0000 C   0  0  0  0  0  0  0  0  0
    4.2091    2.2955    0.0000 N   0  0  0  0  0  0  0  0  0
    4.2091    1.4705    0.0000 C   0  0  0  0  0  0  0  0  0
    3.4946    1.0580    0.0000 O   0  0  0  0  0  0  0  0  0
    4.9236    1.0580    0.0000 N   0  0  0  0  0  0  0  0  0
    4.9236    0.2330    0.0000 C   0  0  0  0  0  0  0  0  0
    5.6380   -0.1795    0.0000 C   0  0  0  0  0  0  0  0  0
    5.6380   -1.0045    0.0000 C   0  0  0  0  0  0  0  0  0
    4.9236   -1.4170    0.0000 N   0  0  0  0  0  0  0  0  0
    4.2091   -1.0045    0.0000 C   0  0  0  0  0  0  0  0  0
    4.2091   -0.1795    0.0000 C   0  0  0  0  0  0  0  0  0
    4.9236   -2.2420    0.0000 C   0  0  0  0  0  0  0  0  0
    5.5910   -2.7269    0.0000 C   0  0  0  0  0  0  0  0  0
    5.3361   -3.5115    0.0000 C   0  0  0  0  0  0  0  0  0
    4.5111   -3.5115    0.0000 C   0  0  0  0  0  0  0  0  0
    4.2561   -2.7269    0.0000 C   0  0  0  0  0  0  0  0  0
    5.6380    1.4705    0.0000 C   0  0  0  0  0  0  0  0  0
    5.6380    2.2955    0.0000 C   0  0  0  0  0  0  0  0  0
    6.3525    2.7080    0.0000 C   0  0  0  0  0  0  0  0  0
    7.0670    2.2955    0.0000 C   0  0  0  0  0  0  0  0  0
    7.0670    1.4705    0.0000 C   0  0  0  0  0  0  0  0  0
    6.3525    1.0580    0.0000 C   0  0  0  0  0  0  0  0  0
  1  2  1  0  0  0  0
  2  3  4  0  0  0  0
  2  7  4  0  0  0  0
  3  4  4  0  0  0  0
  4  5  4  0  0  0  0
  5  6  4  0  0  0  0
  5  8  1  0  0  0  0
  6  7  4  0  0  0  0
  8  9  1  0  0  0  0
  9 10  1  0  0  0  0
 10 11  2  0  0  0  0
 10 12  1  0  0  0  0
 12 13  1  0  0  0  0
 12 24  1  0  0  0  0
 13 14  1  0  0  0  0
 13 18  1  0  0  0  0
 14 15  1  0  0  0  0
 15 16  1  0  0  0  0
 16 17  1  0  0  0  0
 16 19  1  0  0  0  0
 17 18  1  0  0  0  0
 19 20  1  0  0  0  0
 19 23  1  0  0  0  0
 20 21  1  0  0  0  0
 21 22  1  0  0  0  0
 22 23  1  0  0  0  0
 24 25  4  0  0  0  0
 24 29  4  0  0  0  0
 25 26  4  0  0  0  0
 26 27  4  0  0  0  0
 27 28  4  0  0  0  0
 28 29  4  0  0  0  0
M  END
>  <Name_Molregno>
620661

>  <HISTAMINE H3>
6

$$$$
620662
  Marvin  02231216192D 0   1.00000     0.00000     0

 28 30  0  0  0  0  0  0  0  0999 V2000
   -0.2871   -0.5628    0.0000 F   0  0  0  0  0  0  0  0  0
    0.4273   -0.9753    0.0000 C   0  0  0  0  0  0  0  0  0
    1.1418   -0.5628    0.0000 C   0  0  0  0  0  0  0  0  0
    1.8563   -0.9753    0.0000 C   0  0  0  0  0  0  0  0  0
    1.8563   -1.8003    0.0000 C   0  0  0  0  0  0  0  0  0
    1.1418   -2.2128    0.0000 C   0  0  0  0  0  0  0  0  0
    0.4273   -1.8003    0.0000 C   0  0  0  0  0  0  0  0  0
    2.5707   -2.2128    0.0000 C   0  0  0  0  0  0  0  0  0
    3.2852   -1.8003    0.0000 N   0  0  0  0  0  0  0  0  0
    3.9997   -2.2128    0.0000 C   0  0  0  0  0  0  0  0  0
    3.9997   -3.0378    0.0000 O   0  0  0  0  0  0  0  0  0
    4.7142   -1.8003    0.0000 N   0  0  0  0  0  0  0  0  0
    5.4286   -2.2128    0.0000 C   0  0  0  0  0  0  0  0  0
    6.1431   -1.8003    0.0000 C   0  0  0  0  0  0  0  0  0
    6.8576   -2.2128    0.0000 C   0  0  0  0  0  0  0  0  0
    6.8576   -3.0378    0.0000 N   0  0  0  0  0  0  0  0  0
    6.1431   -3.4503    0.0000 C   0  0  0  0  0  0  0  0  0
    5.4286   -3.0378    0.0000 C   0  0  0  0  0  0  0  0  0
    7.5720   -3.4503    0.0000 C   0  0  0  0  0  0  0  0  0
    8.2865   -3.0378    0.0000 C   0  0  0  0  0  0  0  0  0
    4.7142   -0.9753    0.0000 C   0  0  0  0  0  0  0  0  0
    3.9997   -0.5628    0.0000 C   0  0  0  0  0  0  0  0  0
    3.9997    0.2622    0.0000 C   0  0  0  0  0  0  0  0  0
    4.7142    0.6747    0.0000 C   0  0  0  0  0  0  0  0  0
    5.4286    0.2622    0.0000 C   0  0  0  0  0  0  0  0  0
    5.4286   -0.5628    0.0000 C   0  0  0  0  0  0  0  0  0
    4.7142    1.4997    0.0000 C   0  0  0  0  0  0  0  0  0
    5.4286    1.9122    0.0000 O   0  0  0  0  0  0  0  0  0
  1  2  1  0  0  0  0
  2  3  4  0  0  0  0
  2  7  4  0  0  0  0
  3  4  4  0  0  0  0
  4  5  4  0  0  0  0
  5  6  4  0  0  0  0
  5  8  1  0  0  0  0
  6  7  4  0  0  0  0
  8  9  1  0  0  0  0
  9 10  1  0  0  0  0
 10 11  2  0  0  0  0
 10 12  1  0  0  0  0
 12 13  1  0  0  0  0
 12 21  1  0  0  0  0
 13 14  1  0  0  0  0
 13 18  1  0  0  0  0
 14 15  1  0  0  0  0
 15 16  1  0  0  0  0
 16 17  1  0  0  0  0
 16 19  1  0  0  0  0
 17 18  1  0  0  0  0
 19 20  1  0  0  0  0
 21 22  4  0  0  0  0
 21 26  4  0  0  0  0
 22 23  4  0  0  0  0
 23 24  4  0  0  0  0
 24 25  4  0  0  0  0
 24 27  1  0  0  0  0
 25 26  4  0  0  0  0
 27 28  1  0  0  0  0
M  END
>  <Name_Molregno>
620662

>  <HISTAMINE H3>
6.25

$$$$
620764
  Marvin  02231216192D 0   1.00000     0.00000     0

 28 30  0  0  0  0  0  0  0  0999 V2000
   -7.2686   -2.8522    0.0000 Br  0  0  0  0  0  0  0  0  0
   -6.5542   -2.4397    0.0000 C   0  0  0  0  0  0  0  0  0
   -6.5542   -1.6147    0.0000 C   0  0  0  0  0  0  0  0  0
   -5.8397   -1.2022    0.0000 C   0  0  0  0  0  0  0  0  0
   -5.1252   -1.6147    0.0000 C   0  0  0  0  0  0  0  0  0
   -5.1252   -2.4397    0.0000 C   0  0  0  0  0  0  0  0  0
   -5.8397   -2.8522    0.0000 C   0  0  0  0  0  0  0  0  0
   -4.4107   -1.2022    0.0000 C   0  0  0  0  0  0  0  0  0
   -3.6963   -1.6147    0.0000 N   0  0  0  0  0  0  0  0  0
   -2.9818   -1.2022    0.0000 C   0  0  0  0  0  0  0  0  0
   -2.9818   -0.3772    0.0000 O   0  0  0  0  0  0  0  0  0
   -2.2673   -1.6147    0.0000 N   0  0  0  0  0  0  0  0  0
   -1.5529   -1.2022    0.0000 C   0  0  0  0  0  0  0  0  0
   -0.8384   -1.6147    0.0000 C   0  0  0  0  0  0  0  0  0
   -0.1239   -1.2022    0.0000 C   0  0  0  0  0  0  0  0  0
    0.5906   -1.6147    0.0000 C   0  0  0  0  0  0  0  0  0
    0.5906   -2.4397    0.0000 C   0  0  0  0  0  0  0  0  0
    1.3050   -2.8522    0.0000 F   0  0  0  0  0  0  0  0  0
   -0.1239   -2.8522    0.0000 C   0  0  0  0  0  0  0  0  0
   -0.8384   -2.4397    0.0000 C   0  0  0  0  0  0  0  0  0
   -3.6963   -2.4397    0.0000 C   0  0  0  0  0  0  0  0  0
   -2.9818   -2.8522    0.0000 C   0  0  0  0  0  0  0  0  0
   -2.9818   -3.6772    0.0000 C   0  0  0  0  0  0  0  0  0
   -3.6963   -4.0897    0.0000 N   0  0  0  0  0  0  0  0  0
   -4.4107   -3.6772    0.0000 C   0  0  0  0  0  0  0  0  0
   -4.4107   -2.8522    0.0000 C   0  0  0  0  0  0  0  0  0
   -3.6963   -4.9147    0.0000 C   0  0  0  0  0  0  0  0  0
   -4.4107   -5.3272    0.0000 C   0  0  0  0  0  0  0  0  0
  1  2  1  0  0  0  0
  2  3  4  0  0  0  0
  2  7  4  0  0  0  0
  3  4  4  0  0  0  0
  4  5  4  0  0  0  0
  5  6  4  0  0  0  0
  5  8  1  0  0  0  0
  6  7  4  0  0  0  0
  8  9  1  0  0  0  0
  9 10  1  0  0  0  0
  9 21  1  0  0  0  0
 10 11  2  0  0  0  0
 10 12  1  0  0  0  0
 12 13  1  0  0  0  0
 13 14  1  0  0  0  0
 14 15  4  0  0  0  0
 14 20  4  0  0  0  0
 15 16  4  0  0  0  0
 16 17  4  0  0  0  0
 17 18  1  0  0  0  0
 17 19  4  0  0  0  0
 19 20  4  0  0  0  0
 21 22  1  0  0  0  0
 21 26  1  0  0  0  0
 22 23  1  0  0  0  0
 23 24  1  0  0  0  0
 24 25  1  0  0  0  0
 24 27  1  0  0  0  0
 25 26  1  0  0  0  0
 27 28  1  0  0  0  0
M  END
>  <Name_Molregno>
620764

>  <HISTAMINE H3>
6

$$$$
620765
  Marvin  02231216192D 0   1.00000     0.00000     0

 26 28  0  0  0  0  0  0  0  0999 V2000
   -0.1606    2.2818    0.0000 F   0  0  0  0  0  0  0  0  0
    0.5539    1.8693    0.0000 C   0  0  0  0  0  0  0  0  0
    1.2684    2.2818    0.0000 C   0  0  0  0  0  0  0  0  0
    1.9828    1.8693    0.0000 C   0  0  0  0  0  0  0  0  0
    1.9828    1.0443    0.0000 C   0  0  0  0  0  0  0  0  0
    1.2684    0.6318    0.0000 C   0  0  0  0  0  0  0  0  0
    0.5539    1.0443    0.0000 C   0  0  0  0  0  0  0  0  0
    2.6973    0.6318    0.0000 C   0  0  0  0  0  0  0  0  0
    3.4118    1.0443    0.0000 N   0  0  0  0  0  0  0  0  0
    4.1263    0.6318    0.0000 C   0  0  0  0  0  0  0  0  0
    4.1263   -0.1932    0.0000 O   0  0  0  0  0  0  0  0  0
    4.8407    1.0443    0.0000 N   0  0  0  0  0  0  0  0  0
    5.5552    0.6318    0.0000 C   0  0  0  0  0  0  0  0  0
    6.2697    1.0443    0.0000 C   0  0  0  0  0  0  0  0  0
    6.9841    0.6318    0.0000 C   0  0  0  0  0  0  0  0  0
    6.9841   -0.1932    0.0000 N   0  0  0  0  0  0  0  0  0
    6.2697   -0.6057    0.0000 C   0  0  0  0  0  0  0  0  0
    5.5552   -0.1932    0.0000 C   0  0  0  0  0  0  0  0  0
    7.6986   -0.6057    0.0000 C   0  0  0  0  0  0  0  0  0
    8.4131   -0.1932    0.0000 C   0  0  0  0  0  0  0  0  0
    4.8407    1.8693    0.0000 C   0  0  0  0  0  0  0  0  0
    4.1263    2.2818    0.0000 C   0  0  0  0  0  0  0  0  0
    4.1263    3.1068    0.0000 C   0  0  0  0  0  0  0  0  0
    4.8407    3.5193    0.0000 N   0  0  0  0  0  0  0  0  0
    5.5552    3.1068    0.0000 C   0  0  0  0  0  0  0  0  0
    5.5552    2.2818    0.0000 C   0  0  0  0  0  0  0  0  0
  1  2  1  0  0  0  0
  2  3  4  0  0  0  0
  2  7  4  0  0  0  0
  3  4  4  0  0  0  0
  4  5  4  0  0  0  0
  5  6  4  0  0  0  0
  5  8  1  0  0  0  0
  6  7  4  0  0  0  0
  8  9  1  0  0  0  0
  9 10  1  0  0  0  0
 10 11  2  0  0  0  0
 10 12  1  0  0  0  0
 12 13  1  0  0  0  0
 12 21  1  0  0  0  0
 13 14  1  0  0  0  0
 13 18  1  0  0  0  0
 14 15  1  0  0  0  0
 15 16  1  0  0  0  0
 16 17  1  0  0  0  0
 16 19  1  0  0  0  0
 17 18  1  0  0  0  0
 19 20  1  0  0  0  0
 21 22  1  0  0  0  0
 21 26  1  0  0  0  0
 22 23  1  0  0  0  0
 23 24  1  0  0  0  0
 24 25  1  0  0  0  0
 25 26  1  0  0  0  0
M  END
>  <Name_Molregno>
620765

>  <HISTAMINE H3>
6

$$$$
620766
  Marvin  02231216192D 0   1.00000     0.00000     0

 29 31  0  0  0  0  0  0  0  0999 V2000
   -0.2256   -0.3716    0.0000 F   0  0  0  0  0  0  0  0  0
    0.4889   -0.7841    0.0000 C   0  0  0  0  0  0  0  0  0
    1.2033   -0.3716    0.0000 C   0  0  0  0  0  0  0  0  0
    1.9178   -0.7841    0.0000 C   0  0  0  0  0  0  0  0  0
    1.9178   -1.6091    0.0000 C   0  0  0  0  0  0  0  0  0
    1.2033   -2.0216    0.0000 C   0  0  0  0  0  0  0  0  0
    0.4889   -1.6091    0.0000 C   0  0  0  0  0  0  0  0  0
    2.6323   -2.0216    0.0000 C   0  0  0  0  0  0  0  0  0
    3.3468   -1.6091    0.0000 N   0  0  0  0  0  0  0  0  0
    4.0612   -2.0216    0.0000 C   0  0  0  0  0  0  0  0  0
    4.0612   -2.8466    0.0000 O   0  0  0  0  0  0  0  0  0
    4.7757   -1.6091    0.0000 N   0  0  0  0  0  0  0  0  0
    5.4902   -2.0216    0.0000 C   0  0  0  0  0  0  0  0  0
    6.2046   -1.6091    0.0000 C   0  0  0  0  0  0  0  0  0
    6.9191   -2.0216    0.0000 C   0  0  0  0  0  0  0  0  0
    6.9191   -2.8466    0.0000 N   0  0  0  0  0  0  0  0  0
    6.2046   -3.2591    0.0000 C   0  0  0  0  0  0  0  0  0
    5.4902   -2.8466    0.0000 C   0  0  0  0  0  0  0  0  0
    7.6336   -3.2591    0.0000 C   0  0  0  0  0  0  0  0  0
    7.6336   -4.0841    0.0000 C   0  0  0  0  0  0  0  0  0
    8.3480   -4.4966    0.0000 O   0  0  0  0  0  0  0  0  0
    4.7757   -0.7841    0.0000 C   0  0  0  0  0  0  0  0  0
    4.0612   -0.3716    0.0000 C   0  0  0  0  0  0  0  0  0
    4.0612    0.4534    0.0000 C   0  0  0  0  0  0  0  0  0
    4.7757    0.8659    0.0000 N   0  0  0  0  0  0  0  0  0
    5.4902    0.4534    0.0000 C   0  0  0  0  0  0  0  0  0
    5.4902   -0.3716    0.0000 C   0  0  0  0  0  0  0  0  0
    4.7757    1.6909    0.0000 C   0  0  0  0  0  0  0  0  0
    5.4902    2.1034    0.0000 C   0  0  0  0  0  0  0  0  0
  1  2  1  0  0  0  0
  2  3  4  0  0  0  0
  2  7  4  0  0  0  0
  3  4  4  0  0  0  0
  4  5  4  0  0  0  0
  5  6  4  0  0  0  0
  5  8  1  0  0  0  0
  6  7  4  0  0  0  0
  8  9  1  0  0  0  0
  9 10  1  0  0  0  0
 10 11  2  0  0  0  0
 10 12  1  0  0  0  0
 12 13  1  0  0  0  0
 12 22  1  0  0  0  0
 13 14  1  0  0  0  0
 13 18  1  0  0  0  0
 14 15  1  0  0  0  0
 15 16  1  0  0  0  0
 16 17  1  0  0  0  0
 16 19  1  0  0  0  0
 17 18  1  0  0  0  0
 19 20  1  0  0  0  0
 20 21  1  0  0  0  0
 22 23  1  0  0  0  0
 22 27  1  0  0  0  0
 23 24  1  0  0  0  0
 24 25  1  0  0  0  0
 25 26  1  0  0  0  0
 25 28  1  0  0  0  0
 26 27  1  0  0  0  0
 28 29  1  0  0  0  0
M  END
>  <Name_Molregno>
620766

>  <HISTAMINE H3>
6

$$$$
620767
  Marvin  02231216192D 0   1.00000     0.00000     0

 25 27  0  0  0  0  0  0  0  0999 V2000
   -0.1023    3.6625    0.0000 Cl  0  0  0  0  0  0  0  0  0
    0.6122    3.2500    0.0000 C   0  0  0  0  0  0  0  0  0
    1.3266    3.6625    0.0000 C   0  0  0  0  0  0  0  0  0
    2.0411    3.2500    0.0000 C   0  0  0  0  0  0  0  0  0
    2.0411    2.4250    0.0000 C   0  0  0  0  0  0  0  0  0
    2.7556    2.0125    0.0000 N   0  0  0  0  0  0  0  0  0
    3.4700    2.4250    0.0000 C   0  0  0  0  0  0  0  0  0
    3.4700    3.2500    0.0000 O   0  0  0  0  0  0  0  0  0
    4.1845    2.0125    0.0000 N   0  0  0  0  0  0  0  0  0
    4.8990    2.4250    0.0000 C   0  0  0  0  0  0  0  0  0
    5.6134    2.0125    0.0000 C   0  0  0  0  0  0  0  0  0
    6.3279    2.4250    0.0000 C   0  0  0  0  0  0  0  0  0
    7.0424    2.0125    0.0000 C   0  0  0  0  0  0  0  0  0
    7.0424    1.1875    0.0000 C   0  0  0  0  0  0  0  0  0
    7.7569    0.7750    0.0000 F   0  0  0  0  0  0  0  0  0
    6.3279    0.7750    0.0000 C   0  0  0  0  0  0  0  0  0
    5.6134    1.1875    0.0000 C   0  0  0  0  0  0  0  0  0
    2.7556    1.1875    0.0000 C   0  0  0  0  0  0  0  0  0
    3.4700    0.7750    0.0000 C   0  0  0  0  0  0  0  0  0
    3.4700   -0.0500    0.0000 C   0  0  0  0  0  0  0  0  0
    2.7556   -0.4625    0.0000 N   0  0  0  0  0  0  0  0  0
    2.0411   -0.0500    0.0000 C   0  0  0  0  0  0  0  0  0
    2.0411    0.7750    0.0000 C   0  0  0  0  0  0  0  0  0
    1.3266    2.0125    0.0000 C   0  0  0  0  0  0  0  0  0
    0.6122    2.4250    0.0000 C   0  0  0  0  0  0  0  0  0
  1  2  1  0  0  0  0
  2  3  4  0  0  0  0
  2 25  4  0  0  0  0
  3  4  4  0  0  0  0
  4  5  4  0  0  0  0
  5  6  1  0  0  0  0
  5 24  4  0  0  0  0
  6  7  1  0  0  0  0
  6 18  1  0  0  0  0
  7  8  2  0  0  0  0
  7  9  1  0  0  0  0
  9 10  1  0  0  0  0
 10 11  1  0  0  0  0
 11 12  4  0  0  0  0
 11 17  4  0  0  0  0
 12 13  4  0  0  0  0
 13 14  4  0  0  0  0
 14 15  1  0  0  0  0
 14 16  4  0  0  0  0
 16 17  4  0  0  0  0
 18 19  1  0  0  0  0
 18 23  1  0  0  0  0
 19 20  1  0  0  0  0
 20 21  1  0  0  0  0
 21 22  1  0  0  0  0
 22 23  1  0  0  0  0
 24 25  4  0  0  0  0
M  END
>  <Name_Molregno>
620767

>  <HISTAMINE H3>
6

$$$$
620768
  Marvin  02231216192D 0   1.00000     0.00000     0

 29 31  0  0  0  0  0  0  0  0999 V2000
    0.9002   -6.0701    0.0000 Cl  0  0  0  0  0  0  0  0  0
    0.9002   -5.2451    0.0000 C   0  0  0  0  0  0  0  0  0
    0.1857   -4.8326    0.0000 C   0  0  0  0  0  0  0  0  0
    0.1857   -4.0076    0.0000 C   0  0  0  0  0  0  0  0  0
    0.9002   -3.5951    0.0000 C   0  0  0  0  0  0  0  0  0
    0.9002   -2.7701    0.0000 N   0  0  0  0  0  0  0  0  0
    1.6147   -2.3576    0.0000 C   0  0  0  0  0  0  0  0  0
    1.6147   -1.5326    0.0000 O   0  0  0  0  0  0  0  0  0
    2.3291   -2.7701    0.0000 N   0  0  0  0  0  0  0  0  0
    3.0436   -2.3576    0.0000 C   0  0  0  0  0  0  0  0  0
    3.7581   -2.7701    0.0000 C   0  0  0  0  0  0  0  0  0
    4.4725   -2.3576    0.0000 C   0  0  0  0  0  0  0  0  0
    5.1870   -2.7701    0.0000 C   0  0  0  0  0  0  0  0  0
    5.1870   -3.5951    0.0000 C   0  0  0  0  0  0  0  0  0
    5.9015   -4.0076    0.0000 F   0  0  0  0  0  0  0  0  0
    4.4725   -4.0076    0.0000 C   0  0  0  0  0  0  0  0  0
    3.7581   -3.5951    0.0000 C   0  0  0  0  0  0  0  0  0
    0.1857   -2.3576    0.0000 C   0  0  0  0  0  0  0  0  0
   -0.5288   -2.7701    0.0000 C   0  0  0  0  0  0  0  0  0
   -1.2432   -2.3576    0.0000 C   0  0  0  0  0  0  0  0  0
   -1.2432   -1.5326    0.0000 N   0  0  0  0  0  0  0  0  0
   -1.9577   -1.1201    0.0000 S   0  0  0  0  0  0  0  0  0
   -2.6722   -0.7076    0.0000 O   0  0  0  0  0  0  0  0  0
   -1.5452   -0.4056    0.0000 O   0  0  0  0  0  0  0  0  0
   -2.3702   -1.8346    0.0000 C   0  0  0  0  0  0  0  0  0
   -0.5288   -1.1201    0.0000 C   0  0  0  0  0  0  0  0  0
    0.1857   -1.5326    0.0000 C   0  0  0  0  0  0  0  0  0
    1.6147   -4.0076    0.0000 C   0  0  0  0  0  0  0  0  0
    1.6147   -4.8326    0.0000 C   0  0  0  0  0  0  0  0  0
  1  2  1  0  0  0  0
  2  3  4  0  0  0  0
  2 29  4  0  0  0  0
  3  4  4  0  0  0  0
  4  5  4  0  0  0  0
  5  6  1  0  0  0  0
  5 28  4  0  0  0  0
  6  7  1  0  0  0  0
  6 18  1  0  0  0  0
  7  8  2  0  0  0  0
  7  9  1  0  0  0  0
  9 10  1  0  0  0  0
 10 11  1  0  0  0  0
 11 12  4  0  0  0  0
 11 17  4  0  0  0  0
 12 13  4  0  0  0  0
 13 14  4  0  0  0  0
 14 15  1  0  0  0  0
 14 16  4  0  0  0  0
 16 17  4  0  0  0  0
 18 19  1  0  0  0  0
 18 27  1  0  0  0  0
 19 20  1  0  0  0  0
 20 21  1  0  0  0  0
 21 22  1  0  0  0  0
 21 26  1  0  0  0  0
 22 23  2  0  0  0  0
 22 24  2  0  0  0  0
 22 25  1  0  0  0  0
 26 27  1  0  0  0  0
 28 29  4  0  0  0  0
M  END
>  <Name_Molregno>
620768

>  <HISTAMINE H3>
6.07

$$$$
625908
  Marvin  02231216192D 0   1.00000     0.00000     0

 21 23  0  0  1  0  0  0  0  0999 V2000
    0.9553   -2.5361    0.0000 Cl  0  0  0  0  0  0  0  0  0
    1.3678   -1.8216    0.0000 C   0  0  0  0  0  0  0  0  0
    0.9553   -1.1072    0.0000 C   0  0  0  0  0  0  0  0  0
    1.3678   -0.3927    0.0000 C   0  0  0  0  0  0  0  0  0
    2.1928   -0.3927    0.0000 C   0  0  0  0  0  0  0  0  0
    2.6053   -1.1072    0.0000 C   0  0  0  0  0  0  0  0  0
    2.1928   -1.8216    0.0000 C   0  0  0  0  0  0  0  0  0
    2.6053    0.3218    0.0000 C   0  0  0  0  0  0  0  0  0
    3.4303    0.3218    0.0000 N   0  0  0  0  0  0  0  0  0
    3.8428    1.0362    0.0000 C   0  0  0  0  0  0  0  0  0
    4.6678    1.0362    0.0000 C   0  0  0  0  0  0  0  0  0
    5.0803    0.3218    0.0000 C   0  0  0  0  0  0  0  0  0
    4.6678   -0.3927    0.0000 C   0  0  0  0  0  0  0  0  0
    5.0803    1.7507    0.0000 C   0  0  0  0  0  0  0  0  0
    5.0803    2.5757    0.0000 C   0  0  0  0  0  0  0  0  0
    5.7947    2.1632    0.0000 C   0  0  0  0  0  0  0  0  0
    6.6197    2.1632    0.0000 C   0  0  0  0  0  0  0  0  0
    7.1047    2.8306    0.0000 N   0  0  0  0  0  0  0  0  0
    7.8893    2.5757    0.0000 C   0  0  0  0  0  0  0  0  0
    7.8893    1.7507    0.0000 N   0  0  0  0  0  0  0  0  0
    7.1047    1.4958    0.0000 C   0  0  0  0  0  0  0  0  0
  1  2  1  0  0  0  0
  2  3  4  0  0  0  0
  2  7  4  0  0  0  0
  3  4  4  0  0  0  0
  4  5  4  0  0  0  0
  5  6  4  0  0  0  0
  5  8  1  0  0  0  0
  6  7  4  0  0  0  0
  8  9  1  0  0  0  0
  9 10  1  0  0  0  0
 10 11  1  0  0  0  0
 11 12  1  0  0  0  0
 11 14  1  0  0  0  0
 12 13  1  0  0  0  0
 14 15  1  0  0  0  0
 14 16  1  0  0  0  0
 15 16  1  0  0  0  0
 16 17  1  0  0  0  0
 17 18  4  0  0  0  0
 17 21  4  0  0  0  0
 18 19  4  0  0  0  0
 19 20  4  0  0  0  0
 20 21  4  0  0  0  0
M  STY  1   1 DAT
M  SAL   1  1  20
M  SDT   1 MRV_IMPLICIT_H                                        
M  SDD   1     0.0000    0.0000    DR    ALL  0       0  
M  SED   1 IMPL_H1
M  END
>  <Name_Molregno>
625908

>  <HISTAMINE H3>
7.49

$$$$
626639
  Marvin  02231216192D 0   1.00000     0.00000     0

 28 31  0  0  1  0  0  0  0  0999 V2000
   -3.7794   -0.4460    0.0000 O   0  0  0  0  0  0  0  0  0
   -3.0776   -0.0123    0.0000 C   0  0  0  0  0  0  0  0  0
   -2.3142   -0.3252    0.0000 C   0  0  0  0  0  0  0  0  0
   -1.7807    0.3042    0.0000 C   0  0  0  0  0  0  0  0  0
   -2.2144    1.0060    0.0000 N   0  0  0  0  0  0  0  0  0
   -3.0159    0.8104    0.0000 C   0  0  0  0  0  0  0  0  0
   -1.9016    1.7694    0.0000 C   0  0  0  0  0  0  0  0  0
   -1.0840    1.8801    0.0000 O   0  0  0  0  0  0  0  0  0
   -2.4062    2.4220    0.0000 C   0  0  0  0  0  0  0  0  0
   -0.9581    0.2425    0.0000 C   0  0  0  0  0  0  0  0  0
   -0.4933    0.9242    0.0000 O   0  0  0  0  0  0  0  0  0
   -0.6001   -0.5008    0.0000 N   0  0  0  0  0  0  0  0  0
    0.2249   -0.5008    0.0000 C   0  0  0  0  0  0  0  0  0
    0.7393   -1.1458    0.0000 C   0  0  0  0  0  0  0  0  0
    0.5557   -1.9501    0.0000 C   0  0  0  0  0  0  0  0  0
   -0.1876   -2.3081    0.0000 N   0  0  0  0  0  0  0  0  0
   -0.9309   -1.9501    0.0000 C   0  0  0  0  0  0  0  0  0
   -1.1145   -1.1458    0.0000 C   0  0  0  0  0  0  0  0  0
   -0.1876   -3.1331    0.0000 C   0  0  0  0  0  0  0  0  0
    0.3958   -3.7164    0.0000 C   0  0  0  0  0  0  0  0  0
   -0.1876   -4.2998    0.0000 C   0  0  0  0  0  0  0  0  0
   -0.7710   -3.7164    0.0000 C   0  0  0  0  0  0  0  0  0
   -3.7547   -1.2706    0.0000 C   0  0  0  0  0  0  0  0  0
   -3.0282   -1.6616    0.0000 N   0  0  0  0  0  0  0  0  0
   -3.0035   -2.4862    0.0000 C   0  0  0  0  0  0  0  0  0
   -3.7053   -2.9199    0.0000 C   0  0  0  0  0  0  0  0  0
   -4.4318   -2.5289    0.0000 C   0  0  0  0  0  0  0  0  0
   -4.4565   -1.7043    0.0000 C   0  0  0  0  0  0  0  0  0
  1  2  1  0  0  0  0
  1 23  1  0  0  0  0
  2  3  1  0  0  0  0
  2  6  1  0  0  0  0
  3  4  1  0  0  0  0
  4  5  1  0  0  0  0
  4 10  1  0  0  0  0
  5  6  1  0  0  0  0
  5  7  1  0  0  0  0
  7  8  2  0  0  0  0
  7  9  1  0  0  0  0
 10 11  2  0  0  0  0
 10 12  1  0  0  0  0
 12 13  1  0  0  0  0
 12 18  1  0  0  0  0
 13 14  1  0  0  0  0
 14 15  1  0  0  0  0
 15 16  1  0  0  0  0
 16 17  1  0  0  0  0
 16 19  1  0  0  0  0
 17 18  1  0  0  0  0
 19 20  1  0  0  0  0
 19 22  1  0  0  0  0
 20 21  1  0  0  0  0
 21 22  1  0  0  0  0
 23 24  4  0  0  0  0
 23 28  4  0  0  0  0
 24 25  4  0  0  0  0
 25 26  4  0  0  0  0
 26 27  4  0  0  0  0
 27 28  4  0  0  0  0
M  END
>  <Name_Molregno>
626639

>  <HISTAMINE H3>
8.27

$$$$
626640
  Marvin  02231216192D 0   1.00000     0.00000     0

 28 31  0  0  1  0  0  0  0  0999 V2000
   -3.7794   -0.4460    0.0000 O   0  0  0  0  0  0  0  0  0
   -3.0776   -0.0123    0.0000 C   0  0  0  0  0  0  0  0  0
   -2.3142   -0.3252    0.0000 C   0  0  0  0  0  0  0  0  0
   -1.7807    0.3042    0.0000 C   0  0  0  0  0  0  0  0  0
   -2.2144    1.0060    0.0000 N   0  0  0  0  0  0  0  0  0
   -3.0159    0.8104    0.0000 C   0  0  0  0  0  0  0  0  0
   -1.9016    1.7694    0.0000 C   0  0  0  0  0  0  0  0  0
   -1.0840    1.8801    0.0000 O   0  0  0  0  0  0  0  0  0
   -2.4062    2.4220    0.0000 C   0  0  0  0  0  0  0  0  0
   -0.9581    0.2425    0.0000 C   0  0  0  0  0  0  0  0  0
   -0.4933    0.9242    0.0000 O   0  0  0  0  0  0  0  0  0
   -0.6001   -0.5008    0.0000 N   0  0  0  0  0  0  0  0  0
    0.2249   -0.5008    0.0000 C   0  0  0  0  0  0  0  0  0
    0.7393   -1.1458    0.0000 C   0  0  0  0  0  0  0  0  0
    0.5557   -1.9501    0.0000 C   0  0  0  0  0  0  0  0  0
   -0.1876   -2.3081    0.0000 N   0  0  0  0  0  0  0  0  0
   -0.9309   -1.9501    0.0000 C   0  0  0  0  0  0  0  0  0
   -1.1145   -1.1458    0.0000 C   0  0  0  0  0  0  0  0  0
   -0.1876   -3.1331    0.0000 C   0  0  0  0  0  0  0  0  0
    0.3958   -3.7164    0.0000 C   0  0  0  0  0  0  0  0  0
   -0.1876   -4.2998    0.0000 C   0  0  0  0  0  0  0  0  0
   -0.7710   -3.7164    0.0000 C   0  0  0  0  0  0  0  0  0
   -3.7547   -1.2706    0.0000 C   0  0  0  0  0  0  0  0  0
   -3.0282   -1.6616    0.0000 C   0  0  0  0  0  0  0  0  0
   -3.0035   -2.4862    0.0000 C   0  0  0  0  0  0  0  0  0
   -3.7053   -2.9199    0.0000 C   0  0  0  0  0  0  0  0  0
   -4.4318   -2.5289    0.0000 N   0  0  0  0  0  0  0  0  0
   -4.4565   -1.7043    0.0000 C   0  0  0  0  0  0  0  0  0
  1  2  1  0  0  0  0
  1 23  1  0  0  0  0
  2  3  1  0  0  0  0
  2  6  1  0  0  0  0
  3  4  1  0  0  0  0
  4  5  1  0  0  0  0
  4 10  1  0  0  0  0
  5  6  1  0  0  0  0
  5  7  1  0  0  0  0
  7  8  2  0  0  0  0
  7  9  1  0  0  0  0
 10 11  2  0  0  0  0
 10 12  1  0  0  0  0
 12 13  1  0  0  0  0
 12 18  1  0  0  0  0
 13 14  1  0  0  0  0
 14 15  1  0  0  0  0
 15 16  1  0  0  0  0
 16 17  1  0  0  0  0
 16 19  1  0  0  0  0
 17 18  1  0  0  0  0
 19 20  1  0  0  0  0
 19 22  1  0  0  0  0
 20 21  1  0  0  0  0
 21 22  1  0  0  0  0
 23 24  4  0  0  0  0
 23 28  4  0  0  0  0
 24 25  4  0  0  0  0
 25 26  4  0  0  0  0
 26 27  4  0  0  0  0
 27 28  4  0  0  0  0
M  END
>  <Name_Molregno>
626640

>  <HISTAMINE H3>
8.22

$$$$
626641
  Marvin  02231216192D 0   1.00000     0.00000     0

 26 29  0  0  1  0  0  0  0  0999 V2000
    7.2134    1.1467    0.0000 F   0  0  0  0  0  0  0  0  0
    6.4368    0.8684    0.0000 C   0  0  0  0  0  0  0  0  0
    6.2895    0.0567    0.0000 C   0  0  0  0  0  0  0  0  0
    5.5128   -0.2216    0.0000 C   0  0  0  0  0  0  0  0  0
    4.8835    0.3118    0.0000 C   0  0  0  0  0  0  0  0  0
    5.0308    1.1235    0.0000 C   0  0  0  0  0  0  0  0  0
    5.8074    1.4018    0.0000 C   0  0  0  0  0  0  0  0  0
    4.1068    0.0335    0.0000 C   0  0  0  0  0  0  0  0  0
    3.4775    0.5669    0.0000 C   0  0  0  0  0  0  0  0  0
    2.7510    0.9579    0.0000 N   0  0  0  0  0  0  0  0  0
    2.8983    1.7696    0.0000 C   0  0  0  0  0  0  0  0  0
    3.7159    1.8804    0.0000 C   0  0  0  0  0  0  0  0  0
    4.0738    1.1371    0.0000 C   0  0  0  0  0  0  0  0  0
    3.0128   -0.1147    0.0000 C   0  0  0  0  0  0  0  0  0
    2.1901   -0.0530    0.0000 O   0  0  0  0  0  0  0  0  0
    3.3707   -0.8580    0.0000 N   0  0  0  0  0  0  0  0  0
    4.1957   -0.8580    0.0000 C   0  0  0  0  0  0  0  0  0
    4.7101   -1.5030    0.0000 C   0  0  0  0  0  0  0  0  0
    4.5265   -2.3073    0.0000 C   0  0  0  0  0  0  0  0  0
    3.7832   -2.6653    0.0000 N   0  0  0  0  0  0  0  0  0
    3.0399   -2.3073    0.0000 C   0  0  0  0  0  0  0  0  0
    2.8563   -1.5030    0.0000 C   0  0  0  0  0  0  0  0  0
    3.7832   -3.4903    0.0000 C   0  0  0  0  0  0  0  0  0
    4.3666   -4.0736    0.0000 C   0  0  0  0  0  0  0  0  0
    3.7832   -4.6570    0.0000 C   0  0  0  0  0  0  0  0  0
    3.1999   -4.0736    0.0000 C   0  0  0  0  0  0  0  0  0
  1  2  1  0  0  0  0
  2  3  4  0  0  0  0
  2  7  4  0  0  0  0
  3  4  4  0  0  0  0
  4  5  4  0  0  0  0
  5  6  4  0  0  0  0
  5  8  1  0  0  0  0
  6  7  4  0  0  0  0
  8  9  1  0  0  0  0
  9 10  1  0  0  0  0
  9 13  1  0  0  0  0
  9 14  1  0  0  0  0
 10 11  1  0  0  0  0
 11 12  1  0  0  0  0
 12 13  1  0  0  0  0
 14 15  2  0  0  0  0
 14 16  1  0  0  0  0
 16 17  1  0  0  0  0
 16 22  1  0  0  0  0
 17 18  1  0  0  0  0
 18 19  1  0  0  0  0
 19 20  1  0  0  0  0
 20 21  1  0  0  0  0
 20 23  1  0  0  0  0
 21 22  1  0  0  0  0
 23 24  1  0  0  0  0
 23 26  1  0  0  0  0
 24 25  1  0  0  0  0
 25 26  1  0  0  0  0
M  END
>  <Name_Molregno>
626641

>  <HISTAMINE H3>
7.8

$$$$
626642
  Marvin  02231216192D 0   1.00000     0.00000     0

 26 29  0  0  1  0  0  0  0  0999 V2000
    6.2193   -1.1852    0.0000 F   0  0  0  0  0  0  0  0  0
    5.5900   -0.6518    0.0000 C   0  0  0  0  0  0  0  0  0
    4.8134   -0.9301    0.0000 C   0  0  0  0  0  0  0  0  0
    4.1840   -0.3966    0.0000 C   0  0  0  0  0  0  0  0  0
    4.3313    0.4151    0.0000 C   0  0  0  0  0  0  0  0  0
    5.1080    0.6934    0.0000 C   0  0  0  0  0  0  0  0  0
    5.7373    0.1600    0.0000 C   0  0  0  0  0  0  0  0  0
    3.4074   -0.6749    0.0000 C   0  0  0  0  0  0  0  0  0
    2.7780   -0.1415    0.0000 C   0  0  0  0  0  0  0  0  0
    2.0516    0.2495    0.0000 N   0  0  0  0  0  0  0  0  0
    2.1989    1.0612    0.0000 C   0  0  0  0  0  0  0  0  0
    3.0164    1.1719    0.0000 C   0  0  0  0  0  0  0  0  0
    3.3743    0.4286    0.0000 C   0  0  0  0  0  0  0  0  0
    2.3133   -0.8231    0.0000 C   0  0  0  0  0  0  0  0  0
    1.4906   -0.7615    0.0000 O   0  0  0  0  0  0  0  0  0
    2.6713   -1.5664    0.0000 N   0  0  0  0  0  0  0  0  0
    3.4963   -1.5664    0.0000 C   0  0  0  0  0  0  0  0  0
    4.0106   -2.2114    0.0000 C   0  0  0  0  0  0  0  0  0
    3.8271   -3.0158    0.0000 C   0  0  0  0  0  0  0  0  0
    3.0838   -3.3737    0.0000 N   0  0  0  0  0  0  0  0  0
    2.3405   -3.0158    0.0000 C   0  0  0  0  0  0  0  0  0
    2.1569   -2.2114    0.0000 C   0  0  0  0  0  0  0  0  0
    3.0838   -4.1987    0.0000 C   0  0  0  0  0  0  0  0  0
    3.6671   -4.7821    0.0000 C   0  0  0  0  0  0  0  0  0
    3.0838   -5.3654    0.0000 C   0  0  0  0  0  0  0  0  0
    2.5004   -4.7821    0.0000 C   0  0  0  0  0  0  0  0  0
  1  2  1  0  0  0  0
  2  3  4  0  0  0  0
  2  7  4  0  0  0  0
  3  4  4  0  0  0  0
  4  5  4  0  0  0  0
  4  8  1  0  0  0  0
  5  6  4  0  0  0  0
  6  7  4  0  0  0  0
  8  9  1  0  0  0  0
  9 10  1  0  0  0  0
  9 13  1  0  0  0  0
  9 14  1  0  0  0  0
 10 11  1  0  0  0  0
 11 12  1  0  0  0  0
 12 13  1  0  0  0  0
 14 15  2  0  0  0  0
 14 16  1  0  0  0  0
 16 17  1  0  0  0  0
 16 22  1  0  0  0  0
 17 18  1  0  0  0  0
 18 19  1  0  0  0  0
 19 20  1  0  0  0  0
 20 21  1  0  0  0  0
 20 23  1  0  0  0  0
 21 22  1  0  0  0  0
 23 24  1  0  0  0  0
 23 26  1  0  0  0  0
 24 25  1  0  0  0  0
 25 26  1  0  0  0  0
M  END
>  <Name_Molregno>
626642

>  <HISTAMINE H3>
7.36

$$$$
626643
  Marvin  02231216192D 0   1.00000     0.00000     0

 29 32  0  0  1  0  0  0  0  0999 V2000
   -0.3630    1.5168    0.0000 F   0  0  0  0  0  0  0  0  0
   -1.1396    1.2385    0.0000 C   0  0  0  0  0  0  0  0  0
   -1.4179    2.0151    0.0000 F   0  0  0  0  0  0  0  0  0
   -0.8613    0.4618    0.0000 F   0  0  0  0  0  0  0  0  0
   -1.9163    0.9602    0.0000 C   0  0  0  0  0  0  0  0  0
   -2.0636    0.1484    0.0000 C   0  0  0  0  0  0  0  0  0
   -2.8402   -0.1299    0.0000 C   0  0  0  0  0  0  0  0  0
   -3.4695    0.4036    0.0000 C   0  0  0  0  0  0  0  0  0
   -3.3222    1.2153    0.0000 C   0  0  0  0  0  0  0  0  0
   -2.5456    1.4936    0.0000 C   0  0  0  0  0  0  0  0  0
   -4.2462    0.1253    0.0000 C   0  0  0  0  0  0  0  0  0
   -4.8755    0.6587    0.0000 C   0  0  0  0  0  0  0  0  0
   -5.6020    1.0497    0.0000 N   0  0  0  0  0  0  0  0  0
   -5.4547    1.8614    0.0000 C   0  0  0  0  0  0  0  0  0
   -4.6372    1.9721    0.0000 C   0  0  0  0  0  0  0  0  0
   -4.2792    1.2288    0.0000 C   0  0  0  0  0  0  0  0  0
   -5.3403   -0.0229    0.0000 C   0  0  0  0  0  0  0  0  0
   -6.1630    0.0387    0.0000 O   0  0  0  0  0  0  0  0  0
   -4.9823   -0.7662    0.0000 N   0  0  0  0  0  0  0  0  0
   -4.1573   -0.7662    0.0000 C   0  0  0  0  0  0  0  0  0
   -3.6429   -1.4112    0.0000 C   0  0  0  0  0  0  0  0  0
   -3.8265   -2.2156    0.0000 C   0  0  0  0  0  0  0  0  0
   -4.5698   -2.5735    0.0000 N   0  0  0  0  0  0  0  0  0
   -5.3131   -2.2156    0.0000 C   0  0  0  0  0  0  0  0  0
   -5.4967   -1.4112    0.0000 C   0  0  0  0  0  0  0  0  0
   -4.5698   -3.3985    0.0000 C   0  0  0  0  0  0  0  0  0
   -3.9864   -3.9819    0.0000 C   0  0  0  0  0  0  0  0  0
   -4.5698   -4.5652    0.0000 C   0  0  0  0  0  0  0  0  0
   -5.1532   -3.9819    0.0000 C   0  0  0  0  0  0  0  0  0
  1  2  1  0  0  0  0
  2  3  1  0  0  0  0
  2  4  1  0  0  0  0
  2  5  1  0  0  0  0
  5  6  4  0  0  0  0
  5 10  4  0  0  0  0
  6  7  4  0  0  0  0
  7  8  4  0  0  0  0
  8  9  4  0  0  0  0
  8 11  1  0  0  0  0
  9 10  4  0  0  0  0
 11 12  1  0  0  0  0
 12 13  1  0  0  0  0
 12 16  1  0  0  0  0
 12 17  1  0  0  0  0
 13 14  1  0  0  0  0
 14 15  1  0  0  0  0
 15 16  1  0  0  0  0
 17 18  2  0  0  0  0
 17 19  1  0  0  0  0
 19 20  1  0  0  0  0
 19 25  1  0  0  0  0
 20 21  1  0  0  0  0
 21 22  1  0  0  0  0
 22 23  1  0  0  0  0
 23 24  1  0  0  0  0
 23 26  1  0  0  0  0
 24 25  1  0  0  0  0
 26 27  1  0  0  0  0
 26 29  1  0  0  0  0
 27 28  1  0  0  0  0
 28 29  1  0  0  0  0
M  END
>  <Name_Molregno>
626643

>  <HISTAMINE H3>
6.7

$$$$
626727
  Marvin  02231216192D 0   1.00000     0.00000     0

 25 28  0  0  1  0  0  0  0  0999 V2000
    1.5407    1.1093    0.0000 O   0  0  0  0  0  0  0  0  0
    1.0760    0.4277    0.0000 C   0  0  0  0  0  0  0  0  0
    1.4340   -0.3156    0.0000 N   0  0  0  0  0  0  0  0  0
    2.2590   -0.3156    0.0000 C   0  0  0  0  0  0  0  0  0
    2.7733   -0.9607    0.0000 C   0  0  0  0  0  0  0  0  0
    2.5898   -1.7650    0.0000 C   0  0  0  0  0  0  0  0  0
    1.8465   -2.1229    0.0000 N   0  0  0  0  0  0  0  0  0
    1.1032   -1.7650    0.0000 C   0  0  0  0  0  0  0  0  0
    0.9196   -0.9607    0.0000 C   0  0  0  0  0  0  0  0  0
    1.8465   -2.9479    0.0000 C   0  0  0  0  0  0  0  0  0
    2.4298   -3.5313    0.0000 C   0  0  0  0  0  0  0  0  0
    1.8465   -4.1147    0.0000 C   0  0  0  0  0  0  0  0  0
    1.2631   -3.5313    0.0000 C   0  0  0  0  0  0  0  0  0
    0.2533    0.4893    0.0000 C   0  0  0  0  0  0  0  0  0
   -0.5642    0.3786    0.0000 N   0  0  0  0  0  0  0  0  0
   -0.9222    1.1219    0.0000 C   0  0  0  0  0  0  0  0  0
   -0.3259    1.6920    0.0000 C   0  0  0  0  0  0  0  0  0
    0.4006    1.3010    0.0000 C   0  0  0  0  0  0  0  0  0
    0.2780   -0.3353    0.0000 C   0  0  0  0  0  0  0  0  0
   -0.4238   -0.7690    0.0000 C   0  0  0  0  0  0  0  0  0
   -0.3991   -1.5936    0.0000 C   0  0  0  0  0  0  0  0  0
   -1.1010   -2.0273    0.0000 C   0  0  0  0  0  0  0  0  0
   -1.8274   -1.6364    0.0000 C   0  0  0  0  0  0  0  0  0
   -1.8521   -0.8118    0.0000 C   0  0  0  0  0  0  0  0  0
   -1.1503   -0.3781    0.0000 C   0  0  0  0  0  0  0  0  0
  1  2  2  0  0  0  0
  2  3  1  0  0  0  0
  2 14  1  0  0  0  0
  3  4  1  0  0  0  0
  3  9  1  0  0  0  0
  4  5  1  0  0  0  0
  5  6  1  0  0  0  0
  6  7  1  0  0  0  0
  7  8  1  0  0  0  0
  7 10  1  0  0  0  0
  8  9  1  0  0  0  0
 10 11  1  0  0  0  0
 10 13  1  0  0  0  0
 11 12  1  0  0  0  0
 12 13  1  0  0  0  0
 14 15  1  0  0  0  0
 14 18  1  0  0  0  0
 14 19  1  0  0  0  0
 15 16  1  0  0  0  0
 16 17  1  0  0  0  0
 17 18  1  0  0  0  0
 19 20  1  0  0  0  0
 20 21  4  0  0  0  0
 20 25  4  0  0  0  0
 21 22  4  0  0  0  0
 22 23  4  0  0  0  0
 23 24  4  0  0  0  0
 24 25  4  0  0  0  0
M  END
>  <Name_Molregno>
626727

>  <HISTAMINE H3>
7.96

$$$$
626728
  Marvin  02231216192D 0   1.00000     0.00000     0

 25 28  0  0  1  0  0  0  0  0999 V2000
   -0.0427   -0.4062    0.0000 O   0  0  0  0  0  0  0  0  0
   -0.5074   -1.0879    0.0000 C   0  0  0  0  0  0  0  0  0
   -0.1495   -1.8312    0.0000 N   0  0  0  0  0  0  0  0  0
    0.6755   -1.8312    0.0000 C   0  0  0  0  0  0  0  0  0
    1.1899   -2.4762    0.0000 C   0  0  0  0  0  0  0  0  0
    1.0063   -3.2805    0.0000 C   0  0  0  0  0  0  0  0  0
    0.2630   -3.6384    0.0000 N   0  0  0  0  0  0  0  0  0
   -0.4803   -3.2805    0.0000 C   0  0  0  0  0  0  0  0  0
   -0.6639   -2.4762    0.0000 C   0  0  0  0  0  0  0  0  0
    0.2630   -4.4634    0.0000 C   0  0  0  0  0  0  0  0  0
    0.8464   -5.0468    0.0000 C   0  0  0  0  0  0  0  0  0
    0.2630   -5.6302    0.0000 C   0  0  0  0  0  0  0  0  0
   -0.3203   -5.0468    0.0000 C   0  0  0  0  0  0  0  0  0
   -1.3301   -1.0262    0.0000 C   0  0  0  0  0  0  0  0  0
   -1.8636   -1.6555    0.0000 N   0  0  0  0  0  0  0  0  0
   -2.6270   -1.3427    0.0000 C   0  0  0  0  0  0  0  0  0
   -2.5653   -0.5200    0.0000 C   0  0  0  0  0  0  0  0  0
   -1.7638   -0.3244    0.0000 C   0  0  0  0  0  0  0  0  0
   -3.1946    0.0135    0.0000 C   0  0  0  0  0  0  0  0  0
   -3.0473    0.8252    0.0000 C   0  0  0  0  0  0  0  0  0
   -3.6767    1.3586    0.0000 C   0  0  0  0  0  0  0  0  0
   -3.5293    2.1704    0.0000 C   0  0  0  0  0  0  0  0  0
   -2.7527    2.4487    0.0000 C   0  0  0  0  0  0  0  0  0
   -2.1234    1.9152    0.0000 C   0  0  0  0  0  0  0  0  0
   -2.2707    1.1035    0.0000 C   0  0  0  0  0  0  0  0  0
  1  2  2  0  0  0  0
  2  3  1  0  0  0  0
  2 14  1  0  0  0  0
  3  4  1  0  0  0  0
  3  9  1  0  0  0  0
  4  5  1  0  0  0  0
  5  6  1  0  0  0  0
  6  7  1  0  0  0  0
  7  8  1  0  0  0  0
  7 10  1  0  0  0  0
  8  9  1  0  0  0  0
 10 11  1  0  0  0  0
 10 13  1  0  0  0  0
 11 12  1  0  0  0  0
 12 13  1  0  0  0  0
 14 15  1  0  0  0  0
 14 18  1  0  0  0  0
 15 16  1  0  0  0  0
 16 17  1  0  0  0  0
 17 18  1  0  0  0  0
 17 19  1  0  0  0  0
 19 20  1  0  0  0  0
 20 21  4  0  0  0  0
 20 25  4  0  0  0  0
 21 22  4  0  0  0  0
 22 23  4  0  0  0  0
 23 24  4  0  0  0  0
 24 25  4  0  0  0  0
M  END
>  <Name_Molregno>
626728

>  <HISTAMINE H3>
6.59

$$$$
626729
  Marvin  02231216192D 0   1.00000     0.00000     0

 26 29  0  0  1  0  0  0  0  0999 V2000
    7.5917    2.4334    0.0000 F   0  0  0  0  0  0  0  0  0
    6.8150    2.1551    0.0000 C   0  0  0  0  0  0  0  0  0
    6.6677    1.3434    0.0000 C   0  0  0  0  0  0  0  0  0
    5.8911    1.0651    0.0000 C   0  0  0  0  0  0  0  0  0
    5.2618    1.5985    0.0000 C   0  0  0  0  0  0  0  0  0
    5.4091    2.4103    0.0000 C   0  0  0  0  0  0  0  0  0
    6.1857    2.6886    0.0000 C   0  0  0  0  0  0  0  0  0
    5.7438    0.2533    0.0000 C   0  0  0  0  0  0  0  0  0
    4.9671   -0.0250    0.0000 C   0  0  0  0  0  0  0  0  0
    4.7358   -0.8169    0.0000 C   0  0  0  0  0  0  0  0  0
    3.9112   -0.8415    0.0000 C   0  0  0  0  0  0  0  0  0
    3.6329   -0.0649    0.0000 N   0  0  0  0  0  0  0  0  0
    4.2855    0.4398    0.0000 C   0  0  0  0  0  0  0  0  0
    3.4464   -1.5232    0.0000 C   0  0  0  0  0  0  0  0  0
    2.6237   -1.4615    0.0000 O   0  0  0  0  0  0  0  0  0
    3.8044   -2.2665    0.0000 N   0  0  0  0  0  0  0  0  0
    4.6294   -2.2665    0.0000 C   0  0  0  0  0  0  0  0  0
    5.1437   -2.9115    0.0000 C   0  0  0  0  0  0  0  0  0
    4.9602   -3.7158    0.0000 C   0  0  0  0  0  0  0  0  0
    4.2169   -4.0738    0.0000 N   0  0  0  0  0  0  0  0  0
    3.4736   -3.7158    0.0000 C   0  0  0  0  0  0  0  0  0
    3.2900   -2.9115    0.0000 C   0  0  0  0  0  0  0  0  0
    4.2169   -4.8988    0.0000 C   0  0  0  0  0  0  0  0  0
    4.8002   -5.4821    0.0000 C   0  0  0  0  0  0  0  0  0
    4.2169   -6.0655    0.0000 C   0  0  0  0  0  0  0  0  0
    3.6335   -5.4821    0.0000 C   0  0  0  0  0  0  0  0  0
  1  2  1  0  0  0  0
  2  3  4  0  0  0  0
  2  7  4  0  0  0  0
  3  4  4  0  0  0  0
  4  5  4  0  0  0  0
  4  8  1  0  0  0  0
  5  6  4  0  0  0  0
  6  7  4  0  0  0  0
  8  9  1  0  0  0  0
  9 10  1  0  0  0  0
  9 13  1  0  0  0  0
 10 11  1  0  0  0  0
 11 12  1  0  0  0  0
 11 14  1  0  0  0  0
 12 13  1  0  0  0  0
 14 15  2  0  0  0  0
 14 16  1  0  0  0  0
 16 17  1  0  0  0  0
 16 22  1  0  0  0  0
 17 18  1  0  0  0  0
 18 19  1  0  0  0  0
 19 20  1  0  0  0  0
 20 21  1  0  0  0  0
 20 23  1  0  0  0  0
 21 22  1  0  0  0  0
 23 24  1  0  0  0  0
 23 26  1  0  0  0  0
 24 25  1  0  0  0  0
 25 26  1  0  0  0  0
M  END
>  <Name_Molregno>
626729

>  <HISTAMINE H3>
6.46

$$$$
626730
  Marvin  02231216192D 0   1.00000     0.00000     0

 26 29  0  0  1  0  0  0  0  0999 V2000
    6.2581    3.7302    0.0000 F   0  0  0  0  0  0  0  0  0
    6.1108    2.9184    0.0000 C   0  0  0  0  0  0  0  0  0
    6.7402    2.3850    0.0000 C   0  0  0  0  0  0  0  0  0
    6.5928    1.5732    0.0000 C   0  0  0  0  0  0  0  0  0
    5.8162    1.2949    0.0000 C   0  0  0  0  0  0  0  0  0
    5.1869    1.8284    0.0000 C   0  0  0  0  0  0  0  0  0
    5.3342    2.6401    0.0000 C   0  0  0  0  0  0  0  0  0
    5.6689    0.4832    0.0000 C   0  0  0  0  0  0  0  0  0
    4.8922    0.2049    0.0000 C   0  0  0  0  0  0  0  0  0
    4.6609   -0.5870    0.0000 C   0  0  0  0  0  0  0  0  0
    3.8363   -0.6117    0.0000 C   0  0  0  0  0  0  0  0  0
    3.5580    0.1650    0.0000 N   0  0  0  0  0  0  0  0  0
    4.2106    0.6696    0.0000 C   0  0  0  0  0  0  0  0  0
    3.3715   -1.2933    0.0000 C   0  0  0  0  0  0  0  0  0
    2.5488   -1.2317    0.0000 O   0  0  0  0  0  0  0  0  0
    3.7295   -2.0366    0.0000 N   0  0  0  0  0  0  0  0  0
    4.5545   -2.0366    0.0000 C   0  0  0  0  0  0  0  0  0
    5.0689   -2.6816    0.0000 C   0  0  0  0  0  0  0  0  0
    4.8853   -3.4860    0.0000 C   0  0  0  0  0  0  0  0  0
    4.1420   -3.8439    0.0000 N   0  0  0  0  0  0  0  0  0
    3.3987   -3.4860    0.0000 C   0  0  0  0  0  0  0  0  0
    3.2151   -2.6816    0.0000 C   0  0  0  0  0  0  0  0  0
    4.1420   -4.6689    0.0000 C   0  0  0  0  0  0  0  0  0
    4.7253   -5.2523    0.0000 C   0  0  0  0  0  0  0  0  0
    4.1420   -5.8356    0.0000 C   0  0  0  0  0  0  0  0  0
    3.5586   -5.2523    0.0000 C   0  0  0  0  0  0  0  0  0
  1  2  1  0  0  0  0
  2  3  4  0  0  0  0
  2  7  4  0  0  0  0
  3  4  4  0  0  0  0
  4  5  4  0  0  0  0
  5  6  4  0  0  0  0
  5  8  1  0  0  0  0
  6  7  4  0  0  0  0
  8  9  1  0  0  0  0
  9 10  1  0  0  0  0
  9 13  1  0  0  0  0
 10 11  1  0  0  0  0
 11 12  1  0  0  0  0
 11 14  1  0  0  0  0
 12 13  1  0  0  0  0
 14 15  2  0  0  0  0
 14 16  1  0  0  0  0
 16 17  1  0  0  0  0
 16 22  1  0  0  0  0
 17 18  1  0  0  0  0
 18 19  1  0  0  0  0
 19 20  1  0  0  0  0
 20 21  1  0  0  0  0
 20 23  1  0  0  0  0
 21 22  1  0  0  0  0
 23 24  1  0  0  0  0
 23 26  1  0  0  0  0
 24 25  1  0  0  0  0
 25 26  1  0  0  0  0
M  END
>  <Name_Molregno>
626730

>  <HISTAMINE H3>
6.52

$$$$
627026
  Marvin  02231216192D 0   1.00000     0.00000     0

 25 28  0  0  1  0  0  0  0  0999 V2000
    0.4965    1.6818    0.0000 O   0  0  0  0  0  0  0  0  0
    1.1259    1.1483    0.0000 C   0  0  0  0  0  0  0  0  0
    1.9273    1.3439    0.0000 C   0  0  0  0  0  0  0  0  0
    2.3610    0.6421    0.0000 C   0  0  0  0  0  0  0  0  0
    1.8276    0.0128    0.0000 N   0  0  0  0  0  0  0  0  0
    1.0642    0.3256    0.0000 C   0  0  0  0  0  0  0  0  0
    3.1837    0.5804    0.0000 C   0  0  0  0  0  0  0  0  0
    3.6485    1.2621    0.0000 O   0  0  0  0  0  0  0  0  0
    3.5417   -0.1629    0.0000 N   0  0  0  0  0  0  0  0  0
    4.3667   -0.1629    0.0000 C   0  0  0  0  0  0  0  0  0
    4.8811   -0.8079    0.0000 C   0  0  0  0  0  0  0  0  0
    4.6975   -1.6122    0.0000 C   0  0  0  0  0  0  0  0  0
    3.9542   -1.9701    0.0000 N   0  0  0  0  0  0  0  0  0
    3.2109   -1.6122    0.0000 C   0  0  0  0  0  0  0  0  0
    3.0273   -0.8079    0.0000 C   0  0  0  0  0  0  0  0  0
    3.9542   -2.7951    0.0000 C   0  0  0  0  0  0  0  0  0
    4.5375   -3.3785    0.0000 C   0  0  0  0  0  0  0  0  0
    3.9542   -3.9619    0.0000 C   0  0  0  0  0  0  0  0  0
    3.3708   -3.3785    0.0000 C   0  0  0  0  0  0  0  0  0
    0.6438    2.4935    0.0000 C   0  0  0  0  0  0  0  0  0
    0.0145    3.0269    0.0000 C   0  0  0  0  0  0  0  0  0
    0.1618    3.8387    0.0000 C   0  0  0  0  0  0  0  0  0
    0.9385    4.1170    0.0000 C   0  0  0  0  0  0  0  0  0
    1.5678    3.5835    0.0000 C   0  0  0  0  0  0  0  0  0
    1.4205    2.7718    0.0000 C   0  0  0  0  0  0  0  0  0
  1  2  1  0  0  0  0
  1 20  1  0  0  0  0
  2  3  1  0  0  0  0
  2  6  1  0  0  0  0
  3  4  1  0  0  0  0
  4  5  1  0  0  0  0
  4  7  1  0  0  0  0
  5  6  1  0  0  0  0
  7  8  2  0  0  0  0
  7  9  1  0  0  0  0
  9 10  1  0  0  0  0
  9 15  1  0  0  0  0
 10 11  1  0  0  0  0
 11 12  1  0  0  0  0
 12 13  1  0  0  0  0
 13 14  1  0  0  0  0
 13 16  1  0  0  0  0
 14 15  1  0  0  0  0
 16 17  1  0  0  0  0
 16 19  1  0  0  0  0
 17 18  1  0  0  0  0
 18 19  1  0  0  0  0
 20 21  4  0  0  0  0
 20 25  4  0  0  0  0
 21 22  4  0  0  0  0
 22 23  4  0  0  0  0
 23 24  4  0  0  0  0
 24 25  4  0  0  0  0
M  END
>  <Name_Molregno>
627026

>  <HISTAMINE H3>
8.28

$$$$
627091
  Marvin  02231216192D 0   1.00000     0.00000     0

 26 29  0  0  1  0  0  0  0  0999 V2000
    3.4055    1.4889    0.0000 O   0  0  0  0  0  0  0  0  0
    3.5528    2.3006    0.0000 C   0  0  0  0  0  0  0  0  0
    2.9235    2.8341    0.0000 C   0  0  0  0  0  0  0  0  0
    3.0708    3.6458    0.0000 C   0  0  0  0  0  0  0  0  0
    3.8475    3.9241    0.0000 C   0  0  0  0  0  0  0  0  0
    4.4768    3.3907    0.0000 C   0  0  0  0  0  0  0  0  0
    4.3295    2.5789    0.0000 C   0  0  0  0  0  0  0  0  0
    4.9588    2.0455    0.0000 C   0  0  0  0  0  0  0  0  0
    2.6289    1.2106    0.0000 C   0  0  0  0  0  0  0  0  0
    2.3975    0.4187    0.0000 C   0  0  0  0  0  0  0  0  0
    1.5729    0.3940    0.0000 C   0  0  0  0  0  0  0  0  0
    1.2946    1.1707    0.0000 N   0  0  0  0  0  0  0  0  0
    1.9472    1.6753    0.0000 C   0  0  0  0  0  0  0  0  0
    1.1082   -0.2876    0.0000 C   0  0  0  0  0  0  0  0  0
    0.2855   -0.2260    0.0000 O   0  0  0  0  0  0  0  0  0
    1.4661   -1.0309    0.0000 N   0  0  0  0  0  0  0  0  0
    2.2911   -1.0309    0.0000 C   0  0  0  0  0  0  0  0  0
    2.8055   -1.6759    0.0000 C   0  0  0  0  0  0  0  0  0
    2.6219   -2.4803    0.0000 C   0  0  0  0  0  0  0  0  0
    1.8786   -2.8382    0.0000 N   0  0  0  0  0  0  0  0  0
    1.1353   -2.4803    0.0000 C   0  0  0  0  0  0  0  0  0
    0.9517   -1.6759    0.0000 C   0  0  0  0  0  0  0  0  0
    1.8786   -3.6632    0.0000 C   0  0  0  0  0  0  0  0  0
    2.4620   -4.2466    0.0000 C   0  0  0  0  0  0  0  0  0
    1.8786   -4.8299    0.0000 C   0  0  0  0  0  0  0  0  0
    1.2953   -4.2466    0.0000 C   0  0  0  0  0  0  0  0  0
  1  2  1  0  0  0  0
  1  9  1  0  0  0  0
  2  3  4  0  0  0  0
  2  7  4  0  0  0  0
  3  4  4  0  0  0  0
  4  5  4  0  0  0  0
  5  6  4  0  0  0  0
  6  7  4  0  0  0  0
  7  8  1  0  0  0  0
  9 10  1  0  0  0  0
  9 13  1  0  0  0  0
 10 11  1  0  0  0  0
 11 12  1  0  0  0  0
 11 14  1  0  0  0  0
 12 13  1  0  0  0  0
 14 15  2  0  0  0  0
 14 16  1  0  0  0  0
 16 17  1  0  0  0  0
 16 22  1  0  0  0  0
 17 18  1  0  0  0  0
 18 19  1  0  0  0  0
 19 20  1  0  0  0  0
 20 21  1  0  0  0  0
 20 23  1  0  0  0  0
 21 22  1  0  0  0  0
 23 24  1  0  0  0  0
 23 26  1  0  0  0  0
 24 25  1  0  0  0  0
 25 26  1  0  0  0  0
M  END
>  <Name_Molregno>
627091

>  <HISTAMINE H3>
8.55

$$$$
627092
  Marvin  02231216192D 0   1.00000     0.00000     0

 26 29  0  0  1  0  0  0  0  0999 V2000
    0.4185    1.5732    0.0000 O   0  0  0  0  0  0  0  0  0
    1.0478    1.0398    0.0000 C   0  0  0  0  0  0  0  0  0
    1.8493    1.2354    0.0000 C   0  0  0  0  0  0  0  0  0
    2.2830    0.5336    0.0000 C   0  0  0  0  0  0  0  0  0
    1.7496   -0.0958    0.0000 N   0  0  0  0  0  0  0  0  0
    0.9862    0.2171    0.0000 C   0  0  0  0  0  0  0  0  0
    3.1057    0.4719    0.0000 C   0  0  0  0  0  0  0  0  0
    3.5704    1.1536    0.0000 O   0  0  0  0  0  0  0  0  0
    3.4637   -0.2714    0.0000 N   0  0  0  0  0  0  0  0  0
    4.2887   -0.2714    0.0000 C   0  0  0  0  0  0  0  0  0
    4.8030   -0.9164    0.0000 C   0  0  0  0  0  0  0  0  0
    4.6195   -1.7207    0.0000 C   0  0  0  0  0  0  0  0  0
    3.8762   -2.0787    0.0000 N   0  0  0  0  0  0  0  0  0
    3.1329   -1.7207    0.0000 C   0  0  0  0  0  0  0  0  0
    2.9493   -0.9164    0.0000 C   0  0  0  0  0  0  0  0  0
    3.8762   -2.9037    0.0000 C   0  0  0  0  0  0  0  0  0
    4.4595   -3.4870    0.0000 C   0  0  0  0  0  0  0  0  0
    3.8762   -4.0704    0.0000 C   0  0  0  0  0  0  0  0  0
    3.2928   -3.4870    0.0000 C   0  0  0  0  0  0  0  0  0
    0.5658    2.3850    0.0000 C   0  0  0  0  0  0  0  0  0
   -0.0635    2.9184    0.0000 C   0  0  0  0  0  0  0  0  0
    0.0838    3.7302    0.0000 C   0  0  0  0  0  0  0  0  0
    0.8604    4.0085    0.0000 C   0  0  0  0  0  0  0  0  0
    1.4898    3.4750    0.0000 C   0  0  0  0  0  0  0  0  0
    1.3425    2.6633    0.0000 C   0  0  0  0  0  0  0  0  0
   -0.5455    4.2636    0.0000 C   0  0  0  0  0  0  0  0  0
  1  2  1  0  0  0  0
  1 20  1  0  0  0  0
  2  3  1  0  0  0  0
  2  6  1  0  0  0  0
  3  4  1  0  0  0  0
  4  5  1  0  0  0  0
  4  7  1  0  0  0  0
  5  6  1  0  0  0  0
  7  8  2  0  0  0  0
  7  9  1  0  0  0  0
  9 10  1  0  0  0  0
  9 15  1  0  0  0  0
 10 11  1  0  0  0  0
 11 12  1  0  0  0  0
 12 13  1  0  0  0  0
 13 14  1  0  0  0  0
 13 16  1  0  0  0  0
 14 15  1  0  0  0  0
 16 17  1  0  0  0  0
 16 19  1  0  0  0  0
 17 18  1  0  0  0  0
 18 19  1  0  0  0  0
 20 21  4  0  0  0  0
 20 25  4  0  0  0  0
 21 22  4  0  0  0  0
 22 23  4  0  0  0  0
 22 26  1  0  0  0  0
 23 24  4  0  0  0  0
 24 25  4  0  0  0  0
M  END
>  <Name_Molregno>
627092

>  <HISTAMINE H3>
8.28

$$$$
627093
  Marvin  02231216192D 0   1.00000     0.00000     0

 26 29  0  0  1  0  0  0  0  0999 V2000
    0.4019    1.4862    0.0000 O   0  0  0  0  0  0  0  0  0
    1.0313    0.9527    0.0000 C   0  0  0  0  0  0  0  0  0
    1.8327    1.1483    0.0000 C   0  0  0  0  0  0  0  0  0
    2.2664    0.4465    0.0000 C   0  0  0  0  0  0  0  0  0
    1.7330   -0.1828    0.0000 N   0  0  0  0  0  0  0  0  0
    0.9696    0.1300    0.0000 C   0  0  0  0  0  0  0  0  0
    3.0891    0.3849    0.0000 C   0  0  0  0  0  0  0  0  0
    3.5539    1.0665    0.0000 O   0  0  0  0  0  0  0  0  0
    3.4471   -0.3584    0.0000 N   0  0  0  0  0  0  0  0  0
    4.2721   -0.3584    0.0000 C   0  0  0  0  0  0  0  0  0
    4.7865   -1.0035    0.0000 C   0  0  0  0  0  0  0  0  0
    4.6029   -1.8078    0.0000 C   0  0  0  0  0  0  0  0  0
    3.8596   -2.1657    0.0000 N   0  0  0  0  0  0  0  0  0
    3.1163   -1.8078    0.0000 C   0  0  0  0  0  0  0  0  0
    2.9327   -1.0035    0.0000 C   0  0  0  0  0  0  0  0  0
    3.8596   -2.9907    0.0000 C   0  0  0  0  0  0  0  0  0
    4.4429   -3.5741    0.0000 C   0  0  0  0  0  0  0  0  0
    3.8596   -4.1575    0.0000 C   0  0  0  0  0  0  0  0  0
    3.2762   -3.5741    0.0000 C   0  0  0  0  0  0  0  0  0
    0.5492    2.2979    0.0000 C   0  0  0  0  0  0  0  0  0
   -0.0801    2.8314    0.0000 C   0  0  0  0  0  0  0  0  0
    0.0672    3.6431    0.0000 C   0  0  0  0  0  0  0  0  0
    0.8439    3.9214    0.0000 C   0  0  0  0  0  0  0  0  0
    1.4732    3.3880    0.0000 C   0  0  0  0  0  0  0  0  0
    1.3259    2.5762    0.0000 C   0  0  0  0  0  0  0  0  0
    0.9912    4.7331    0.0000 C   0  0  0  0  0  0  0  0  0
  1  2  1  0  0  0  0
  1 20  1  0  0  0  0
  2  3  1  0  0  0  0
  2  6  1  0  0  0  0
  3  4  1  0  0  0  0
  4  5  1  0  0  0  0
  4  7  1  0  0  0  0
  5  6  1  0  0  0  0
  7  8  2  0  0  0  0
  7  9  1  0  0  0  0
  9 10  1  0  0  0  0
  9 15  1  0  0  0  0
 10 11  1  0  0  0  0
 11 12  1  0  0  0  0
 12 13  1  0  0  0  0
 13 14  1  0  0  0  0
 13 16  1  0  0  0  0
 14 15  1  0  0  0  0
 16 17  1  0  0  0  0
 16 19  1  0  0  0  0
 17 18  1  0  0  0  0
 18 19  1  0  0  0  0
 20 21  4  0  0  0  0
 20 25  4  0  0  0  0
 21 22  4  0  0  0  0
 22 23  4  0  0  0  0
 23 24  4  0  0  0  0
 23 26  1  0  0  0  0
 24 25  4  0  0  0  0
M  END
>  <Name_Molregno>
627093

>  <HISTAMINE H3>
8.33

$$$$
627094
  Marvin  02231216192D 0   1.00000     0.00000     0

 27 30  0  0  1  0  0  0  0  0999 V2000
    6.0705    3.5430    0.0000 Cl  0  0  0  0  0  0  0  0  0
    5.9232    2.7313    0.0000 C   0  0  0  0  0  0  0  0  0
    6.5525    2.1978    0.0000 C   0  0  0  0  0  0  0  0  0
    6.4052    1.3861    0.0000 C   0  0  0  0  0  0  0  0  0
    5.6286    1.1078    0.0000 C   0  0  0  0  0  0  0  0  0
    5.4813    0.2961    0.0000 O   0  0  0  0  0  0  0  0  0
    4.7046    0.0178    0.0000 C   0  0  0  0  0  0  0  0  0
    4.4733   -0.7741    0.0000 C   0  0  0  0  0  0  0  0  0
    3.6487   -0.7988    0.0000 C   0  0  0  0  0  0  0  0  0
    3.3704   -0.0222    0.0000 N   0  0  0  0  0  0  0  0  0
    4.0230    0.4825    0.0000 C   0  0  0  0  0  0  0  0  0
    3.1839   -1.4805    0.0000 C   0  0  0  0  0  0  0  0  0
    2.3612   -1.4188    0.0000 O   0  0  0  0  0  0  0  0  0
    3.5419   -2.2238    0.0000 N   0  0  0  0  0  0  0  0  0
    4.3669   -2.2238    0.0000 C   0  0  0  0  0  0  0  0  0
    4.8813   -2.8688    0.0000 C   0  0  0  0  0  0  0  0  0
    4.6977   -3.6731    0.0000 C   0  0  0  0  0  0  0  0  0
    3.9544   -4.0310    0.0000 N   0  0  0  0  0  0  0  0  0
    3.2111   -3.6731    0.0000 C   0  0  0  0  0  0  0  0  0
    3.0275   -2.8688    0.0000 C   0  0  0  0  0  0  0  0  0
    3.9544   -4.8560    0.0000 C   0  0  0  0  0  0  0  0  0
    4.5377   -5.4394    0.0000 C   0  0  0  0  0  0  0  0  0
    3.9544   -6.0228    0.0000 C   0  0  0  0  0  0  0  0  0
    3.3710   -5.4394    0.0000 C   0  0  0  0  0  0  0  0  0
    4.9993    1.6412    0.0000 C   0  0  0  0  0  0  0  0  0
    5.1466    2.4530    0.0000 C   0  0  0  0  0  0  0  0  0
    4.5172    2.9864    0.0000 C   0  0  0  0  0  0  0  0  0
  1  2  1  0  0  0  0
  2  3  4  0  0  0  0
  2 26  4  0  0  0  0
  3  4  4  0  0  0  0
  4  5  4  0  0  0  0
  5  6  1  0  0  0  0
  5 25  4  0  0  0  0
  6  7  1  0  0  0  0
  7  8  1  0  0  0  0
  7 11  1  0  0  0  0
  8  9  1  0  0  0  0
  9 10  1  0  0  0  0
  9 12  1  0  0  0  0
 10 11  1  0  0  0  0
 12 13  2  0  0  0  0
 12 14  1  0  0  0  0
 14 15  1  0  0  0  0
 14 20  1  0  0  0  0
 15 16  1  0  0  0  0
 16 17  1  0  0  0  0
 17 18  1  0  0  0  0
 18 19  1  0  0  0  0
 18 21  1  0  0  0  0
 19 20  1  0  0  0  0
 21 22  1  0  0  0  0
 21 24  1  0  0  0  0
 22 23  1  0  0  0  0
 23 24  1  0  0  0  0
 25 26  4  0  0  0  0
 26 27  1  0  0  0  0
M  END
>  <Name_Molregno>
627094

>  <HISTAMINE H3>
8.89

$$$$
627095
  Marvin  02231216192D 0   1.00000     0.00000     0

 27 30  0  0  1  0  0  0  0  0999 V2000
    0.3600    0.7803    0.0000 O   0  0  0  0  0  0  0  0  0
    0.9893    0.2468    0.0000 C   0  0  0  0  0  0  0  0  0
    1.7908    0.4424    0.0000 C   0  0  0  0  0  0  0  0  0
    2.2245   -0.2594    0.0000 C   0  0  0  0  0  0  0  0  0
    1.6911   -0.8887    0.0000 N   0  0  0  0  0  0  0  0  0
    0.9277   -0.5759    0.0000 C   0  0  0  0  0  0  0  0  0
    3.0472   -0.3210    0.0000 C   0  0  0  0  0  0  0  0  0
    3.5119    0.3606    0.0000 O   0  0  0  0  0  0  0  0  0
    3.4052   -1.0643    0.0000 N   0  0  0  0  0  0  0  0  0
    4.2302   -1.0643    0.0000 C   0  0  0  0  0  0  0  0  0
    4.7445   -1.7093    0.0000 C   0  0  0  0  0  0  0  0  0
    4.5609   -2.5137    0.0000 C   0  0  0  0  0  0  0  0  0
    3.8177   -2.8716    0.0000 N   0  0  0  0  0  0  0  0  0
    3.0744   -2.5137    0.0000 C   0  0  0  0  0  0  0  0  0
    2.8908   -1.7093    0.0000 C   0  0  0  0  0  0  0  0  0
    3.8177   -3.6966    0.0000 C   0  0  0  0  0  0  0  0  0
    4.4010   -4.2800    0.0000 C   0  0  0  0  0  0  0  0  0
    3.8177   -4.8633    0.0000 C   0  0  0  0  0  0  0  0  0
    3.2343   -4.2800    0.0000 C   0  0  0  0  0  0  0  0  0
    0.5073    1.5920    0.0000 C   0  0  0  0  0  0  0  0  0
   -0.1220    2.1255    0.0000 C   0  0  0  0  0  0  0  0  0
    0.0253    2.9372    0.0000 C   0  0  0  0  0  0  0  0  0
   -0.6040    3.4707    0.0000 O   0  0  0  0  0  0  0  0  0
   -1.3807    3.1924    0.0000 C   0  0  0  0  0  0  0  0  0
    0.8019    3.2155    0.0000 C   0  0  0  0  0  0  0  0  0
    1.4313    2.6821    0.0000 C   0  0  0  0  0  0  0  0  0
    1.2840    1.8703    0.0000 C   0  0  0  0  0  0  0  0  0
  1  2  1  0  0  0  0
  1 20  1  0  0  0  0
  2  3  1  0  0  0  0
  2  6  1  0  0  0  0
  3  4  1  0  0  0  0
  4  5  1  0  0  0  0
  4  7  1  0  0  0  0
  5  6  1  0  0  0  0
  7  8  2  0  0  0  0
  7  9  1  0  0  0  0
  9 10  1  0  0  0  0
  9 15  1  0  0  0  0
 10 11  1  0  0  0  0
 11 12  1  0  0  0  0
 12 13  1  0  0  0  0
 13 14  1  0  0  0  0
 13 16  1  0  0  0  0
 14 15  1  0  0  0  0
 16 17  1  0  0  0  0
 16 19  1  0  0  0  0
 17 18  1  0  0  0  0
 18 19  1  0  0  0  0
 20 21  4  0  0  0  0
 20 27  4  0  0  0  0
 21 22  4  0  0  0  0
 22 23  1  0  0  0  0
 22 25  4  0  0  0  0
 23 24  1  0  0  0  0
 25 26  4  0  0  0  0
 26 27  4  0  0  0  0
M  END
>  <Name_Molregno>
627095

>  <HISTAMINE H3>
8.3

$$$$
627165
  Marvin  02231216192D 0   1.00000     0.00000     0

 27 30  0  0  1  0  0  0  0  0999 V2000
   -2.8322    3.5415    0.0000 S   0  0  0  0  0  0  0  0  0
   -3.4615    4.0750    0.0000 C   0  0  0  0  0  0  0  0  0
   -2.9795    2.7298    0.0000 C   0  0  0  0  0  0  0  0  0
   -2.3501    2.1963    0.0000 C   0  0  0  0  0  0  0  0  0
   -2.4975    1.3846    0.0000 C   0  0  0  0  0  0  0  0  0
   -3.2741    1.1063    0.0000 C   0  0  0  0  0  0  0  0  0
   -3.4214    0.2946    0.0000 O   0  0  0  0  0  0  0  0  0
   -4.1981    0.0163    0.0000 C   0  0  0  0  0  0  0  0  0
   -4.4294   -0.7756    0.0000 C   0  0  0  0  0  0  0  0  0
   -5.2540   -0.8003    0.0000 C   0  0  0  0  0  0  0  0  0
   -5.5323   -0.0237    0.0000 N   0  0  0  0  0  0  0  0  0
   -4.8797    0.4810    0.0000 C   0  0  0  0  0  0  0  0  0
   -5.7188   -1.4820    0.0000 C   0  0  0  0  0  0  0  0  0
   -6.5415   -1.4203    0.0000 O   0  0  0  0  0  0  0  0  0
   -5.3608   -2.2253    0.0000 N   0  0  0  0  0  0  0  0  0
   -4.5358   -2.2253    0.0000 C   0  0  0  0  0  0  0  0  0
   -4.0214   -2.8703    0.0000 C   0  0  0  0  0  0  0  0  0
   -4.2050   -3.6746    0.0000 C   0  0  0  0  0  0  0  0  0
   -4.9483   -4.0326    0.0000 N   0  0  0  0  0  0  0  0  0
   -5.6916   -3.6746    0.0000 C   0  0  0  0  0  0  0  0  0
   -5.8752   -2.8703    0.0000 C   0  0  0  0  0  0  0  0  0
   -4.9483   -4.8576    0.0000 C   0  0  0  0  0  0  0  0  0
   -4.3650   -5.4409    0.0000 C   0  0  0  0  0  0  0  0  0
   -4.9483   -6.0243    0.0000 C   0  0  0  0  0  0  0  0  0
   -5.5317   -5.4409    0.0000 C   0  0  0  0  0  0  0  0  0
   -3.9034    1.6397    0.0000 C   0  0  0  0  0  0  0  0  0
   -3.7561    2.4515    0.0000 C   0  0  0  0  0  0  0  0  0
  1  2  1  0  0  0  0
  1  3  1  0  0  0  0
  3  4  4  0  0  0  0
  3 27  4  0  0  0  0
  4  5  4  0  0  0  0
  5  6  4  0  0  0  0
  6  7  1  0  0  0  0
  6 26  4  0  0  0  0
  7  8  1  0  0  0  0
  8  9  1  0  0  0  0
  8 12  1  0  0  0  0
  9 10  1  0  0  0  0
 10 11  1  0  0  0  0
 10 13  1  0  0  0  0
 11 12  1  0  0  0  0
 13 14  2  0  0  0  0
 13 15  1  0  0  0  0
 15 16  1  0  0  0  0
 15 21  1  0  0  0  0
 16 17  1  0  0  0  0
 17 18  1  0  0  0  0
 18 19  1  0  0  0  0
 19 20  1  0  0  0  0
 19 22  1  0  0  0  0
 20 21  1  0  0  0  0
 22 23  1  0  0  0  0
 22 25  1  0  0  0  0
 23 24  1  0  0  0  0
 24 25  1  0  0  0  0
 26 27  4  0  0  0  0
M  END
>  <Name_Molregno>
627165

>  <HISTAMINE H3>
7.7

$$$$
627166
  Marvin  02231216192D 0   1.00000     0.00000     0

 29 32  0  0  1  0  0  0  0  0999 V2000
    5.5601    8.0427    0.0000 F   0  0  0  0  0  0  0  0  0
    5.4128    7.2309    0.0000 C   0  0  0  0  0  0  0  0  0
    4.6011    7.3782    0.0000 F   0  0  0  0  0  0  0  0  0
    6.2246    7.0836    0.0000 F   0  0  0  0  0  0  0  0  0
    5.2655    6.4192    0.0000 C   0  0  0  0  0  0  0  0  0
    5.8948    5.8857    0.0000 C   0  0  0  0  0  0  0  0  0
    5.7475    5.0740    0.0000 C   0  0  0  0  0  0  0  0  0
    4.9709    4.7957    0.0000 C   0  0  0  0  0  0  0  0  0
    4.8236    3.9840    0.0000 O   0  0  0  0  0  0  0  0  0
    4.0469    3.7057    0.0000 C   0  0  0  0  0  0  0  0  0
    3.8156    2.9138    0.0000 C   0  0  0  0  0  0  0  0  0
    2.9910    2.8891    0.0000 C   0  0  0  0  0  0  0  0  0
    2.7127    3.6657    0.0000 N   0  0  0  0  0  0  0  0  0
    3.3653    4.1704    0.0000 C   0  0  0  0  0  0  0  0  0
    2.5262    2.2074    0.0000 C   0  0  0  0  0  0  0  0  0
    1.7035    2.2691    0.0000 O   0  0  0  0  0  0  0  0  0
    2.8842    1.4641    0.0000 N   0  0  0  0  0  0  0  0  0
    3.7092    1.4641    0.0000 C   0  0  0  0  0  0  0  0  0
    4.2235    0.8191    0.0000 C   0  0  0  0  0  0  0  0  0
    4.0400    0.0148    0.0000 C   0  0  0  0  0  0  0  0  0
    3.2967   -0.3431    0.0000 N   0  0  0  0  0  0  0  0  0
    2.5534    0.0148    0.0000 C   0  0  0  0  0  0  0  0  0
    2.3698    0.8191    0.0000 C   0  0  0  0  0  0  0  0  0
    3.2967   -1.1681    0.0000 C   0  0  0  0  0  0  0  0  0
    3.8800   -1.7515    0.0000 C   0  0  0  0  0  0  0  0  0
    3.2967   -2.3349    0.0000 C   0  0  0  0  0  0  0  0  0
    2.7133   -1.7515    0.0000 C   0  0  0  0  0  0  0  0  0
    4.3416    5.3291    0.0000 C   0  0  0  0  0  0  0  0  0
    4.4889    6.1409    0.0000 C   0  0  0  0  0  0  0  0  0
  1  2  1  0  0  0  0
  2  3  1  0  0  0  0
  2  4  1  0  0  0  0
  2  5  1  0  0  0  0
  5  6  4  0  0  0  0
  5 29  4  0  0  0  0
  6  7  4  0  0  0  0
  7  8  4  0  0  0  0
  8  9  1  0  0  0  0
  8 28  4  0  0  0  0
  9 10  1  0  0  0  0
 10 11  1  0  0  0  0
 10 14  1  0  0  0  0
 11 12  1  0  0  0  0
 12 13  1  0  0  0  0
 12 15  1  0  0  0  0
 13 14  1  0  0  0  0
 15 16  2  0  0  0  0
 15 17  1  0  0  0  0
 17 18  1  0  0  0  0
 17 23  1  0  0  0  0
 18 19  1  0  0  0  0
 19 20  1  0  0  0  0
 20 21  1  0  0  0  0
 21 22  1  0  0  0  0
 21 24  1  0  0  0  0
 22 23  1  0  0  0  0
 24 25  1  0  0  0  0
 24 27  1  0  0  0  0
 25 26  1  0  0  0  0
 26 27  1  0  0  0  0
 28 29  4  0  0  0  0
M  END
>  <Name_Molregno>
627166

>  <HISTAMINE H3>
8.39

$$$$
627167
  Marvin  02231216192D 0   1.00000     0.00000     0

 26 29  0  0  1  0  0  0  0  0999 V2000
    7.5917    2.4334    0.0000 F   0  0  0  0  0  0  0  0  0
    6.8150    2.1551    0.0000 C   0  0  0  0  0  0  0  0  0
    6.6677    1.3434    0.0000 C   0  0  0  0  0  0  0  0  0
    5.8911    1.0651    0.0000 C   0  0  0  0  0  0  0  0  0
    5.7438    0.2533    0.0000 O   0  0  0  0  0  0  0  0  0
    4.9671   -0.0250    0.0000 C   0  0  0  0  0  0  0  0  0
    4.7358   -0.8169    0.0000 C   0  0  0  0  0  0  0  0  0
    3.9112   -0.8415    0.0000 C   0  0  0  0  0  0  0  0  0
    3.6329   -0.0649    0.0000 N   0  0  0  0  0  0  0  0  0
    4.2855    0.4398    0.0000 C   0  0  0  0  0  0  0  0  0
    3.4464   -1.5232    0.0000 C   0  0  0  0  0  0  0  0  0
    2.6237   -1.4615    0.0000 O   0  0  0  0  0  0  0  0  0
    3.8044   -2.2665    0.0000 N   0  0  0  0  0  0  0  0  0
    4.6294   -2.2665    0.0000 C   0  0  0  0  0  0  0  0  0
    5.1437   -2.9115    0.0000 C   0  0  0  0  0  0  0  0  0
    4.9602   -3.7158    0.0000 C   0  0  0  0  0  0  0  0  0
    4.2169   -4.0738    0.0000 N   0  0  0  0  0  0  0  0  0
    3.4736   -3.7158    0.0000 C   0  0  0  0  0  0  0  0  0
    3.2900   -2.9115    0.0000 C   0  0  0  0  0  0  0  0  0
    4.2169   -4.8988    0.0000 C   0  0  0  0  0  0  0  0  0
    4.8002   -5.4821    0.0000 C   0  0  0  0  0  0  0  0  0
    4.2169   -6.0655    0.0000 C   0  0  0  0  0  0  0  0  0
    3.6335   -5.4821    0.0000 C   0  0  0  0  0  0  0  0  0
    5.2618    1.5985    0.0000 C   0  0  0  0  0  0  0  0  0
    5.4091    2.4103    0.0000 C   0  0  0  0  0  0  0  0  0
    6.1857    2.6886    0.0000 C   0  0  0  0  0  0  0  0  0
  1  2  1  0  0  0  0
  2  3  4  0  0  0  0
  2 26  4  0  0  0  0
  3  4  4  0  0  0  0
  4  5  1  0  0  0  0
  4 24  4  0  0  0  0
  5  6  1  0  0  0  0
  6  7  1  0  0  0  0
  6 10  1  0  0  0  0
  7  8  1  0  0  0  0
  8  9  1  0  0  0  0
  8 11  1  0  0  0  0
  9 10  1  0  0  0  0
 11 12  2  0  0  0  0
 11 13  1  0  0  0  0
 13 14  1  0  0  0  0
 13 19  1  0  0  0  0
 14 15  1  0  0  0  0
 15 16  1  0  0  0  0
 16 17  1  0  0  0  0
 17 18  1  0  0  0  0
 17 20  1  0  0  0  0
 18 19  1  0  0  0  0
 20 21  1  0  0  0  0
 20 23  1  0  0  0  0
 21 22  1  0  0  0  0
 22 23  1  0  0  0  0
 24 25  4  0  0  0  0
 25 26  4  0  0  0  0
M  END
>  <Name_Molregno>
627167

>  <HISTAMINE H3>
7.72

$$$$
627168
  Marvin  02231216192D 0   1.00000     0.00000     0

 26 29  0  0  1  0  0  0  0  0999 V2000
    6.2581    3.7302    0.0000 F   0  0  0  0  0  0  0  0  0
    6.1108    2.9184    0.0000 C   0  0  0  0  0  0  0  0  0
    6.7402    2.3850    0.0000 C   0  0  0  0  0  0  0  0  0
    6.5928    1.5732    0.0000 C   0  0  0  0  0  0  0  0  0
    5.8162    1.2949    0.0000 C   0  0  0  0  0  0  0  0  0
    5.6689    0.4832    0.0000 O   0  0  0  0  0  0  0  0  0
    4.8922    0.2049    0.0000 C   0  0  0  0  0  0  0  0  0
    4.6609   -0.5870    0.0000 C   0  0  0  0  0  0  0  0  0
    3.8363   -0.6117    0.0000 C   0  0  0  0  0  0  0  0  0
    3.5580    0.1650    0.0000 N   0  0  0  0  0  0  0  0  0
    4.2106    0.6696    0.0000 C   0  0  0  0  0  0  0  0  0
    3.3715   -1.2933    0.0000 C   0  0  0  0  0  0  0  0  0
    2.5488   -1.2317    0.0000 O   0  0  0  0  0  0  0  0  0
    3.7295   -2.0366    0.0000 N   0  0  0  0  0  0  0  0  0
    4.5545   -2.0366    0.0000 C   0  0  0  0  0  0  0  0  0
    5.0689   -2.6816    0.0000 C   0  0  0  0  0  0  0  0  0
    4.8853   -3.4860    0.0000 C   0  0  0  0  0  0  0  0  0
    4.1420   -3.8439    0.0000 N   0  0  0  0  0  0  0  0  0
    3.3987   -3.4860    0.0000 C   0  0  0  0  0  0  0  0  0
    3.2151   -2.6816    0.0000 C   0  0  0  0  0  0  0  0  0
    4.1420   -4.6689    0.0000 C   0  0  0  0  0  0  0  0  0
    4.7253   -5.2523    0.0000 C   0  0  0  0  0  0  0  0  0
    4.1420   -5.8356    0.0000 C   0  0  0  0  0  0  0  0  0
    3.5586   -5.2523    0.0000 C   0  0  0  0  0  0  0  0  0
    5.1869    1.8284    0.0000 C   0  0  0  0  0  0  0  0  0
    5.3342    2.6401    0.0000 C   0  0  0  0  0  0  0  0  0
  1  2  1  0  0  0  0
  2  3  4  0  0  0  0
  2 26  4  0  0  0  0
  3  4  4  0  0  0  0
  4  5  4  0  0  0  0
  5  6  1  0  0  0  0
  5 25  4  0  0  0  0
  6  7  1  0  0  0  0
  7  8  1  0  0  0  0
  7 11  1  0  0  0  0
  8  9  1  0  0  0  0
  9 10  1  0  0  0  0
  9 12  1  0  0  0  0
 10 11  1  0  0  0  0
 12 13  2  0  0  0  0
 12 14  1  0  0  0  0
 14 15  1  0  0  0  0
 14 20  1  0  0  0  0
 15 16  1  0  0  0  0
 16 17  1  0  0  0  0
 17 18  1  0  0  0  0
 18 19  1  0  0  0  0
 18 21  1  0  0  0  0
 19 20  1  0  0  0  0
 21 22  1  0  0  0  0
 21 24  1  0  0  0  0
 22 23  1  0  0  0  0
 23 24  1  0  0  0  0
 25 26  4  0  0  0  0
M  END
>  <Name_Molregno>
627168

>  <HISTAMINE H3>
8.8

$$$$
627169
  Marvin  02231216192D 0   1.00000     0.00000     0

 26 29  0  0  1  0  0  0  0  0999 V2000
    6.2581    3.7302    0.0000 Cl  0  0  0  0  0  0  0  0  0
    6.1108    2.9184    0.0000 C   0  0  0  0  0  0  0  0  0
    6.7402    2.3850    0.0000 C   0  0  0  0  0  0  0  0  0
    6.5928    1.5732    0.0000 C   0  0  0  0  0  0  0  0  0
    5.8162    1.2949    0.0000 C   0  0  0  0  0  0  0  0  0
    5.6689    0.4832    0.0000 O   0  0  0  0  0  0  0  0  0
    4.8922    0.2049    0.0000 C   0  0  0  0  0  0  0  0  0
    4.6609   -0.5870    0.0000 C   0  0  0  0  0  0  0  0  0
    3.8363   -0.6117    0.0000 C   0  0  0  0  0  0  0  0  0
    3.5580    0.1650    0.0000 N   0  0  0  0  0  0  0  0  0
    4.2106    0.6696    0.0000 C   0  0  0  0  0  0  0  0  0
    3.3715   -1.2933    0.0000 C   0  0  0  0  0  0  0  0  0
    2.5488   -1.2317    0.0000 O   0  0  0  0  0  0  0  0  0
    3.7295   -2.0366    0.0000 N   0  0  0  0  0  0  0  0  0
    4.5545   -2.0366    0.0000 C   0  0  0  0  0  0  0  0  0
    5.0689   -2.6816    0.0000 C   0  0  0  0  0  0  0  0  0
    4.8853   -3.4860    0.0000 C   0  0  0  0  0  0  0  0  0
    4.1420   -3.8439    0.0000 N   0  0  0  0  0  0  0  0  0
    3.3987   -3.4860    0.0000 C   0  0  0  0  0  0  0  0  0
    3.2151   -2.6816    0.0000 C   0  0  0  0  0  0  0  0  0
    4.1420   -4.6689    0.0000 C   0  0  0  0  0  0  0  0  0
    4.7253   -5.2523    0.0000 C   0  0  0  0  0  0  0  0  0
    4.1420   -5.8356    0.0000 C   0  0  0  0  0  0  0  0  0
    3.5586   -5.2523    0.0000 C   0  0  0  0  0  0  0  0  0
    5.1869    1.8284    0.0000 C   0  0  0  0  0  0  0  0  0
    5.3342    2.6401    0.0000 C   0  0  0  0  0  0  0  0  0
  1  2  1  0  0  0  0
  2  3  4  0  0  0  0
  2 26  4  0  0  0  0
  3  4  4  0  0  0  0
  4  5  4  0  0  0  0
  5  6  1  0  0  0  0
  5 25  4  0  0  0  0
  6  7  1  0  0  0  0
  7  8  1  0  0  0  0
  7 11  1  0  0  0  0
  8  9  1  0  0  0  0
  9 10  1  0  0  0  0
  9 12  1  0  0  0  0
 10 11  1  0  0  0  0
 12 13  2  0  0  0  0
 12 14  1  0  0  0  0
 14 15  1  0  0  0  0
 14 20  1  0  0  0  0
 15 16  1  0  0  0  0
 16 17  1  0  0  0  0
 17 18  1  0  0  0  0
 18 19  1  0  0  0  0
 18 21  1  0  0  0  0
 19 20  1  0  0  0  0
 21 22  1  0  0  0  0
 21 24  1  0  0  0  0
 22 23  1  0  0  0  0
 23 24  1  0  0  0  0
 25 26  4  0  0  0  0
M  END
>  <Name_Molregno>
627169

>  <HISTAMINE H3>
8.7

$$$$
627188
  Marvin  02231216192D 0   1.00000     0.00000     0

 14 15  0  0  0  0  0  0  0  0999 V2000
    1.3642   -3.0962    0.0000 N   0  0  0  0  0  0  0  0  0
    1.1093   -2.3116    0.0000 C   0  0  0  0  0  0  0  0  0
    1.7767   -1.8266    0.0000 C   0  0  0  0  0  0  0  0  0
    2.4442   -2.3116    0.0000 N   0  0  0  0  0  0  0  0  0
    2.1892   -3.0962    0.0000 C   0  0  0  0  0  0  0  0  0
    1.7767   -1.0016    0.0000 C   0  0  0  0  0  0  0  0  0
    2.4912   -0.5891    0.0000 C   0  0  0  0  0  0  0  0  0
    2.4912    0.2359    0.0000 N   0  0  0  0  0  0  0  0  0
    3.2057    0.6484    0.0000 C   0  0  0  0  0  0  0  0  0
    3.2057    1.4734    0.0000 C   0  0  0  0  0  0  0  0  0
    3.9201    1.8859    0.0000 C   0  0  0  0  0  0  0  0  0
    4.6346    1.4734    0.0000 C   0  0  0  0  0  0  0  0  0
    4.6346    0.6484    0.0000 C   0  0  0  0  0  0  0  0  0
    3.9201    0.2359    0.0000 C   0  0  0  0  0  0  0  0  0
  1  2  4  0  0  0  0
  1  5  4  0  0  0  0
  2  3  4  0  0  0  0
  3  4  4  0  0  0  0
  3  6  1  0  0  0  0
  4  5  4  0  0  0  0
  6  7  1  0  0  0  0
  7  8  1  0  0  0  0
  8  9  1  0  0  0  0
  9 10  1  0  0  0  0
  9 14  1  0  0  0  0
 10 11  1  0  0  0  0
 11 12  1  0  0  0  0
 12 13  1  0  0  0  0
 13 14  1  0  0  0  0
M  STY  1   1 DAT
M  SAL   1  1   1
M  SDT   1 MRV_IMPLICIT_H                                        
M  SDD   1     0.0000    0.0000    DR    ALL  0       0  
M  SED   1 IMPL_H1
M  END
>  <Name_Molregno>
627188

>  <HISTAMINE H3>
6.53

$$$$
627190
  Marvin  02231216192D 0   1.00000     0.00000     0

 15 16  0  0  0  0  0  0  0  0999 V2000
   -4.6668   -2.5204    0.0000 N   0  0  0  0  0  0  0  0  0
   -4.9218   -1.7358    0.0000 C   0  0  0  0  0  0  0  0  0
   -4.2543   -1.2509    0.0000 C   0  0  0  0  0  0  0  0  0
   -3.5869   -1.7358    0.0000 N   0  0  0  0  0  0  0  0  0
   -3.8418   -2.5204    0.0000 C   0  0  0  0  0  0  0  0  0
   -4.2543   -0.4259    0.0000 C   0  0  0  0  0  0  0  0  0
   -3.5398   -0.0134    0.0000 C   0  0  0  0  0  0  0  0  0
   -3.5398    0.8116    0.0000 N   0  0  0  0  0  0  0  0  0
   -2.8254    1.2241    0.0000 C   0  0  0  0  0  0  0  0  0
   -2.8254    2.0491    0.0000 C   0  0  0  0  0  0  0  0  0
   -2.1109    2.4616    0.0000 C   0  0  0  0  0  0  0  0  0
   -1.3964    2.0491    0.0000 C   0  0  0  0  0  0  0  0  0
   -1.3964    1.2241    0.0000 C   0  0  0  0  0  0  0  0  0
   -2.1109    0.8116    0.0000 C   0  0  0  0  0  0  0  0  0
   -0.6820    2.4616    0.0000 C   0  0  0  0  0  0  0  0  0
  1  2  4  0  0  0  0
  1  5  4  0  0  0  0
  2  3  4  0  0  0  0
  3  4  4  0  0  0  0
  3  6  1  0  0  0  0
  4  5  4  0  0  0  0
  6  7  1  0  0  0  0
  7  8  1  0  0  0  0
  8  9  1  0  0  0  0
  9 10  4  0  0  0  0
  9 14  4  0  0  0  0
 10 11  4  0  0  0  0
 11 12  4  0  0  0  0
 12 13  4  0  0  0  0
 12 15  1  0  0  0  0
 13 14  4  0  0  0  0
M  STY  1   1 DAT
M  SAL   1  1   1
M  SDT   1 MRV_IMPLICIT_H                                        
M  SDD   1     0.0000    0.0000    DR    ALL  0       0  
M  SED   1 IMPL_H1
M  END
>  <Name_Molregno>
627190

>  <HISTAMINE H3>
7.85

$$$$
627191
  Marvin  02231216192D 0   1.00000     0.00000     0

 16 17  0  0  0  0  0  0  0  0999 V2000
    1.5810   -3.2460    0.0000 N   0  0  0  0  0  0  0  0  0
    1.3261   -2.4614    0.0000 C   0  0  0  0  0  0  0  0  0
    1.9935   -1.9765    0.0000 C   0  0  0  0  0  0  0  0  0
    2.6610   -2.4614    0.0000 N   0  0  0  0  0  0  0  0  0
    2.4060   -3.2460    0.0000 C   0  0  0  0  0  0  0  0  0
    1.9935   -1.1515    0.0000 C   0  0  0  0  0  0  0  0  0
    2.7080   -0.7390    0.0000 C   0  0  0  0  0  0  0  0  0
    2.7080    0.0860    0.0000 N   0  0  0  0  0  0  0  0  0
    3.4225    0.4985    0.0000 C   0  0  0  0  0  0  0  0  0
    3.4225    1.3235    0.0000 C   0  0  0  0  0  0  0  0  0
    4.1369    1.7360    0.0000 C   0  0  0  0  0  0  0  0  0
    4.1369    2.5610    0.0000 C   0  0  0  0  0  0  0  0  0
    4.8514    1.3235    0.0000 C   0  0  0  0  0  0  0  0  0
    4.8514    0.4985    0.0000 C   0  0  0  0  0  0  0  0  0
    4.1369    0.0860    0.0000 C   0  0  0  0  0  0  0  0  0
    5.5659    1.7360    0.0000 C   0  0  0  0  0  0  0  0  0
  1  2  4  0  0  0  0
  1  5  4  0  0  0  0
  2  3  4  0  0  0  0
  3  4  4  0  0  0  0
  3  6  1  0  0  0  0
  4  5  4  0  0  0  0
  6  7  1  0  0  0  0
  7  8  1  0  0  0  0
  8  9  1  0  0  0  0
  9 10  4  0  0  0  0
  9 15  4  0  0  0  0
 10 11  4  0  0  0  0
 11 12  1  0  0  0  0
 11 13  4  0  0  0  0
 13 14  4  0  0  0  0
 13 16  1  0  0  0  0
 14 15  4  0  0  0  0
M  STY  1   1 DAT
M  SAL   1  1   1
M  SDT   1 MRV_IMPLICIT_H                                        
M  SDD   1     0.0000    0.0000    DR    ALL  0       0  
M  SED   1 IMPL_H1
M  END
>  <Name_Molregno>
627191

>  <HISTAMINE H3>
8

$$$$
627192
  Marvin  02231216192D 0   1.00000     0.00000     0

 18 19  0  0  0  0  0  0  0  0999 V2000
   -5.6500   -2.7733    0.0000 N   0  0  0  0  0  0  0  0  0
   -5.9049   -1.9887    0.0000 C   0  0  0  0  0  0  0  0  0
   -5.2375   -1.5037    0.0000 C   0  0  0  0  0  0  0  0  0
   -4.5701   -1.9887    0.0000 N   0  0  0  0  0  0  0  0  0
   -4.8250   -2.7733    0.0000 C   0  0  0  0  0  0  0  0  0
   -5.2375   -0.6787    0.0000 C   0  0  0  0  0  0  0  0  0
   -4.5230   -0.2662    0.0000 C   0  0  0  0  0  0  0  0  0
   -4.5230    0.5588    0.0000 N   0  0  0  0  0  0  0  0  0
   -3.8086    0.9713    0.0000 C   0  0  0  0  0  0  0  0  0
   -3.8086    1.7963    0.0000 C   0  0  0  0  0  0  0  0  0
   -3.0941    2.2088    0.0000 C   0  0  0  0  0  0  0  0  0
   -2.3796    1.7963    0.0000 C   0  0  0  0  0  0  0  0  0
   -2.3796    0.9713    0.0000 C   0  0  0  0  0  0  0  0  0
   -3.0941    0.5588    0.0000 C   0  0  0  0  0  0  0  0  0
   -1.6651    2.2088    0.0000 C   0  0  0  0  0  0  0  0  0
   -0.9507    2.6213    0.0000 C   0  0  0  0  0  0  0  0  0
   -1.2526    1.4943    0.0000 C   0  0  0  0  0  0  0  0  0
   -2.0776    2.9232    0.0000 C   0  0  0  0  0  0  0  0  0
  1  2  4  0  0  0  0
  1  5  4  0  0  0  0
  2  3  4  0  0  0  0
  3  4  4  0  0  0  0
  3  6  1  0  0  0  0
  4  5  4  0  0  0  0
  6  7  1  0  0  0  0
  7  8  1  0  0  0  0
  8  9  1  0  0  0  0
  9 10  4  0  0  0  0
  9 14  4  0  0  0  0
 10 11  4  0  0  0  0
 11 12  4  0  0  0  0
 12 13  4  0  0  0  0
 12 15  1  0  0  0  0
 13 14  4  0  0  0  0
 15 16  1  0  0  0  0
 15 17  1  0  0  0  0
 15 18  1  0  0  0  0
M  STY  1   1 DAT
M  SAL   1  1   1
M  SDT   1 MRV_IMPLICIT_H                                        
M  SDD   1     0.0000    0.0000    DR    ALL  0       0  
M  SED   1 IMPL_H1
M  END
>  <Name_Molregno>
627192

>  <HISTAMINE H3>
9.05

$$$$
627193
  Marvin  02231216192D 0   1.00000     0.00000     0

 18 19  0  0  0  0  0  0  0  0999 V2000
    1.9364   -3.1009    0.0000 N   0  0  0  0  0  0  0  0  0
    1.6815   -2.3162    0.0000 C   0  0  0  0  0  0  0  0  0
    2.3489   -1.8313    0.0000 C   0  0  0  0  0  0  0  0  0
    3.0163   -2.3162    0.0000 N   0  0  0  0  0  0  0  0  0
    2.7614   -3.1009    0.0000 C   0  0  0  0  0  0  0  0  0
    2.3489   -1.0063    0.0000 C   0  0  0  0  0  0  0  0  0
    3.0634   -0.5938    0.0000 C   0  0  0  0  0  0  0  0  0
    3.0634    0.2312    0.0000 N   0  0  0  0  0  0  0  0  0
    3.7778    0.6437    0.0000 C   0  0  0  0  0  0  0  0  0
    3.7778    1.4687    0.0000 C   0  0  0  0  0  0  0  0  0
    4.4923    1.8812    0.0000 C   0  0  0  0  0  0  0  0  0
    5.2068    1.4687    0.0000 C   0  0  0  0  0  0  0  0  0
    5.2068    0.6437    0.0000 C   0  0  0  0  0  0  0  0  0
    4.4923    0.2312    0.0000 C   0  0  0  0  0  0  0  0  0
    4.4923    2.7062    0.0000 C   0  0  0  0  0  0  0  0  0
    4.4923    3.5312    0.0000 C   0  0  0  0  0  0  0  0  0
    5.3173    2.7062    0.0000 C   0  0  0  0  0  0  0  0  0
    3.6673    2.7062    0.0000 C   0  0  0  0  0  0  0  0  0
  1  2  4  0  0  0  0
  1  5  4  0  0  0  0
  2  3  4  0  0  0  0
  3  4  4  0  0  0  0
  3  6  1  0  0  0  0
  4  5  4  0  0  0  0
  6  7  1  0  0  0  0
  7  8  1  0  0  0  0
  8  9  1  0  0  0  0
  9 10  4  0  0  0  0
  9 14  4  0  0  0  0
 10 11  4  0  0  0  0
 11 12  4  0  0  0  0
 11 15  1  0  0  0  0
 12 13  4  0  0  0  0
 13 14  4  0  0  0  0
 15 16  1  0  0  0  0
 15 17  1  0  0  0  0
 15 18  1  0  0  0  0
M  STY  1   1 DAT
M  SAL   1  1   1
M  SDT   1 MRV_IMPLICIT_H                                        
M  SDD   1     0.0000    0.0000    DR    ALL  0       0  
M  SED   1 IMPL_H1
M  END
>  <Name_Molregno>
627193

>  <HISTAMINE H3>
8.66

$$$$
627235
  Marvin  02231216192D 0   1.00000     0.00000     0

 26 29  0  0  1  0  0  0  0  0999 V2000
    7.5917    2.4334    0.0000 Cl  0  0  0  0  0  0  0  0  0
    6.8150    2.1551    0.0000 C   0  0  0  0  0  0  0  0  0
    6.6677    1.3434    0.0000 C   0  0  0  0  0  0  0  0  0
    5.8911    1.0651    0.0000 C   0  0  0  0  0  0  0  0  0
    5.7438    0.2533    0.0000 O   0  0  0  0  0  0  0  0  0
    4.9671   -0.0250    0.0000 C   0  0  0  0  0  0  0  0  0
    4.7358   -0.8169    0.0000 C   0  0  0  0  0  0  0  0  0
    3.9112   -0.8415    0.0000 C   0  0  0  0  0  0  0  0  0
    3.6329   -0.0649    0.0000 N   0  0  0  0  0  0  0  0  0
    4.2855    0.4398    0.0000 C   0  0  0  0  0  0  0  0  0
    3.4464   -1.5232    0.0000 C   0  0  0  0  0  0  0  0  0
    2.6237   -1.4615    0.0000 O   0  0  0  0  0  0  0  0  0
    3.8044   -2.2665    0.0000 N   0  0  0  0  0  0  0  0  0
    4.6294   -2.2665    0.0000 C   0  0  0  0  0  0  0  0  0
    5.1437   -2.9115    0.0000 C   0  0  0  0  0  0  0  0  0
    4.9602   -3.7158    0.0000 C   0  0  0  0  0  0  0  0  0
    4.2169   -4.0738    0.0000 N   0  0  0  0  0  0  0  0  0
    3.4736   -3.7158    0.0000 C   0  0  0  0  0  0  0  0  0
    3.2900   -2.9115    0.0000 C   0  0  0  0  0  0  0  0  0
    4.2169   -4.8988    0.0000 C   0  0  0  0  0  0  0  0  0
    4.8002   -5.4821    0.0000 C   0  0  0  0  0  0  0  0  0
    4.2169   -6.0655    0.0000 C   0  0  0  0  0  0  0  0  0
    3.6335   -5.4821    0.0000 C   0  0  0  0  0  0  0  0  0
    5.2618    1.5985    0.0000 C   0  0  0  0  0  0  0  0  0
    5.4091    2.4103    0.0000 C   0  0  0  0  0  0  0  0  0
    6.1857    2.6886    0.0000 C   0  0  0  0  0  0  0  0  0
  1  2  1  0  0  0  0
  2  3  4  0  0  0  0
  2 26  4  0  0  0  0
  3  4  4  0  0  0  0
  4  5  1  0  0  0  0
  4 24  4  0  0  0  0
  5  6  1  0  0  0  0
  6  7  1  0  0  0  0
  6 10  1  0  0  0  0
  7  8  1  0  0  0  0
  8  9  1  0  0  0  0
  8 11  1  0  0  0  0
  9 10  1  0  0  0  0
 11 12  2  0  0  0  0
 11 13  1  0  0  0  0
 13 14  1  0  0  0  0
 13 19  1  0  0  0  0
 14 15  1  0  0  0  0
 15 16  1  0  0  0  0
 16 17  1  0  0  0  0
 17 18  1  0  0  0  0
 17 20  1  0  0  0  0
 18 19  1  0  0  0  0
 20 21  1  0  0  0  0
 20 23  1  0  0  0  0
 21 22  1  0  0  0  0
 22 23  1  0  0  0  0
 24 25  4  0  0  0  0
 25 26  4  0  0  0  0
M  END
>  <Name_Molregno>
627235

>  <HISTAMINE H3>
8.6

$$$$
627236
  Marvin  02231216192D 0   1.00000     0.00000     0

 27 30  0  0  1  0  0  0  0  0999 V2000
    0.2813    1.4398    0.0000 O   0  0  0  0  0  0  0  0  0
    0.9107    0.9063    0.0000 C   0  0  0  0  0  0  0  0  0
    1.7121    1.1019    0.0000 C   0  0  0  0  0  0  0  0  0
    2.1458    0.4001    0.0000 C   0  0  0  0  0  0  0  0  0
    1.6124   -0.2292    0.0000 N   0  0  0  0  0  0  0  0  0
    0.8490    0.0837    0.0000 C   0  0  0  0  0  0  0  0  0
    2.9685    0.3385    0.0000 C   0  0  0  0  0  0  0  0  0
    3.4333    1.0201    0.0000 O   0  0  0  0  0  0  0  0  0
    3.3265   -0.4048    0.0000 N   0  0  0  0  0  0  0  0  0
    4.1515   -0.4048    0.0000 C   0  0  0  0  0  0  0  0  0
    4.6659   -1.0498    0.0000 C   0  0  0  0  0  0  0  0  0
    4.4823   -1.8541    0.0000 C   0  0  0  0  0  0  0  0  0
    3.7390   -2.2121    0.0000 N   0  0  0  0  0  0  0  0  0
    2.9957   -1.8541    0.0000 C   0  0  0  0  0  0  0  0  0
    2.8121   -1.0498    0.0000 C   0  0  0  0  0  0  0  0  0
    3.7390   -3.0371    0.0000 C   0  0  0  0  0  0  0  0  0
    4.3223   -3.6205    0.0000 C   0  0  0  0  0  0  0  0  0
    3.7390   -4.2038    0.0000 C   0  0  0  0  0  0  0  0  0
    3.1556   -3.6205    0.0000 C   0  0  0  0  0  0  0  0  0
    0.4286    2.2515    0.0000 C   0  0  0  0  0  0  0  0  0
   -0.2007    2.7850    0.0000 C   0  0  0  0  0  0  0  0  0
   -0.0534    3.5967    0.0000 C   0  0  0  0  0  0  0  0  0
    0.7233    3.8750    0.0000 C   0  0  0  0  0  0  0  0  0
    1.3526    3.3416    0.0000 C   0  0  0  0  0  0  0  0  0
    1.2053    2.5298    0.0000 C   0  0  0  0  0  0  0  0  0
    0.8706    4.6868    0.0000 C   0  0  0  0  0  0  0  0  0
    1.0179    5.4985    0.0000 N   0  0  0  0  0  0  0  0  0
  1  2  1  0  0  0  0
  1 20  1  0  0  0  0
  2  3  1  0  0  0  0
  2  6  1  0  0  0  0
  3  4  1  0  0  0  0
  4  5  1  0  0  0  0
  4  7  1  0  0  0  0
  5  6  1  0  0  0  0
  7  8  2  0  0  0  0
  7  9  1  0  0  0  0
  9 10  1  0  0  0  0
  9 15  1  0  0  0  0
 10 11  1  0  0  0  0
 11 12  1  0  0  0  0
 12 13  1  0  0  0  0
 13 14  1  0  0  0  0
 13 16  1  0  0  0  0
 14 15  1  0  0  0  0
 16 17  1  0  0  0  0
 16 19  1  0  0  0  0
 17 18  1  0  0  0  0
 18 19  1  0  0  0  0
 20 21  4  0  0  0  0
 20 25  4  0  0  0  0
 21 22  4  0  0  0  0
 22 23  4  0  0  0  0
 23 24  4  0  0  0  0
 23 26  1  0  0  0  0
 24 25  4  0  0  0  0
 26 27  3  0  0  0  0
M  END
>  <Name_Molregno>
627236

>  <HISTAMINE H3>
7.44

$$$$
627237
  Marvin  02231216192D 0   1.00000     0.00000     0

 27 30  0  0  1  0  0  0  0  0999 V2000
    0.0696    0.6467    0.0000 F   0  0  0  0  0  0  0  0  0
    0.7841    0.2342    0.0000 C   0  0  0  0  0  0  0  0  0
    1.4985    0.6467    0.0000 C   0  0  0  0  0  0  0  0  0
    2.2130    0.2342    0.0000 C   0  0  0  0  0  0  0  0  0
    2.2130   -0.5908    0.0000 C   0  0  0  0  0  0  0  0  0
    2.9275   -1.0033    0.0000 O   0  0  0  0  0  0  0  0  0
    2.9275   -1.8283    0.0000 C   0  0  0  0  0  0  0  0  0
    3.5949   -2.3132    0.0000 C   0  0  0  0  0  0  0  0  0
    3.3400   -3.0978    0.0000 C   0  0  0  0  0  0  0  0  0
    2.5150   -3.0978    0.0000 N   0  0  0  0  0  0  0  0  0
    2.2600   -2.3132    0.0000 C   0  0  0  0  0  0  0  0  0
    3.8249   -3.7653    0.0000 C   0  0  0  0  0  0  0  0  0
    3.4894   -4.5189    0.0000 O   0  0  0  0  0  0  0  0  0
    4.6454   -3.6790    0.0000 N   0  0  0  0  0  0  0  0  0
    4.9237   -2.9024    0.0000 C   0  0  0  0  0  0  0  0  0
    5.7044   -2.6357    0.0000 C   0  0  0  0  0  0  0  0  0
    6.3997   -3.0799    0.0000 C   0  0  0  0  0  0  0  0  0
    6.4859   -3.9004    0.0000 N   0  0  0  0  0  0  0  0  0
    5.8982   -4.4793    0.0000 C   0  0  0  0  0  0  0  0  0
    5.0791   -4.3808    0.0000 C   0  0  0  0  0  0  0  0  0
    7.2625   -4.1787    0.0000 C   0  0  0  0  0  0  0  0  0
    7.9442   -3.7139    0.0000 C   0  0  0  0  0  0  0  0  0
    8.5968   -4.2186    0.0000 C   0  0  0  0  0  0  0  0  0
    8.3185   -4.9952    0.0000 C   0  0  0  0  0  0  0  0  0
    7.4939   -4.9706    0.0000 C   0  0  0  0  0  0  0  0  0
    1.4985   -1.0033    0.0000 C   0  0  0  0  0  0  0  0  0
    0.7841   -0.5908    0.0000 C   0  0  0  0  0  0  0  0  0
  1  2  1  0  0  0  0
  2  3  4  0  0  0  0
  2 27  4  0  0  0  0
  3  4  4  0  0  0  0
  4  5  4  0  0  0  0
  5  6  1  0  0  0  0
  5 26  4  0  0  0  0
  6  7  1  0  0  0  0
  7  8  1  0  0  0  0
  7 11  1  0  0  0  0
  8  9  1  0  0  0  0
  9 10  1  0  0  0  0
  9 12  1  0  0  0  0
 10 11  1  0  0  0  0
 12 13  2  0  0  0  0
 12 14  1  0  0  0  0
 14 15  1  0  0  0  0
 14 20  1  0  0  0  0
 15 16  1  0  0  0  0
 16 17  1  0  0  0  0
 17 18  1  0  0  0  0
 18 19  1  0  0  0  0
 18 21  1  0  0  0  0
 19 20  1  0  0  0  0
 21 22  1  0  0  0  0
 21 25  1  0  0  0  0
 22 23  1  0  0  0  0
 23 24  1  0  0  0  0
 24 25  1  0  0  0  0
 26 27  4  0  0  0  0
M  END
>  <Name_Molregno>
627237

>  <HISTAMINE H3>
8.39

$$$$
627238
  Marvin  02231216192D 0   1.00000     0.00000     0

 28 31  0  0  1  0  0  0  0  0999 V2000
    2.0451    2.6828    0.0000 O   0  0  0  0  0  0  0  0  0
    2.0451    1.8578    0.0000 C   0  0  0  0  0  0  0  0  0
    2.7125    1.3729    0.0000 C   0  0  0  0  0  0  0  0  0
    2.4576    0.5883    0.0000 C   0  0  0  0  0  0  0  0  0
    1.6326    0.5883    0.0000 N   0  0  0  0  0  0  0  0  0
    1.3776    1.3729    0.0000 C   0  0  0  0  0  0  0  0  0
    2.9425   -0.0792    0.0000 C   0  0  0  0  0  0  0  0  0
    3.7630    0.0071    0.0000 O   0  0  0  0  0  0  0  0  0
    2.6069   -0.8328    0.0000 N   0  0  0  0  0  0  0  0  0
    3.1404   -1.4622    0.0000 C   0  0  0  0  0  0  0  0  0
    2.9809   -2.2716    0.0000 C   0  0  0  0  0  0  0  0  0
    2.2487   -2.6517    0.0000 C   0  0  0  0  0  0  0  0  0
    1.4950   -2.3161    0.0000 N   0  0  0  0  0  0  0  0  0
    1.2875   -1.5176    0.0000 C   0  0  0  0  0  0  0  0  0
    1.7823   -0.8575    0.0000 C   0  0  0  0  0  0  0  0  0
    0.8657   -2.8495    0.0000 C   0  0  0  0  0  0  0  0  0
    0.9273   -3.6722    0.0000 C   0  0  0  0  0  0  0  0  0
    0.1640   -3.9851    0.0000 C   0  0  0  0  0  0  0  0  0
   -0.3695   -3.3558    0.0000 C   0  0  0  0  0  0  0  0  0
    0.0642   -2.6540    0.0000 C   0  0  0  0  0  0  0  0  0
    2.7595    3.0953    0.0000 C   0  0  0  0  0  0  0  0  0
    2.7595    3.9203    0.0000 C   0  0  0  0  0  0  0  0  0
    3.4740    4.3328    0.0000 C   0  0  0  0  0  0  0  0  0
    4.1885    3.9203    0.0000 C   0  0  0  0  0  0  0  0  0
    4.1885    3.0953    0.0000 C   0  0  0  0  0  0  0  0  0
    3.4740    2.6828    0.0000 C   0  0  0  0  0  0  0  0  0
    4.9030    4.3328    0.0000 C   0  0  0  0  0  0  0  0  0
    5.6174    4.7453    0.0000 N   0  0  0  0  0  0  0  0  0
  1  2  1  0  0  0  0
  1 21  1  0  0  0  0
  2  3  1  0  0  0  0
  2  6  1  0  0  0  0
  3  4  1  0  0  0  0
  4  5  1  0  0  0  0
  4  7  1  0  0  0  0
  5  6  1  0  0  0  0
  7  8  2  0  0  0  0
  7  9  1  0  0  0  0
  9 10  1  0  0  0  0
  9 15  1  0  0  0  0
 10 11  1  0  0  0  0
 11 12  1  0  0  0  0
 12 13  1  0  0  0  0
 13 14  1  0  0  0  0
 13 16  1  0  0  0  0
 14 15  1  0  0  0  0
 16 17  1  0  0  0  0
 16 20  1  0  0  0  0
 17 18  1  0  0  0  0
 18 19  1  0  0  0  0
 19 20  1  0  0  0  0
 21 22  4  0  0  0  0
 21 26  4  0  0  0  0
 22 23  4  0  0  0  0
 23 24  4  0  0  0  0
 24 25  4  0  0  0  0
 24 27  1  0  0  0  0
 25 26  4  0  0  0  0
 27 28  3  0  0  0  0
M  END
>  <Name_Molregno>
627238

>  <HISTAMINE H3>
8.49

$$$$
627239
  Marvin  02231216192D 0   1.00000     0.00000     0

 26 29  0  0  1  0  0  0  0  0999 V2000
    0.1661    1.2666    0.0000 O   0  0  0  0  0  0  0  0  0
    0.7954    0.7331    0.0000 C   0  0  0  0  0  0  0  0  0
    1.5969    0.9287    0.0000 C   0  0  0  0  0  0  0  0  0
    2.0306    0.2269    0.0000 C   0  0  0  0  0  0  0  0  0
    1.4972   -0.4024    0.0000 N   0  0  0  0  0  0  0  0  0
    0.7338   -0.0896    0.0000 C   0  0  0  0  0  0  0  0  0
    2.8533    0.1652    0.0000 C   0  0  0  0  0  0  0  0  0
    3.3180    0.8469    0.0000 O   0  0  0  0  0  0  0  0  0
    3.2113   -0.5781    0.0000 N   0  0  0  0  0  0  0  0  0
    4.0363   -0.5781    0.0000 C   0  0  0  0  0  0  0  0  0
    4.5506   -1.2231    0.0000 C   0  0  0  0  0  0  0  0  0
    4.3671   -2.0274    0.0000 C   0  0  0  0  0  0  0  0  0
    3.6238   -2.3853    0.0000 N   0  0  0  0  0  0  0  0  0
    2.8805   -2.0274    0.0000 C   0  0  0  0  0  0  0  0  0
    2.6969   -1.2231    0.0000 C   0  0  0  0  0  0  0  0  0
    3.6238   -3.2103    0.0000 C   0  0  0  0  0  0  0  0  0
    4.0363   -3.9248    0.0000 C   0  0  0  0  0  0  0  0  0
    3.2113   -3.9248    0.0000 C   0  0  0  0  0  0  0  0  0
    0.3134    2.0783    0.0000 C   0  0  0  0  0  0  0  0  0
   -0.3159    2.6117    0.0000 C   0  0  0  0  0  0  0  0  0
   -0.1686    3.4235    0.0000 C   0  0  0  0  0  0  0  0  0
    0.6080    3.7018    0.0000 C   0  0  0  0  0  0  0  0  0
    1.2374    3.1683    0.0000 C   0  0  0  0  0  0  0  0  0
    1.0901    2.3566    0.0000 C   0  0  0  0  0  0  0  0  0
    0.7553    4.5135    0.0000 C   0  0  0  0  0  0  0  0  0
    0.9027    5.3253    0.0000 N   0  0  0  0  0  0  0  0  0
  1  2  1  0  0  0  0
  1 19  1  0  0  0  0
  2  3  1  0  0  0  0
  2  6  1  0  0  0  0
  3  4  1  0  0  0  0
  4  5  1  0  0  0  0
  4  7  1  0  0  0  0
  5  6  1  0  0  0  0
  7  8  2  0  0  0  0
  7  9  1  0  0  0  0
  9 10  1  0  0  0  0
  9 15  1  0  0  0  0
 10 11  1  0  0  0  0
 11 12  1  0  0  0  0
 12 13  1  0  0  0  0
 13 14  1  0  0  0  0
 13 16  1  0  0  0  0
 14 15  1  0  0  0  0
 16 17  1  0  0  0  0
 16 18  1  0  0  0  0
 17 18  1  0  0  0  0
 19 20  4  0  0  0  0
 19 24  4  0  0  0  0
 20 21  4  0  0  0  0
 21 22  4  0  0  0  0
 22 23  4  0  0  0  0
 22 25  1  0  0  0  0
 23 24  4  0  0  0  0
 25 26  3  0  0  0  0
M  END
>  <Name_Molregno>
627239

>  <HISTAMINE H3>
7.64

$$$$
627259
  Marvin  02231216192D 0   1.00000     0.00000     0

 20 22  0  0  0  0  0  0  0  0999 V2000
   -6.4467   -2.9066    0.0000 N   0  0  0  0  0  0  0  0  0
   -6.7016   -2.1220    0.0000 C   0  0  0  0  0  0  0  0  0
   -6.0342   -1.6371    0.0000 C   0  0  0  0  0  0  0  0  0
   -5.3667   -2.1220    0.0000 N   0  0  0  0  0  0  0  0  0
   -5.6217   -2.9066    0.0000 C   0  0  0  0  0  0  0  0  0
   -6.0342   -0.8121    0.0000 C   0  0  0  0  0  0  0  0  0
   -5.3197   -0.3996    0.0000 C   0  0  0  0  0  0  0  0  0
   -5.3197    0.4254    0.0000 N   0  0  0  0  0  0  0  0  0
   -4.6052    0.8379    0.0000 C   0  0  0  0  0  0  0  0  0
   -4.6052    1.6629    0.0000 C   0  0  0  0  0  0  0  0  0
   -3.8908    2.0754    0.0000 C   0  0  0  0  0  0  0  0  0
   -3.1763    1.6629    0.0000 C   0  0  0  0  0  0  0  0  0
   -3.1763    0.8379    0.0000 C   0  0  0  0  0  0  0  0  0
   -3.8908    0.4254    0.0000 C   0  0  0  0  0  0  0  0  0
   -2.4618    2.0754    0.0000 C   0  0  0  0  0  0  0  0  0
   -2.4618    2.9004    0.0000 C   0  0  0  0  0  0  0  0  0
   -1.7474    3.3129    0.0000 C   0  0  0  0  0  0  0  0  0
   -1.0329    2.9004    0.0000 C   0  0  0  0  0  0  0  0  0
   -1.0329    2.0754    0.0000 C   0  0  0  0  0  0  0  0  0
   -1.7474    1.6629    0.0000 C   0  0  0  0  0  0  0  0  0
  1  2  4  0  0  0  0
  1  5  4  0  0  0  0
  2  3  4  0  0  0  0
  3  4  4  0  0  0  0
  3  6  1  0  0  0  0
  4  5  4  0  0  0  0
  6  7  1  0  0  0  0
  7  8  1  0  0  0  0
  8  9  1  0  0  0  0
  9 10  4  0  0  0  0
  9 14  4  0  0  0  0
 10 11  4  0  0  0  0
 11 12  4  0  0  0  0
 12 13  4  0  0  0  0
 12 15  1  0  0  0  0
 13 14  4  0  0  0  0
 15 16  1  0  0  0  0
 15 20  1  0  0  0  0
 16 17  1  0  0  0  0
 17 18  1  0  0  0  0
 18 19  1  0  0  0  0
 19 20  1  0  0  0  0
M  STY  1   1 DAT
M  SAL   1  1   1
M  SDT   1 MRV_IMPLICIT_H                                        
M  SDD   1     0.0000    0.0000    DR    ALL  0       0  
M  SED   1 IMPL_H1
M  END
>  <Name_Molregno>
627259

>  <HISTAMINE H3>
8.39

$$$$
627260
  Marvin  02231216192D 0   1.00000     0.00000     0

 18 19  0  0  0  0  0  0  0  0999 V2000
   -1.5728   -0.4149    0.0000 S   0  0  0  0  0  0  0  0  0
   -1.5728   -1.2399    0.0000 C   0  0  0  0  0  0  0  0  0
   -2.2872   -1.6524    0.0000 C   0  0  0  0  0  0  0  0  0
   -2.2872   -2.4774    0.0000 C   0  0  0  0  0  0  0  0  0
   -1.6198   -2.9624    0.0000 N   0  0  0  0  0  0  0  0  0
   -1.8747   -3.7470    0.0000 C   0  0  0  0  0  0  0  0  0
   -2.6997   -3.7470    0.0000 N   0  0  0  0  0  0  0  0  0
   -2.9547   -2.9624    0.0000 C   0  0  0  0  0  0  0  0  0
   -0.8583   -0.0024    0.0000 C   0  0  0  0  0  0  0  0  0
   -0.8583    0.8226    0.0000 C   0  0  0  0  0  0  0  0  0
   -0.1438    1.2351    0.0000 C   0  0  0  0  0  0  0  0  0
    0.5707    0.8226    0.0000 C   0  0  0  0  0  0  0  0  0
    0.5707   -0.0024    0.0000 C   0  0  0  0  0  0  0  0  0
   -0.1438   -0.4149    0.0000 C   0  0  0  0  0  0  0  0  0
    1.2851    1.2351    0.0000 C   0  0  0  0  0  0  0  0  0
    1.9996    1.6476    0.0000 C   0  0  0  0  0  0  0  0  0
    1.6976    0.5206    0.0000 C   0  0  0  0  0  0  0  0  0
    0.8726    1.9495    0.0000 C   0  0  0  0  0  0  0  0  0
  1  2  1  0  0  0  0
  1  9  1  0  0  0  0
  2  3  1  0  0  0  0
  3  4  1  0  0  0  0
  4  5  4  0  0  0  0
  4  8  4  0  0  0  0
  5  6  4  0  0  0  0
  6  7  4  0  0  0  0
  7  8  4  0  0  0  0
  9 10  4  0  0  0  0
  9 14  4  0  0  0  0
 10 11  4  0  0  0  0
 11 12  4  0  0  0  0
 12 13  4  0  0  0  0
 12 15  1  0  0  0  0
 13 14  4  0  0  0  0
 15 16  1  0  0  0  0
 15 17  1  0  0  0  0
 15 18  1  0  0  0  0
M  STY  1   1 DAT
M  SAL   1  1   7
M  SDT   1 MRV_IMPLICIT_H                                        
M  SDD   1     0.0000    0.0000    DR    ALL  0       0  
M  SED   1 IMPL_H1
M  END
>  <Name_Molregno>
627260

>  <HISTAMINE H1>
6

>  <HISTAMINE H2>
6

>  <HISTAMINE H3>
9.57

>  <HISTAMINE H4>
8.96

$$$$
627261
  Marvin  02231216192D 0   1.00000     0.00000     0

 18 19  0  0  0  0  0  0  0  0999 V2000
   -1.5728    0.8507    0.0000 S   0  0  0  0  0  0  0  0  0
   -1.5728    0.0257    0.0000 C   0  0  0  0  0  0  0  0  0
   -2.2872   -0.3868    0.0000 C   0  0  0  0  0  0  0  0  0
   -2.2872   -1.2118    0.0000 C   0  0  0  0  0  0  0  0  0
   -1.6198   -1.6968    0.0000 N   0  0  0  0  0  0  0  0  0
   -1.8747   -2.4814    0.0000 C   0  0  0  0  0  0  0  0  0
   -2.6997   -2.4814    0.0000 N   0  0  0  0  0  0  0  0  0
   -2.9547   -1.6968    0.0000 C   0  0  0  0  0  0  0  0  0
   -0.8583    1.2632    0.0000 C   0  0  0  0  0  0  0  0  0
   -0.8583    2.0882    0.0000 C   0  0  0  0  0  0  0  0  0
   -0.1438    2.5007    0.0000 C   0  0  0  0  0  0  0  0  0
    0.5707    2.0882    0.0000 C   0  0  0  0  0  0  0  0  0
    0.5707    1.2632    0.0000 C   0  0  0  0  0  0  0  0  0
   -0.1438    0.8507    0.0000 C   0  0  0  0  0  0  0  0  0
    1.2851    2.5007    0.0000 C   0  0  0  0  0  0  0  0  0
    1.9996    2.9132    0.0000 F   0  0  0  0  0  0  0  0  0
    1.6976    1.7862    0.0000 F   0  0  0  0  0  0  0  0  0
    0.8726    3.2151    0.0000 F   0  0  0  0  0  0  0  0  0
  1  2  1  0  0  0  0
  1  9  1  0  0  0  0
  2  3  1  0  0  0  0
  3  4  1  0  0  0  0
  4  5  4  0  0  0  0
  4  8  4  0  0  0  0
  5  6  4  0  0  0  0
  6  7  4  0  0  0  0
  7  8  4  0  0  0  0
  9 10  4  0  0  0  0
  9 14  4  0  0  0  0
 10 11  4  0  0  0  0
 11 12  4  0  0  0  0
 12 13  4  0  0  0  0
 12 15  1  0  0  0  0
 13 14  4  0  0  0  0
 15 16  1  0  0  0  0
 15 17  1  0  0  0  0
 15 18  1  0  0  0  0
M  STY  1   1 DAT
M  SAL   1  1   7
M  SDT   1 MRV_IMPLICIT_H                                        
M  SDD   1     0.0000    0.0000    DR    ALL  0       0  
M  SED   1 IMPL_H1
M  END
>  <Name_Molregno>
627261

>  <HISTAMINE H3>
8.96

$$$$
627262
  Marvin  02231216192D 0   1.00000     0.00000     0

 16 17  0  0  0  0  0  0  0  0999 V2000
   -0.9435    1.0898    0.0000 S   0  0  0  0  0  0  0  0  0
   -0.9435    0.2648    0.0000 C   0  0  0  0  0  0  0  0  0
   -1.6580   -0.1477    0.0000 C   0  0  0  0  0  0  0  0  0
   -1.6580   -0.9727    0.0000 C   0  0  0  0  0  0  0  0  0
   -0.9906   -1.4576    0.0000 N   0  0  0  0  0  0  0  0  0
   -1.2455   -2.2422    0.0000 C   0  0  0  0  0  0  0  0  0
   -2.0705   -2.2422    0.0000 N   0  0  0  0  0  0  0  0  0
   -2.3255   -1.4576    0.0000 C   0  0  0  0  0  0  0  0  0
   -0.2291    1.5023    0.0000 C   0  0  0  0  0  0  0  0  0
   -0.2291    2.3273    0.0000 C   0  0  0  0  0  0  0  0  0
    0.4854    2.7398    0.0000 C   0  0  0  0  0  0  0  0  0
    1.1999    2.3273    0.0000 C   0  0  0  0  0  0  0  0  0
    1.9143    2.7398    0.0000 O   0  0  0  0  0  0  0  0  0
    1.9143    3.5648    0.0000 C   0  0  0  0  0  0  0  0  0
    1.1999    1.5023    0.0000 C   0  0  0  0  0  0  0  0  0
    0.4854    1.0898    0.0000 C   0  0  0  0  0  0  0  0  0
  1  2  1  0  0  0  0
  1  9  1  0  0  0  0
  2  3  1  0  0  0  0
  3  4  1  0  0  0  0
  4  5  4  0  0  0  0
  4  8  4  0  0  0  0
  5  6  4  0  0  0  0
  6  7  4  0  0  0  0
  7  8  4  0  0  0  0
  9 10  4  0  0  0  0
  9 16  4  0  0  0  0
 10 11  4  0  0  0  0
 11 12  4  0  0  0  0
 12 13  1  0  0  0  0
 12 15  4  0  0  0  0
 13 14  1  0  0  0  0
 15 16  4  0  0  0  0
M  STY  1   1 DAT
M  SAL   1  1   7
M  SDT   1 MRV_IMPLICIT_H                                        
M  SDD   1     0.0000    0.0000    DR    ALL  0       0  
M  SED   1 IMPL_H1
M  END
>  <Name_Molregno>
627262

>  <HISTAMINE H3>
7.62

$$$$
627305
  Marvin  02231216192D 0   1.00000     0.00000     0

 27 30  0  0  1  0  0  0  0  0999 V2000
    6.5230    3.9529    0.0000 F   0  0  0  0  0  0  0  0  0
    6.3757    3.1412    0.0000 C   0  0  0  0  0  0  0  0  0
    7.0051    2.6077    0.0000 C   0  0  0  0  0  0  0  0  0
    6.8578    1.7960    0.0000 C   0  0  0  0  0  0  0  0  0
    6.0811    1.5177    0.0000 C   0  0  0  0  0  0  0  0  0
    5.9338    0.7060    0.0000 O   0  0  0  0  0  0  0  0  0
    5.1572    0.4277    0.0000 C   0  0  0  0  0  0  0  0  0
    4.9258   -0.3642    0.0000 C   0  0  0  0  0  0  0  0  0
    4.1012   -0.3889    0.0000 C   0  0  0  0  0  0  0  0  0
    3.8229    0.3877    0.0000 N   0  0  0  0  0  0  0  0  0
    4.4755    0.8924    0.0000 C   0  0  0  0  0  0  0  0  0
    3.0310    0.6191    0.0000 C   0  0  0  0  0  0  0  0  0
    3.6364   -1.0706    0.0000 C   0  0  0  0  0  0  0  0  0
    2.8137   -1.0089    0.0000 O   0  0  0  0  0  0  0  0  0
    3.9944   -1.8139    0.0000 N   0  0  0  0  0  0  0  0  0
    4.8194   -1.8139    0.0000 C   0  0  0  0  0  0  0  0  0
    5.3338   -2.4589    0.0000 C   0  0  0  0  0  0  0  0  0
    5.1502   -3.2632    0.0000 C   0  0  0  0  0  0  0  0  0
    4.4069   -3.6211    0.0000 N   0  0  0  0  0  0  0  0  0
    3.6636   -3.2632    0.0000 C   0  0  0  0  0  0  0  0  0
    3.4800   -2.4589    0.0000 C   0  0  0  0  0  0  0  0  0
    4.4069   -4.4461    0.0000 C   0  0  0  0  0  0  0  0  0
    4.9903   -5.0295    0.0000 C   0  0  0  0  0  0  0  0  0
    4.4069   -5.6129    0.0000 C   0  0  0  0  0  0  0  0  0
    3.8235   -5.0295    0.0000 C   0  0  0  0  0  0  0  0  0
    5.4518    2.0511    0.0000 C   0  0  0  0  0  0  0  0  0
    5.5991    2.8629    0.0000 C   0  0  0  0  0  0  0  0  0
  1  2  1  0  0  0  0
  2  3  4  0  0  0  0
  2 27  4  0  0  0  0
  3  4  4  0  0  0  0
  4  5  4  0  0  0  0
  5  6  1  0  0  0  0
  5 26  4  0  0  0  0
  6  7  1  0  0  0  0
  7  8  1  0  0  0  0
  7 11  1  0  0  0  0
  8  9  1  0  0  0  0
  9 10  1  0  0  0  0
  9 13  1  0  0  0  0
 10 11  1  0  0  0  0
 10 12  1  0  0  0  0
 13 14  2  0  0  0  0
 13 15  1  0  0  0  0
 15 16  1  0  0  0  0
 15 21  1  0  0  0  0
 16 17  1  0  0  0  0
 17 18  1  0  0  0  0
 18 19  1  0  0  0  0
 19 20  1  0  0  0  0
 19 22  1  0  0  0  0
 20 21  1  0  0  0  0
 22 23  1  0  0  0  0
 22 25  1  0  0  0  0
 23 24  1  0  0  0  0
 24 25  1  0  0  0  0
 26 27  4  0  0  0  0
M  END
>  <Name_Molregno>
627305

>  <HISTAMINE H3>
8.74

$$$$
627306
  Marvin  02231216192D 0   1.00000     0.00000     0

 29 32  0  0  1  0  0  0  0  0999 V2000
    6.5967    3.6566    0.0000 F   0  0  0  0  0  0  0  0  0
    6.4493    2.8449    0.0000 C   0  0  0  0  0  0  0  0  0
    7.0787    2.3114    0.0000 C   0  0  0  0  0  0  0  0  0
    6.9314    1.4997    0.0000 C   0  0  0  0  0  0  0  0  0
    6.1547    1.2214    0.0000 C   0  0  0  0  0  0  0  0  0
    6.0074    0.4097    0.0000 O   0  0  0  0  0  0  0  0  0
    5.2308    0.1314    0.0000 C   0  0  0  0  0  0  0  0  0
    4.9994   -0.6605    0.0000 C   0  0  0  0  0  0  0  0  0
    4.1748   -0.6852    0.0000 C   0  0  0  0  0  0  0  0  0
    3.8965    0.0914    0.0000 N   0  0  0  0  0  0  0  0  0
    4.5491    0.5961    0.0000 C   0  0  0  0  0  0  0  0  0
    3.1046    0.3228    0.0000 C   0  0  0  0  0  0  0  0  0
    2.9090    1.1243    0.0000 C   0  0  0  0  0  0  0  0  0
    2.5083   -0.2474    0.0000 C   0  0  0  0  0  0  0  0  0
    3.7100   -1.3669    0.0000 C   0  0  0  0  0  0  0  0  0
    2.8874   -1.3052    0.0000 O   0  0  0  0  0  0  0  0  0
    4.0680   -2.1102    0.0000 N   0  0  0  0  0  0  0  0  0
    4.8930   -2.1102    0.0000 C   0  0  0  0  0  0  0  0  0
    5.4074   -2.7552    0.0000 C   0  0  0  0  0  0  0  0  0
    5.2238   -3.5595    0.0000 C   0  0  0  0  0  0  0  0  0
    4.4805   -3.9175    0.0000 N   0  0  0  0  0  0  0  0  0
    3.7372   -3.5595    0.0000 C   0  0  0  0  0  0  0  0  0
    3.5536   -2.7552    0.0000 C   0  0  0  0  0  0  0  0  0
    4.4805   -4.7425    0.0000 C   0  0  0  0  0  0  0  0  0
    5.0639   -5.3258    0.0000 C   0  0  0  0  0  0  0  0  0
    4.4805   -5.9092    0.0000 C   0  0  0  0  0  0  0  0  0
    3.8971   -5.3258    0.0000 C   0  0  0  0  0  0  0  0  0
    5.5254    1.7548    0.0000 C   0  0  0  0  0  0  0  0  0
    5.6727    2.5666    0.0000 C   0  0  0  0  0  0  0  0  0
  1  2  1  0  0  0  0
  2  3  4  0  0  0  0
  2 29  4  0  0  0  0
  3  4  4  0  0  0  0
  4  5  4  0  0  0  0
  5  6  1  0  0  0  0
  5 28  4  0  0  0  0
  6  7  1  0  0  0  0
  7  8  1  0  0  0  0
  7 11  1  0  0  0  0
  8  9  1  0  0  0  0
  9 10  1  0  0  0  0
  9 15  1  0  0  0  0
 10 11  1  0  0  0  0
 10 12  1  0  0  0  0
 12 13  1  0  0  0  0
 12 14  1  0  0  0  0
 15 16  2  0  0  0  0
 15 17  1  0  0  0  0
 17 18  1  0  0  0  0
 17 23  1  0  0  0  0
 18 19  1  0  0  0  0
 19 20  1  0  0  0  0
 20 21  1  0  0  0  0
 21 22  1  0  0  0  0
 21 24  1  0  0  0  0
 22 23  1  0  0  0  0
 24 25  1  0  0  0  0
 24 27  1  0  0  0  0
 25 26  1  0  0  0  0
 26 27  1  0  0  0  0
 28 29  4  0  0  0  0
M  END
>  <Name_Molregno>
627306

>  <HISTAMINE H3>
7.92

$$$$
627307
  Marvin  02231216192D 0   1.00000     0.00000     0

 29 33  0  0  1  0  0  0  0  0999 V2000
   -0.2073    1.4986    0.0000 F   0  0  0  0  0  0  0  0  0
    0.6132    1.5848    0.0000 C   0  0  0  0  0  0  0  0  0
    0.9488    2.3385    0.0000 C   0  0  0  0  0  0  0  0  0
    1.7692    2.4247    0.0000 C   0  0  0  0  0  0  0  0  0
    2.2542    1.7573    0.0000 C   0  0  0  0  0  0  0  0  0
    3.0746    1.8435    0.0000 O   0  0  0  0  0  0  0  0  0
    3.5596    1.1761    0.0000 C   0  0  0  0  0  0  0  0  0
    4.3846    1.1761    0.0000 C   0  0  0  0  0  0  0  0  0
    4.6395    0.3914    0.0000 C   0  0  0  0  0  0  0  0  0
    3.9721   -0.0935    0.0000 N   0  0  0  0  0  0  0  0  0
    3.3046    0.3914    0.0000 C   0  0  0  0  0  0  0  0  0
    3.9721   -0.9185    0.0000 C   0  0  0  0  0  0  0  0  0
    4.3846   -1.6329    0.0000 C   0  0  0  0  0  0  0  0  0
    3.5596   -1.6329    0.0000 C   0  0  0  0  0  0  0  0  0
    5.4241    0.1365    0.0000 C   0  0  0  0  0  0  0  0  0
    5.5956   -0.6705    0.0000 O   0  0  0  0  0  0  0  0  0
    6.0372    0.6885    0.0000 N   0  0  0  0  0  0  0  0  0
    5.8059    1.4804    0.0000 C   0  0  0  0  0  0  0  0  0
    6.2807    2.1551    0.0000 C   0  0  0  0  0  0  0  0  0
    7.1043    2.2044    0.0000 C   0  0  0  0  0  0  0  0  0
    7.6563    1.5913    0.0000 N   0  0  0  0  0  0  0  0  0
    7.5212    0.7774    0.0000 C   0  0  0  0  0  0  0  0  0
    6.8006    0.3757    0.0000 C   0  0  0  0  0  0  0  0  0
    8.4482    1.8227    0.0000 C   0  0  0  0  0  0  0  0  0
    8.8446    2.5462    0.0000 C   0  0  0  0  0  0  0  0  0
    9.5681    2.1498    0.0000 C   0  0  0  0  0  0  0  0  0
    9.1717    1.4263    0.0000 C   0  0  0  0  0  0  0  0  0
    1.9186    1.0036    0.0000 C   0  0  0  0  0  0  0  0  0
    1.0981    0.9174    0.0000 C   0  0  0  0  0  0  0  0  0
  1  2  1  0  0  0  0
  2  3  4  0  0  0  0
  2 29  4  0  0  0  0
  3  4  4  0  0  0  0
  4  5  4  0  0  0  0
  5  6  1  0  0  0  0
  5 28  4  0  0  0  0
  6  7  1  0  0  0  0
  7  8  1  0  0  0  0
  7 11  1  0  0  0  0
  8  9  1  0  0  0  0
  9 10  1  0  0  0  0
  9 15  1  0  0  0  0
 10 11  1  0  0  0  0
 10 12  1  0  0  0  0
 12 13  1  0  0  0  0
 12 14  1  0  0  0  0
 13 14  1  0  0  0  0
 15 16  2  0  0  0  0
 15 17  1  0  0  0  0
 17 18  1  0  0  0  0
 17 23  1  0  0  0  0
 18 19  1  0  0  0  0
 19 20  1  0  0  0  0
 20 21  1  0  0  0  0
 21 22  1  0  0  0  0
 21 24  1  0  0  0  0
 22 23  1  0  0  0  0
 24 25  1  0  0  0  0
 24 27  1  0  0  0  0
 25 26  1  0  0  0  0
 26 27  1  0  0  0  0
 28 29  4  0  0  0  0
M  END
>  <Name_Molregno>
627307

>  <HISTAMINE H3>
7.58

$$$$
627308
  Marvin  02231216192D 0   1.00000     0.00000     0

 30 34  0  0  1  0  0  0  0  0999 V2000
   -0.2135    1.6692    0.0000 F   0  0  0  0  0  0  0  0  0
    0.6070    1.7554    0.0000 C   0  0  0  0  0  0  0  0  0
    0.9425    2.5091    0.0000 C   0  0  0  0  0  0  0  0  0
    1.7630    2.5953    0.0000 C   0  0  0  0  0  0  0  0  0
    2.2479    1.9279    0.0000 C   0  0  0  0  0  0  0  0  0
    3.0684    2.0141    0.0000 O   0  0  0  0  0  0  0  0  0
    3.5533    1.3467    0.0000 C   0  0  0  0  0  0  0  0  0
    4.3783    1.3467    0.0000 C   0  0  0  0  0  0  0  0  0
    4.6333    0.5621    0.0000 C   0  0  0  0  0  0  0  0  0
    3.9658    0.0771    0.0000 N   0  0  0  0  0  0  0  0  0
    3.2984    0.5621    0.0000 C   0  0  0  0  0  0  0  0  0
    3.9658   -0.7479    0.0000 C   0  0  0  0  0  0  0  0  0
    4.5492   -1.3312    0.0000 C   0  0  0  0  0  0  0  0  0
    3.9658   -1.9146    0.0000 C   0  0  0  0  0  0  0  0  0
    3.3825   -1.3312    0.0000 C   0  0  0  0  0  0  0  0  0
    5.4179    0.3071    0.0000 C   0  0  0  0  0  0  0  0  0
    5.5894   -0.4998    0.0000 O   0  0  0  0  0  0  0  0  0
    6.0310    0.8592    0.0000 N   0  0  0  0  0  0  0  0  0
    5.7996    1.6511    0.0000 C   0  0  0  0  0  0  0  0  0
    6.2745    2.3257    0.0000 C   0  0  0  0  0  0  0  0  0
    7.0980    2.3750    0.0000 C   0  0  0  0  0  0  0  0  0
    7.6501    1.7619    0.0000 N   0  0  0  0  0  0  0  0  0
    7.5149    0.9481    0.0000 C   0  0  0  0  0  0  0  0  0
    6.7944    0.5463    0.0000 C   0  0  0  0  0  0  0  0  0
    8.4420    1.9933    0.0000 C   0  0  0  0  0  0  0  0  0
    8.8383    2.7168    0.0000 C   0  0  0  0  0  0  0  0  0
    9.5619    2.3205    0.0000 C   0  0  0  0  0  0  0  0  0
    9.1655    1.5969    0.0000 C   0  0  0  0  0  0  0  0  0
    1.9124    1.1742    0.0000 C   0  0  0  0  0  0  0  0  0
    1.0919    1.0880    0.0000 C   0  0  0  0  0  0  0  0  0
  1  2  1  0  0  0  0
  2  3  4  0  0  0  0
  2 30  4  0  0  0  0
  3  4  4  0  0  0  0
  4  5  4  0  0  0  0
  5  6  1  0  0  0  0
  5 29  4  0  0  0  0
  6  7  1  0  0  0  0
  7  8  1  0  0  0  0
  7 11  1  0  0  0  0
  8  9  1  0  0  0  0
  9 10  1  0  0  0  0
  9 16  1  0  0  0  0
 10 11  1  0  0  0  0
 10 12  1  0  0  0  0
 12 13  1  0  0  0  0
 12 15  1  0  0  0  0
 13 14  1  0  0  0  0
 14 15  1  0  0  0  0
 16 17  2  0  0  0  0
 16 18  1  0  0  0  0
 18 19  1  0  0  0  0
 18 24  1  0  0  0  0
 19 20  1  0  0  0  0
 20 21  1  0  0  0  0
 21 22  1  0  0  0  0
 22 23  1  0  0  0  0
 22 25  1  0  0  0  0
 23 24  1  0  0  0  0
 25 26  1  0  0  0  0
 25 28  1  0  0  0  0
 26 27  1  0  0  0  0
 27 28  1  0  0  0  0
 29 30  4  0  0  0  0
M  END
>  <Name_Molregno>
627308

>  <HISTAMINE H3>
7.77

$$$$
627309
  Marvin  02231216192D 0   1.00000     0.00000     0

 29 32  0  0  1  0  0  0  0  0999 V2000
    6.5967    3.6566    0.0000 F   0  0  0  0  0  0  0  0  0
    6.4493    2.8449    0.0000 C   0  0  0  0  0  0  0  0  0
    7.0787    2.3114    0.0000 C   0  0  0  0  0  0  0  0  0
    6.9314    1.4997    0.0000 C   0  0  0  0  0  0  0  0  0
    6.1547    1.2214    0.0000 C   0  0  0  0  0  0  0  0  0
    6.0074    0.4097    0.0000 O   0  0  0  0  0  0  0  0  0
    5.2308    0.1314    0.0000 C   0  0  0  0  0  0  0  0  0
    4.9994   -0.6605    0.0000 C   0  0  0  0  0  0  0  0  0
    4.1748   -0.6852    0.0000 C   0  0  0  0  0  0  0  0  0
    3.8965    0.0914    0.0000 N   0  0  0  0  0  0  0  0  0
    4.5491    0.5961    0.0000 C   0  0  0  0  0  0  0  0  0
    3.1046    0.3228    0.0000 C   0  0  0  0  0  0  0  0  0
    2.9090    1.1243    0.0000 O   0  0  0  0  0  0  0  0  0
    2.5083   -0.2474    0.0000 C   0  0  0  0  0  0  0  0  0
    3.7100   -1.3669    0.0000 C   0  0  0  0  0  0  0  0  0
    2.8874   -1.3052    0.0000 O   0  0  0  0  0  0  0  0  0
    4.0680   -2.1102    0.0000 N   0  0  0  0  0  0  0  0  0
    4.8930   -2.1102    0.0000 C   0  0  0  0  0  0  0  0  0
    5.4074   -2.7552    0.0000 C   0  0  0  0  0  0  0  0  0
    5.2238   -3.5595    0.0000 C   0  0  0  0  0  0  0  0  0
    4.4805   -3.9175    0.0000 N   0  0  0  0  0  0  0  0  0
    3.7372   -3.5595    0.0000 C   0  0  0  0  0  0  0  0  0
    3.5536   -2.7552    0.0000 C   0  0  0  0  0  0  0  0  0
    4.4805   -4.7425    0.0000 C   0  0  0  0  0  0  0  0  0
    5.0639   -5.3258    0.0000 C   0  0  0  0  0  0  0  0  0
    4.4805   -5.9092    0.0000 C   0  0  0  0  0  0  0  0  0
    3.8971   -5.3258    0.0000 C   0  0  0  0  0  0  0  0  0
    5.5254    1.7548    0.0000 C   0  0  0  0  0  0  0  0  0
    5.6727    2.5666    0.0000 C   0  0  0  0  0  0  0  0  0
  1  2  1  0  0  0  0
  2  3  4  0  0  0  0
  2 29  4  0  0  0  0
  3  4  4  0  0  0  0
  4  5  4  0  0  0  0
  5  6  1  0  0  0  0
  5 28  4  0  0  0  0
  6  7  1  0  0  0  0
  7  8  1  0  0  0  0
  7 11  1  0  0  0  0
  8  9  1  0  0  0  0
  9 10  1  0  0  0  0
  9 15  1  0  0  0  0
 10 11  1  0  0  0  0
 10 12  1  0  0  0  0
 12 13  2  0  0  0  0
 12 14  1  0  0  0  0
 15 16  2  0  0  0  0
 15 17  1  0  0  0  0
 17 18  1  0  0  0  0
 17 23  1  0  0  0  0
 18 19  1  0  0  0  0
 19 20  1  0  0  0  0
 20 21  1  0  0  0  0
 21 22  1  0  0  0  0
 21 24  1  0  0  0  0
 22 23  1  0  0  0  0
 24 25  1  0  0  0  0
 24 27  1  0  0  0  0
 25 26  1  0  0  0  0
 26 27  1  0  0  0  0
 28 29  4  0  0  0  0
M  END
>  <Name_Molregno>
627309

>  <HISTAMINE H3>
8.82

$$$$
627370
  Marvin  02231216192D 0   1.00000     0.00000     0

 30 33  0  0  1  0  0  0  0  0999 V2000
   -0.7567    3.0155    0.0000 S   0  0  0  0  0  0  0  0  0
   -1.5486    3.2468    0.0000 O   0  0  0  0  0  0  0  0  0
   -0.9881    2.2236    0.0000 O   0  0  0  0  0  0  0  0  0
    0.0352    2.7841    0.0000 N   0  0  0  0  0  0  0  0  0
    0.6878    3.2888    0.0000 C   0  0  0  0  0  0  0  0  0
    1.3695    2.8241    0.0000 C   0  0  0  0  0  0  0  0  0
    2.1461    3.1024    0.0000 O   0  0  0  0  0  0  0  0  0
    2.2934    3.9141    0.0000 C   0  0  0  0  0  0  0  0  0
    1.6641    4.4475    0.0000 C   0  0  0  0  0  0  0  0  0
    1.8114    5.2593    0.0000 C   0  0  0  0  0  0  0  0  0
    2.5880    5.5376    0.0000 C   0  0  0  0  0  0  0  0  0
    2.7353    6.3493    0.0000 F   0  0  0  0  0  0  0  0  0
    3.2174    5.0041    0.0000 C   0  0  0  0  0  0  0  0  0
    3.0701    4.1924    0.0000 C   0  0  0  0  0  0  0  0  0
    1.1381    2.0322    0.0000 C   0  0  0  0  0  0  0  0  0
    0.3135    2.0075    0.0000 C   0  0  0  0  0  0  0  0  0
   -0.1513    1.3258    0.0000 C   0  0  0  0  0  0  0  0  0
   -0.9740    1.3875    0.0000 O   0  0  0  0  0  0  0  0  0
    0.2067    0.5825    0.0000 N   0  0  0  0  0  0  0  0  0
    1.0317    0.5825    0.0000 C   0  0  0  0  0  0  0  0  0
    1.5461   -0.0625    0.0000 C   0  0  0  0  0  0  0  0  0
    1.3625   -0.8668    0.0000 C   0  0  0  0  0  0  0  0  0
    0.6192   -1.2247    0.0000 N   0  0  0  0  0  0  0  0  0
   -0.1241   -0.8668    0.0000 C   0  0  0  0  0  0  0  0  0
   -0.3077   -0.0625    0.0000 C   0  0  0  0  0  0  0  0  0
    0.6192   -2.0497    0.0000 C   0  0  0  0  0  0  0  0  0
    1.2026   -2.6331    0.0000 C   0  0  0  0  0  0  0  0  0
    0.6192   -3.2165    0.0000 C   0  0  0  0  0  0  0  0  0
    0.0358   -2.6331    0.0000 C   0  0  0  0  0  0  0  0  0
   -0.5254    3.8074    0.0000 C   0  0  0  0  0  0  0  0  0
  1  2  2  0  0  0  0
  1  3  2  0  0  0  0
  1  4  1  0  0  0  0
  1 30  1  0  0  0  0
  4  5  1  0  0  0  0
  4 16  1  0  0  0  0
  5  6  1  0  0  0  0
  6  7  1  0  0  0  0
  6 15  1  0  0  0  0
  7  8  1  0  0  0  0
  8  9  4  0  0  0  0
  8 14  4  0  0  0  0
  9 10  4  0  0  0  0
 10 11  4  0  0  0  0
 11 12  1  0  0  0  0
 11 13  4  0  0  0  0
 13 14  4  0  0  0  0
 15 16  1  0  0  0  0
 16 17  1  0  0  0  0
 17 18  2  0  0  0  0
 17 19  1  0  0  0  0
 19 20  1  0  0  0  0
 19 25  1  0  0  0  0
 20 21  1  0  0  0  0
 21 22  1  0  0  0  0
 22 23  1  0  0  0  0
 23 24  1  0  0  0  0
 23 26  1  0  0  0  0
 24 25  1  0  0  0  0
 26 27  1  0  0  0  0
 26 29  1  0  0  0  0
 27 28  1  0  0  0  0
 28 29  1  0  0  0  0
M  END
>  <Name_Molregno>
627370

>  <HISTAMINE H3>
8.92

$$$$
627371
  Marvin  02231216192D 0   1.00000     0.00000     0

 25 27  0  0  1  0  0  0  0  0999 V2000
    7.1265    1.0262    0.0000 F   0  0  0  0  0  0  0  0  0
    6.4120    1.4387    0.0000 C   0  0  0  0  0  0  0  0  0
    5.6975    1.0262    0.0000 C   0  0  0  0  0  0  0  0  0
    4.9830    1.4387    0.0000 C   0  0  0  0  0  0  0  0  0
    4.2686    1.0262    0.0000 O   0  0  0  0  0  0  0  0  0
    4.2686    0.2012    0.0000 C   0  0  0  0  0  0  0  0  0
    3.6011   -0.2837    0.0000 C   0  0  0  0  0  0  0  0  0
    3.8561   -1.0684    0.0000 C   0  0  0  0  0  0  0  0  0
    4.6811   -1.0684    0.0000 N   0  0  0  0  0  0  0  0  0
    4.9360   -0.2837    0.0000 C   0  0  0  0  0  0  0  0  0
    5.1660   -1.7358    0.0000 C   0  0  0  0  0  0  0  0  0
    4.8304   -2.4895    0.0000 O   0  0  0  0  0  0  0  0  0
    5.9865   -1.6496    0.0000 C   0  0  0  0  0  0  0  0  0
    3.3712   -1.7358    0.0000 C   0  0  0  0  0  0  0  0  0
    3.7067   -2.4895    0.0000 O   0  0  0  0  0  0  0  0  0
    2.5507   -1.6496    0.0000 N   0  0  0  0  0  0  0  0  0
    2.1170   -2.3514    0.0000 C   0  0  0  0  0  0  0  0  0
    1.2979   -2.4499    0.0000 C   0  0  0  0  0  0  0  0  0
    0.7102   -1.8709    0.0000 C   0  0  0  0  0  0  0  0  0
    0.7964   -1.0504    0.0000 N   0  0  0  0  0  0  0  0  0
    1.4917   -0.6063    0.0000 C   0  0  0  0  0  0  0  0  0
    2.2724   -0.8729    0.0000 C   0  0  0  0  0  0  0  0  0
    4.9830    2.2637    0.0000 C   0  0  0  0  0  0  0  0  0
    5.6975    2.6762    0.0000 C   0  0  0  0  0  0  0  0  0
    6.4120    2.2637    0.0000 C   0  0  0  0  0  0  0  0  0
  1  2  1  0  0  0  0
  2  3  4  0  0  0  0
  2 25  4  0  0  0  0
  3  4  4  0  0  0  0
  4  5  1  0  0  0  0
  4 23  4  0  0  0  0
  5  6  1  0  0  0  0
  6  7  1  0  0  0  0
  6 10  1  0  0  0  0
  7  8  1  0  0  0  0
  8  9  1  0  0  0  0
  8 14  1  0  0  0  0
  9 10  1  0  0  0  0
  9 11  1  0  0  0  0
 11 12  2  0  0  0  0
 11 13  1  0  0  0  0
 14 15  2  0  0  0  0
 14 16  1  0  0  0  0
 16 17  1  0  0  0  0
 16 22  1  0  0  0  0
 17 18  1  0  0  0  0
 18 19  1  0  0  0  0
 19 20  1  0  0  0  0
 20 21  1  0  0  0  0
 21 22  1  0  0  0  0
 23 24  4  0  0  0  0
 24 25  4  0  0  0  0
M  END
>  <Name_Molregno>
627371

>  <HISTAMINE H3>
5.71

$$$$
627372
  Marvin  02231216192D 0   1.00000     0.00000     0

 26 28  0  0  1  0  0  0  0  0999 V2000
    2.3243    3.5985    0.0000 F   0  0  0  0  0  0  0  0  0
    2.3243    2.7735    0.0000 C   0  0  0  0  0  0  0  0  0
    3.0388    2.3610    0.0000 C   0  0  0  0  0  0  0  0  0
    3.0388    1.5360    0.0000 C   0  0  0  0  0  0  0  0  0
    3.7532    1.1235    0.0000 O   0  0  0  0  0  0  0  0  0
    3.7532    0.2985    0.0000 C   0  0  0  0  0  0  0  0  0
    4.4207   -0.1864    0.0000 C   0  0  0  0  0  0  0  0  0
    4.1657   -0.9710    0.0000 C   0  0  0  0  0  0  0  0  0
    3.3407   -0.9710    0.0000 N   0  0  0  0  0  0  0  0  0
    3.0858   -0.1864    0.0000 C   0  0  0  0  0  0  0  0  0
    2.8558   -1.6385    0.0000 C   0  0  0  0  0  0  0  0  0
    2.0353   -1.5522    0.0000 O   0  0  0  0  0  0  0  0  0
    3.1914   -2.3922    0.0000 C   0  0  0  0  0  0  0  0  0
    4.6507   -1.6385    0.0000 C   0  0  0  0  0  0  0  0  0
    4.3151   -2.3922    0.0000 O   0  0  0  0  0  0  0  0  0
    5.4711   -1.5522    0.0000 N   0  0  0  0  0  0  0  0  0
    5.7494   -0.7756    0.0000 C   0  0  0  0  0  0  0  0  0
    6.5302   -0.5090    0.0000 C   0  0  0  0  0  0  0  0  0
    7.2254   -0.9531    0.0000 C   0  0  0  0  0  0  0  0  0
    7.3116   -1.7736    0.0000 N   0  0  0  0  0  0  0  0  0
    6.7239   -2.3526    0.0000 C   0  0  0  0  0  0  0  0  0
    5.9048   -2.2541    0.0000 C   0  0  0  0  0  0  0  0  0
    8.0883   -2.0519    0.0000 C   0  0  0  0  0  0  0  0  0
    2.3243    1.1235    0.0000 C   0  0  0  0  0  0  0  0  0
    1.6098    1.5360    0.0000 C   0  0  0  0  0  0  0  0  0
    1.6098    2.3610    0.0000 C   0  0  0  0  0  0  0  0  0
  1  2  1  0  0  0  0
  2  3  4  0  0  0  0
  2 26  4  0  0  0  0
  3  4  4  0  0  0  0
  4  5  1  0  0  0  0
  4 24  4  0  0  0  0
  5  6  1  0  0  0  0
  6  7  1  0  0  0  0
  6 10  1  0  0  0  0
  7  8  1  0  0  0  0
  8  9  1  0  0  0  0
  8 14  1  0  0  0  0
  9 10  1  0  0  0  0
  9 11  1  0  0  0  0
 11 12  2  0  0  0  0
 11 13  1  0  0  0  0
 14 15  2  0  0  0  0
 14 16  1  0  0  0  0
 16 17  1  0  0  0  0
 16 22  1  0  0  0  0
 17 18  1  0  0  0  0
 18 19  1  0  0  0  0
 19 20  1  0  0  0  0
 20 21  1  0  0  0  0
 20 23  1  0  0  0  0
 21 22  1  0  0  0  0
 24 25  4  0  0  0  0
 25 26  4  0  0  0  0
M  END
>  <Name_Molregno>
627372

>  <HISTAMINE H3>
6.34

$$$$
627373
  Marvin  02231216192D 0   1.00000     0.00000     0

 28 30  0  0  1  0  0  0  0  0999 V2000
   -6.6150    3.8529    0.0000 F   0  0  0  0  0  0  0  0  0
   -6.6150    3.0279    0.0000 C   0  0  0  0  0  0  0  0  0
   -5.9005    2.6154    0.0000 C   0  0  0  0  0  0  0  0  0
   -5.9005    1.7904    0.0000 C   0  0  0  0  0  0  0  0  0
   -5.1860    1.3779    0.0000 O   0  0  0  0  0  0  0  0  0
   -5.1860    0.5529    0.0000 C   0  0  0  0  0  0  0  0  0
   -4.5186    0.0679    0.0000 C   0  0  0  0  0  0  0  0  0
   -4.7735   -0.7167    0.0000 C   0  0  0  0  0  0  0  0  0
   -5.5985   -0.7167    0.0000 N   0  0  0  0  0  0  0  0  0
   -5.8535    0.0679    0.0000 C   0  0  0  0  0  0  0  0  0
   -6.0834   -1.3841    0.0000 C   0  0  0  0  0  0  0  0  0
   -6.9039   -1.2979    0.0000 O   0  0  0  0  0  0  0  0  0
   -5.7479   -2.1378    0.0000 C   0  0  0  0  0  0  0  0  0
   -4.2886   -1.3841    0.0000 C   0  0  0  0  0  0  0  0  0
   -4.6241   -2.1378    0.0000 O   0  0  0  0  0  0  0  0  0
   -3.4681   -1.2979    0.0000 N   0  0  0  0  0  0  0  0  0
   -3.1898   -0.5212    0.0000 C   0  0  0  0  0  0  0  0  0
   -2.4091   -0.2546    0.0000 C   0  0  0  0  0  0  0  0  0
   -1.7138   -0.6987    0.0000 C   0  0  0  0  0  0  0  0  0
   -1.6276   -1.5192    0.0000 N   0  0  0  0  0  0  0  0  0
   -2.2153   -2.0982    0.0000 C   0  0  0  0  0  0  0  0  0
   -3.0344   -1.9997    0.0000 C   0  0  0  0  0  0  0  0  0
   -0.8510   -1.7975    0.0000 C   0  0  0  0  0  0  0  0  0
   -0.2216   -1.2641    0.0000 C   0  0  0  0  0  0  0  0  0
   -0.7037   -2.6092    0.0000 C   0  0  0  0  0  0  0  0  0
   -6.6150    1.3779    0.0000 C   0  0  0  0  0  0  0  0  0
   -7.3294    1.7904    0.0000 C   0  0  0  0  0  0  0  0  0
   -7.3294    2.6154    0.0000 C   0  0  0  0  0  0  0  0  0
  1  2  1  0  0  0  0
  2  3  4  0  0  0  0
  2 28  4  0  0  0  0
  3  4  4  0  0  0  0
  4  5  1  0  0  0  0
  4 26  4  0  0  0  0
  5  6  1  0  0  0  0
  6  7  1  0  0  0  0
  6 10  1  0  0  0  0
  7  8  1  0  0  0  0
  8  9  1  0  0  0  0
  8 14  1  0  0  0  0
  9 10  1  0  0  0  0
  9 11  1  0  0  0  0
 11 12  2  0  0  0  0
 11 13  1  0  0  0  0
 14 15  2  0  0  0  0
 14 16  1  0  0  0  0
 16 17  1  0  0  0  0
 16 22  1  0  0  0  0
 17 18  1  0  0  0  0
 18 19  1  0  0  0  0
 19 20  1  0  0  0  0
 20 21  1  0  0  0  0
 20 23  1  0  0  0  0
 21 22  1  0  0  0  0
 23 24  1  0  0  0  0
 23 25  1  0  0  0  0
 26 27  4  0  0  0  0
 27 28  4  0  0  0  0
M  END
>  <Name_Molregno>
627373

>  <HISTAMINE H3>
7.29

$$$$
627374
  Marvin  02231216192D 0   1.00000     0.00000     0

 29 31  0  0  1  0  0  0  0  0999 V2000
   -6.8009    4.1881    0.0000 F   0  0  0  0  0  0  0  0  0
   -6.8009    3.3631    0.0000 C   0  0  0  0  0  0  0  0  0
   -6.0864    2.9506    0.0000 C   0  0  0  0  0  0  0  0  0
   -6.0864    2.1256    0.0000 C   0  0  0  0  0  0  0  0  0
   -5.3719    1.7131    0.0000 O   0  0  0  0  0  0  0  0  0
   -5.3719    0.8881    0.0000 C   0  0  0  0  0  0  0  0  0
   -4.7045    0.4031    0.0000 C   0  0  0  0  0  0  0  0  0
   -4.9594   -0.3815    0.0000 C   0  0  0  0  0  0  0  0  0
   -5.7844   -0.3815    0.0000 N   0  0  0  0  0  0  0  0  0
   -6.0394    0.4031    0.0000 C   0  0  0  0  0  0  0  0  0
   -6.2694   -1.0489    0.0000 C   0  0  0  0  0  0  0  0  0
   -7.0898   -0.9627    0.0000 O   0  0  0  0  0  0  0  0  0
   -5.9338   -1.8026    0.0000 C   0  0  0  0  0  0  0  0  0
   -4.4745   -1.0489    0.0000 C   0  0  0  0  0  0  0  0  0
   -4.8101   -1.8026    0.0000 O   0  0  0  0  0  0  0  0  0
   -3.6540   -0.9627    0.0000 N   0  0  0  0  0  0  0  0  0
   -3.3757   -0.1861    0.0000 C   0  0  0  0  0  0  0  0  0
   -2.5950    0.0806    0.0000 C   0  0  0  0  0  0  0  0  0
   -1.8998   -0.3635    0.0000 C   0  0  0  0  0  0  0  0  0
   -1.8135   -1.1840    0.0000 N   0  0  0  0  0  0  0  0  0
   -2.4012   -1.7630    0.0000 C   0  0  0  0  0  0  0  0  0
   -3.2203   -1.6645    0.0000 C   0  0  0  0  0  0  0  0  0
   -1.0369   -1.4623    0.0000 C   0  0  0  0  0  0  0  0  0
   -0.8896   -2.2741    0.0000 C   0  0  0  0  0  0  0  0  0
   -0.1129   -2.5524    0.0000 C   0  0  0  0  0  0  0  0  0
   -1.5189   -2.8075    0.0000 C   0  0  0  0  0  0  0  0  0
   -6.8009    1.7131    0.0000 C   0  0  0  0  0  0  0  0  0
   -7.5154    2.1256    0.0000 C   0  0  0  0  0  0  0  0  0
   -7.5154    2.9506    0.0000 C   0  0  0  0  0  0  0  0  0
  1  2  1  0  0  0  0
  2  3  4  0  0  0  0
  2 29  4  0  0  0  0
  3  4  4  0  0  0  0
  4  5  1  0  0  0  0
  4 27  4  0  0  0  0
  5  6  1  0  0  0  0
  6  7  1  0  0  0  0
  6 10  1  0  0  0  0
  7  8  1  0  0  0  0
  8  9  1  0  0  0  0
  8 14  1  0  0  0  0
  9 10  1  0  0  0  0
  9 11  1  0  0  0  0
 11 12  2  0  0  0  0
 11 13  1  0  0  0  0
 14 15  2  0  0  0  0
 14 16  1  0  0  0  0
 16 17  1  0  0  0  0
 16 22  1  0  0  0  0
 17 18  1  0  0  0  0
 18 19  1  0  0  0  0
 19 20  1  0  0  0  0
 20 21  1  0  0  0  0
 20 23  1  0  0  0  0
 21 22  1  0  0  0  0
 23 24  1  0  0  0  0
 24 25  1  0  0  0  0
 24 26  1  0  0  0  0
 27 28  4  0  0  0  0
 28 29  4  0  0  0  0
M  END
>  <Name_Molregno>
627374

>  <HISTAMINE H3>
7.89

$$$$
627435
  Marvin  02231216192D 0   1.00000     0.00000     0

 29 32  0  0  1  0  0  0  0  0999 V2000
   -1.5298    3.5747    0.0000 F   0  0  0  0  0  0  0  0  0
   -2.3064    3.2964    0.0000 C   0  0  0  0  0  0  0  0  0
   -2.4537    2.4847    0.0000 C   0  0  0  0  0  0  0  0  0
   -3.2304    2.2064    0.0000 C   0  0  0  0  0  0  0  0  0
   -3.3777    1.3946    0.0000 O   0  0  0  0  0  0  0  0  0
   -4.1543    1.1163    0.0000 C   0  0  0  0  0  0  0  0  0
   -4.3857    0.3244    0.0000 C   0  0  0  0  0  0  0  0  0
   -5.2103    0.2997    0.0000 C   0  0  0  0  0  0  0  0  0
   -5.4886    1.0764    0.0000 N   0  0  0  0  0  0  0  0  0
   -4.8360    1.5811    0.0000 C   0  0  0  0  0  0  0  0  0
   -6.2805    1.3077    0.0000 C   0  0  0  0  0  0  0  0  0
   -6.4761    2.1092    0.0000 O   0  0  0  0  0  0  0  0  0
   -6.8768    0.7376    0.0000 C   0  0  0  0  0  0  0  0  0
   -5.6750   -0.3819    0.0000 C   0  0  0  0  0  0  0  0  0
   -6.4977   -0.3203    0.0000 O   0  0  0  0  0  0  0  0  0
   -5.3171   -1.1252    0.0000 N   0  0  0  0  0  0  0  0  0
   -4.4921   -1.1252    0.0000 C   0  0  0  0  0  0  0  0  0
   -3.9777   -1.7702    0.0000 C   0  0  0  0  0  0  0  0  0
   -4.1613   -2.5745    0.0000 C   0  0  0  0  0  0  0  0  0
   -4.9046   -2.9325    0.0000 N   0  0  0  0  0  0  0  0  0
   -5.6479   -2.5745    0.0000 C   0  0  0  0  0  0  0  0  0
   -5.8315   -1.7702    0.0000 C   0  0  0  0  0  0  0  0  0
   -4.9046   -3.7575    0.0000 C   0  0  0  0  0  0  0  0  0
   -4.3212   -4.3408    0.0000 C   0  0  0  0  0  0  0  0  0
   -4.9046   -4.9242    0.0000 C   0  0  0  0  0  0  0  0  0
   -5.4879   -4.3408    0.0000 C   0  0  0  0  0  0  0  0  0
   -3.8597    2.7398    0.0000 C   0  0  0  0  0  0  0  0  0
   -3.7124    3.5515    0.0000 C   0  0  0  0  0  0  0  0  0
   -2.9357    3.8298    0.0000 C   0  0  0  0  0  0  0  0  0
  1  2  1  0  0  0  0
  2  3  4  0  0  0  0
  2 29  4  0  0  0  0
  3  4  4  0  0  0  0
  4  5  1  0  0  0  0
  4 27  4  0  0  0  0
  5  6  1  0  0  0  0
  6  7  1  0  0  0  0
  6 10  1  0  0  0  0
  7  8  1  0  0  0  0
  8  9  1  0  0  0  0
  8 14  1  0  0  0  0
  9 10  1  0  0  0  0
  9 11  1  0  0  0  0
 11 12  2  0  0  0  0
 11 13  1  0  0  0  0
 14 15  2  0  0  0  0
 14 16  1  0  0  0  0
 16 17  1  0  0  0  0
 16 22  1  0  0  0  0
 17 18  1  0  0  0  0
 18 19  1  0  0  0  0
 19 20  1  0  0  0  0
 20 21  1  0  0  0  0
 20 23  1  0  0  0  0
 21 22  1  0  0  0  0
 23 24  1  0  0  0  0
 23 26  1  0  0  0  0
 24 25  1  0  0  0  0
 25 26  1  0  0  0  0
 27 28  4  0  0  0  0
 28 29  4  0  0  0  0
M  END
>  <Name_Molregno>
627435

>  <HISTAMINE H3>
6.81

$$$$
627436
  Marvin  02231216192D 0   1.00000     0.00000     0

 31 34  0  0  1  0  0  0  0  0999 V2000
   -0.6046    0.9192    0.0000 F   0  0  0  0  0  0  0  0  0
   -1.3813    0.6409    0.0000 C   0  0  0  0  0  0  0  0  0
   -1.5286   -0.1708    0.0000 C   0  0  0  0  0  0  0  0  0
   -2.3052   -0.4491    0.0000 C   0  0  0  0  0  0  0  0  0
   -2.4525   -1.2609    0.0000 O   0  0  0  0  0  0  0  0  0
   -3.2292   -1.5392    0.0000 C   0  0  0  0  0  0  0  0  0
   -3.4605   -2.3310    0.0000 C   0  0  0  0  0  0  0  0  0
   -4.2852   -2.3557    0.0000 C   0  0  0  0  0  0  0  0  0
   -4.5634   -1.5791    0.0000 N   0  0  0  0  0  0  0  0  0
   -3.9108   -1.0744    0.0000 C   0  0  0  0  0  0  0  0  0
   -5.3553   -1.3477    0.0000 C   0  0  0  0  0  0  0  0  0
   -5.5509   -0.5463    0.0000 O   0  0  0  0  0  0  0  0  0
   -6.3428   -0.3149    0.0000 C   0  0  0  0  0  0  0  0  0
   -6.5384    0.4866    0.0000 C   0  0  0  0  0  0  0  0  0
   -5.9517   -1.9179    0.0000 O   0  0  0  0  0  0  0  0  0
   -4.7499   -3.0374    0.0000 C   0  0  0  0  0  0  0  0  0
   -5.5726   -2.9757    0.0000 O   0  0  0  0  0  0  0  0  0
   -4.3919   -3.7807    0.0000 N   0  0  0  0  0  0  0  0  0
   -3.5669   -3.7807    0.0000 C   0  0  0  0  0  0  0  0  0
   -3.0526   -4.4257    0.0000 C   0  0  0  0  0  0  0  0  0
   -3.2361   -5.2300    0.0000 C   0  0  0  0  0  0  0  0  0
   -3.9794   -5.5880    0.0000 N   0  0  0  0  0  0  0  0  0
   -4.7227   -5.2300    0.0000 C   0  0  0  0  0  0  0  0  0
   -4.9063   -4.4257    0.0000 C   0  0  0  0  0  0  0  0  0
   -3.9794   -6.4130    0.0000 C   0  0  0  0  0  0  0  0  0
   -3.3961   -6.9963    0.0000 C   0  0  0  0  0  0  0  0  0
   -3.9794   -7.5797    0.0000 C   0  0  0  0  0  0  0  0  0
   -4.5628   -6.9963    0.0000 C   0  0  0  0  0  0  0  0  0
   -2.9345    0.0843    0.0000 C   0  0  0  0  0  0  0  0  0
   -2.7872    0.8961    0.0000 C   0  0  0  0  0  0  0  0  0
   -2.0106    1.1744    0.0000 C   0  0  0  0  0  0  0  0  0
  1  2  1  0  0  0  0
  2  3  4  0  0  0  0
  2 31  4  0  0  0  0
  3  4  4  0  0  0  0
  4  5  1  0  0  0  0
  4 29  4  0  0  0  0
  5  6  1  0  0  0  0
  6  7  1  0  0  0  0
  6 10  1  0  0  0  0
  7  8  1  0  0  0  0
  8  9  1  0  0  0  0
  8 16  1  0  0  0  0
  9 10  1  0  0  0  0
  9 11  1  0  0  0  0
 11 12  1  0  0  0  0
 11 15  2  0  0  0  0
 12 13  1  0  0  0  0
 13 14  1  0  0  0  0
 16 17  2  0  0  0  0
 16 18  1  0  0  0  0
 18 19  1  0  0  0  0
 18 24  1  0  0  0  0
 19 20  1  0  0  0  0
 20 21  1  0  0  0  0
 21 22  1  0  0  0  0
 22 23  1  0  0  0  0
 22 25  1  0  0  0  0
 23 24  1  0  0  0  0
 25 26  1  0  0  0  0
 25 28  1  0  0  0  0
 26 27  1  0  0  0  0
 27 28  1  0  0  0  0
 29 30  4  0  0  0  0
 30 31  4  0  0  0  0
M  END
>  <Name_Molregno>
627436

>  <HISTAMINE H3>
7.8

$$$$
627437
  Marvin  02231216192D 0   1.00000     0.00000     0

 31 35  0  0  1  0  0  0  0  0999 V2000
    3.8885    3.1279    0.0000 F   0  0  0  0  0  0  0  0  0
    3.5529    2.3742    0.0000 C   0  0  0  0  0  0  0  0  0
    4.0379    1.7068    0.0000 C   0  0  0  0  0  0  0  0  0
    3.7023    0.9531    0.0000 C   0  0  0  0  0  0  0  0  0
    4.1872    0.2857    0.0000 O   0  0  0  0  0  0  0  0  0
    3.8517   -0.4680    0.0000 C   0  0  0  0  0  0  0  0  0
    4.2642   -1.1825    0.0000 C   0  0  0  0  0  0  0  0  0
    3.7121   -1.7956    0.0000 C   0  0  0  0  0  0  0  0  0
    2.9585   -1.4600    0.0000 N   0  0  0  0  0  0  0  0  0
    3.0447   -0.6395    0.0000 C   0  0  0  0  0  0  0  0  0
    2.2440   -1.8725    0.0000 C   0  0  0  0  0  0  0  0  0
    1.5295   -1.4600    0.0000 O   0  0  0  0  0  0  0  0  0
    2.2440   -2.6975    0.0000 C   0  0  0  0  0  0  0  0  0
    2.6565   -3.4120    0.0000 C   0  0  0  0  0  0  0  0  0
    1.8315   -3.4120    0.0000 C   0  0  0  0  0  0  0  0  0
    3.8837   -2.6026    0.0000 C   0  0  0  0  0  0  0  0  0
    3.2706   -3.1546    0.0000 O   0  0  0  0  0  0  0  0  0
    4.6683   -2.8575    0.0000 N   0  0  0  0  0  0  0  0  0
    5.2384   -2.2612    0.0000 C   0  0  0  0  0  0  0  0  0
    6.0601   -2.3351    0.0000 C   0  0  0  0  0  0  0  0  0
    6.5146   -3.0237    0.0000 C   0  0  0  0  0  0  0  0  0
    6.2596   -3.8083    0.0000 N   0  0  0  0  0  0  0  0  0
    5.4872   -4.0982    0.0000 C   0  0  0  0  0  0  0  0  0
    4.7790   -3.6750    0.0000 C   0  0  0  0  0  0  0  0  0
    6.8559   -4.3784    0.0000 C   0  0  0  0  0  0  0  0  0
    7.6807   -4.3599    0.0000 C   0  0  0  0  0  0  0  0  0
    7.6993   -5.1847    0.0000 C   0  0  0  0  0  0  0  0  0
    6.8745   -5.2032    0.0000 C   0  0  0  0  0  0  0  0  0
    2.8818    0.8669    0.0000 C   0  0  0  0  0  0  0  0  0
    2.3969    1.5343    0.0000 C   0  0  0  0  0  0  0  0  0
    2.7325    2.2880    0.0000 C   0  0  0  0  0  0  0  0  0
  1  2  1  0  0  0  0
  2  3  4  0  0  0  0
  2 31  4  0  0  0  0
  3  4  4  0  0  0  0
  4  5  1  0  0  0  0
  4 29  4  0  0  0  0
  5  6  1  0  0  0  0
  6  7  1  0  0  0  0
  6 10  1  0  0  0  0
  7  8  1  0  0  0  0
  8  9  1  0  0  0  0
  8 16  1  0  0  0  0
  9 10  1  0  0  0  0
  9 11  1  0  0  0  0
 11 12  2  0  0  0  0
 11 13  1  0  0  0  0
 13 14  1  0  0  0  0
 13 15  1  0  0  0  0
 14 15  1  0  0  0  0
 16 17  2  0  0  0  0
 16 18  1  0  0  0  0
 18 19  1  0  0  0  0
 18 24  1  0  0  0  0
 19 20  1  0  0  0  0
 20 21  1  0  0  0  0
 21 22  1  0  0  0  0
 22 23  1  0  0  0  0
 22 25  1  0  0  0  0
 23 24  1  0  0  0  0
 25 26  1  0  0  0  0
 25 28  1  0  0  0  0
 26 27  1  0  0  0  0
 27 28  1  0  0  0  0
 29 30  4  0  0  0  0
 30 31  4  0  0  0  0
M  END
>  <Name_Molregno>
627437

>  <HISTAMINE H3>
8.12

$$$$
627438
  Marvin  02231216192D 0   1.00000     0.00000     0

 30 34  0  0  1  0  0  0  0  0999 V2000
    0.6648   -2.7277    0.0000 F   0  0  0  0  0  0  0  0  0
    1.4853   -2.6415    0.0000 C   0  0  0  0  0  0  0  0  0
    1.8209   -1.8878    0.0000 C   0  0  0  0  0  0  0  0  0
    2.6413   -1.8016    0.0000 C   0  0  0  0  0  0  0  0  0
    2.9769   -1.0479    0.0000 O   0  0  0  0  0  0  0  0  0
    3.7974   -0.9617    0.0000 C   0  0  0  0  0  0  0  0  0
    4.2099   -0.2472    0.0000 C   0  0  0  0  0  0  0  0  0
    5.0169   -0.4187    0.0000 C   0  0  0  0  0  0  0  0  0
    5.1031   -1.2392    0.0000 N   0  0  0  0  0  0  0  0  0
    4.3494   -1.5748    0.0000 C   0  0  0  0  0  0  0  0  0
    5.8176   -1.6517    0.0000 C   0  0  0  0  0  0  0  0  0
    5.8176   -2.4767    0.0000 C   0  0  0  0  0  0  0  0  0
    6.2301   -3.1912    0.0000 C   0  0  0  0  0  0  0  0  0
    5.4051   -3.1912    0.0000 C   0  0  0  0  0  0  0  0  0
    5.6300    0.1333    0.0000 C   0  0  0  0  0  0  0  0  0
    6.4146   -0.1217    0.0000 O   0  0  0  0  0  0  0  0  0
    5.4584    0.9403    0.0000 N   0  0  0  0  0  0  0  0  0
    4.6569    1.1358    0.0000 C   0  0  0  0  0  0  0  0  0
    4.3101    1.8844    0.0000 C   0  0  0  0  0  0  0  0  0
    4.6792    2.6223    0.0000 C   0  0  0  0  0  0  0  0  0
    5.4862    2.7938    0.0000 N   0  0  0  0  0  0  0  0  0
    6.1234    2.2698    0.0000 C   0  0  0  0  0  0  0  0  0
    6.1111    1.4449    0.0000 C   0  0  0  0  0  0  0  0  0
    5.6817    3.5953    0.0000 C   0  0  0  0  0  0  0  0  0
    5.2533    4.3003    0.0000 C   0  0  0  0  0  0  0  0  0
    5.9584    4.7288    0.0000 C   0  0  0  0  0  0  0  0  0
    6.3868    4.0237    0.0000 C   0  0  0  0  0  0  0  0  0
    3.1263   -2.4690    0.0000 C   0  0  0  0  0  0  0  0  0
    2.7907   -3.2227    0.0000 C   0  0  0  0  0  0  0  0  0
    1.9702   -3.3090    0.0000 C   0  0  0  0  0  0  0  0  0
  1  2  1  0  0  0  0
  2  3  4  0  0  0  0
  2 30  4  0  0  0  0
  3  4  4  0  0  0  0
  4  5  1  0  0  0  0
  4 28  4  0  0  0  0
  5  6  1  0  0  0  0
  6  7  1  0  0  0  0
  6 10  1  0  0  0  0
  7  8  1  0  0  0  0
  8  9  1  0  0  0  0
  8 15  1  0  0  0  0
  9 10  1  0  0  0  0
  9 11  1  0  0  0  0
 11 12  1  0  0  0  0
 12 13  1  0  0  0  0
 12 14  1  0  0  0  0
 13 14  1  0  0  0  0
 15 16  2  0  0  0  0
 15 17  1  0  0  0  0
 17 18  1  0  0  0  0
 17 23  1  0  0  0  0
 18 19  1  0  0  0  0
 19 20  1  0  0  0  0
 20 21  1  0  0  0  0
 21 22  1  0  0  0  0
 21 24  1  0  0  0  0
 22 23  1  0  0  0  0
 24 25  1  0  0  0  0
 24 27  1  0  0  0  0
 25 26  1  0  0  0  0
 26 27  1  0  0  0  0
 28 29  4  0  0  0  0
 29 30  4  0  0  0  0
M  END
>  <Name_Molregno>
627438

>  <HISTAMINE H3>
8.15

$$$$
627499
  Marvin  02231216192D 0   1.00000     0.00000     0

 30 33  0  0  1  0  0  0  0  0999 V2000
    2.2308    4.2094    0.0000 F   0  0  0  0  0  0  0  0  0
    2.2308    3.3844    0.0000 C   0  0  0  0  0  0  0  0  0
    2.9453    2.9719    0.0000 C   0  0  0  0  0  0  0  0  0
    2.9453    2.1469    0.0000 C   0  0  0  0  0  0  0  0  0
    3.6597    1.7344    0.0000 O   0  0  0  0  0  0  0  0  0
    3.6597    0.9094    0.0000 C   0  0  0  0  0  0  0  0  0
    4.3272    0.4245    0.0000 C   0  0  0  0  0  0  0  0  0
    4.0722   -0.3601    0.0000 C   0  0  0  0  0  0  0  0  0
    3.2472   -0.3601    0.0000 N   0  0  0  0  0  0  0  0  0
    2.9923    0.4245    0.0000 C   0  0  0  0  0  0  0  0  0
    2.7623   -1.0276    0.0000 C   0  0  0  0  0  0  0  0  0
    1.9418   -0.9414    0.0000 O   0  0  0  0  0  0  0  0  0
    3.0979   -1.7813    0.0000 C   0  0  0  0  0  0  0  0  0
    4.5572   -1.0276    0.0000 C   0  0  0  0  0  0  0  0  0
    4.2216   -1.7813    0.0000 O   0  0  0  0  0  0  0  0  0
    5.3777   -0.9414    0.0000 N   0  0  0  0  0  0  0  0  0
    5.6559   -0.1647    0.0000 C   0  0  0  0  0  0  0  0  0
    6.4367    0.1019    0.0000 C   0  0  0  0  0  0  0  0  0
    7.1319   -0.3422    0.0000 C   0  0  0  0  0  0  0  0  0
    7.2181   -1.1627    0.0000 N   0  0  0  0  0  0  0  0  0
    6.6304   -1.7417    0.0000 C   0  0  0  0  0  0  0  0  0
    5.8113   -1.6432    0.0000 C   0  0  0  0  0  0  0  0  0
    7.9948   -1.4410    0.0000 C   0  0  0  0  0  0  0  0  0
    8.6764   -0.9762    0.0000 C   0  0  0  0  0  0  0  0  0
    9.3291   -1.4809    0.0000 C   0  0  0  0  0  0  0  0  0
    9.0508   -2.2576    0.0000 C   0  0  0  0  0  0  0  0  0
    8.2261   -2.2329    0.0000 C   0  0  0  0  0  0  0  0  0
    2.2308    1.7344    0.0000 C   0  0  0  0  0  0  0  0  0
    1.5163    2.1469    0.0000 C   0  0  0  0  0  0  0  0  0
    1.5163    2.9719    0.0000 C   0  0  0  0  0  0  0  0  0
  1  2  1  0  0  0  0
  2  3  4  0  0  0  0
  2 30  4  0  0  0  0
  3  4  4  0  0  0  0
  4  5  1  0  0  0  0
  4 28  4  0  0  0  0
  5  6  1  0  0  0  0
  6  7  1  0  0  0  0
  6 10  1  0  0  0  0
  7  8  1  0  0  0  0
  8  9  1  0  0  0  0
  8 14  1  0  0  0  0
  9 10  1  0  0  0  0
  9 11  1  0  0  0  0
 11 12  2  0  0  0  0
 11 13  1  0  0  0  0
 14 15  2  0  0  0  0
 14 16  1  0  0  0  0
 16 17  1  0  0  0  0
 16 22  1  0  0  0  0
 17 18  1  0  0  0  0
 18 19  1  0  0  0  0
 19 20  1  0  0  0  0
 20 21  1  0  0  0  0
 20 23  1  0  0  0  0
 21 22  1  0  0  0  0
 23 24  1  0  0  0  0
 23 27  1  0  0  0  0
 24 25  1  0  0  0  0
 25 26  1  0  0  0  0
 26 27  1  0  0  0  0
 28 29  4  0  0  0  0
 29 30  4  0  0  0  0
M  END
>  <Name_Molregno>
627499

>  <HISTAMINE H3>
8.66

$$$$
627500
  Marvin  02231216192D 0   1.00000     0.00000     0

 31 34  0  0  1  0  0  0  0  0999 V2000
    2.2060    4.4364    0.0000 F   0  0  0  0  0  0  0  0  0
    2.2060    3.6114    0.0000 C   0  0  0  0  0  0  0  0  0
    2.9205    3.1989    0.0000 C   0  0  0  0  0  0  0  0  0
    2.9205    2.3739    0.0000 C   0  0  0  0  0  0  0  0  0
    3.6349    1.9614    0.0000 O   0  0  0  0  0  0  0  0  0
    3.6349    1.1364    0.0000 C   0  0  0  0  0  0  0  0  0
    4.3024    0.6515    0.0000 C   0  0  0  0  0  0  0  0  0
    4.0474   -0.1331    0.0000 C   0  0  0  0  0  0  0  0  0
    3.2224   -0.1331    0.0000 N   0  0  0  0  0  0  0  0  0
    2.9675    0.6515    0.0000 C   0  0  0  0  0  0  0  0  0
    2.7375   -0.8006    0.0000 C   0  0  0  0  0  0  0  0  0
    1.9170   -0.7143    0.0000 O   0  0  0  0  0  0  0  0  0
    3.0731   -1.5543    0.0000 C   0  0  0  0  0  0  0  0  0
    4.5324   -0.8006    0.0000 C   0  0  0  0  0  0  0  0  0
    4.1968   -1.5543    0.0000 O   0  0  0  0  0  0  0  0  0
    5.3528   -0.7143    0.0000 N   0  0  0  0  0  0  0  0  0
    5.6311    0.0623    0.0000 C   0  0  0  0  0  0  0  0  0
    6.4119    0.3289    0.0000 C   0  0  0  0  0  0  0  0  0
    7.1071   -0.1152    0.0000 C   0  0  0  0  0  0  0  0  0
    7.1933   -0.9357    0.0000 N   0  0  0  0  0  0  0  0  0
    6.6056   -1.5147    0.0000 C   0  0  0  0  0  0  0  0  0
    5.7865   -1.4162    0.0000 C   0  0  0  0  0  0  0  0  0
    7.9700   -1.2140    0.0000 C   0  0  0  0  0  0  0  0  0
    8.5993   -0.6805    0.0000 O   0  0  0  0  0  0  0  0  0
    9.3760   -0.9588    0.0000 C   0  0  0  0  0  0  0  0  0
    9.5233   -1.7706    0.0000 C   0  0  0  0  0  0  0  0  0
    8.8939   -2.3040    0.0000 C   0  0  0  0  0  0  0  0  0
    8.1173   -2.0257    0.0000 C   0  0  0  0  0  0  0  0  0
    2.2060    1.9614    0.0000 C   0  0  0  0  0  0  0  0  0
    1.4915    2.3739    0.0000 C   0  0  0  0  0  0  0  0  0
    1.4915    3.1989    0.0000 C   0  0  0  0  0  0  0  0  0
  1  2  1  0  0  0  0
  2  3  4  0  0  0  0
  2 31  4  0  0  0  0
  3  4  4  0  0  0  0
  4  5  1  0  0  0  0
  4 29  4  0  0  0  0
  5  6  1  0  0  0  0
  6  7  1  0  0  0  0
  6 10  1  0  0  0  0
  7  8  1  0  0  0  0
  8  9  1  0  0  0  0
  8 14  1  0  0  0  0
  9 10  1  0  0  0  0
  9 11  1  0  0  0  0
 11 12  2  0  0  0  0
 11 13  1  0  0  0  0
 14 15  2  0  0  0  0
 14 16  1  0  0  0  0
 16 17  1  0  0  0  0
 16 22  1  0  0  0  0
 17 18  1  0  0  0  0
 18 19  1  0  0  0  0
 19 20  1  0  0  0  0
 20 21  1  0  0  0  0
 20 23  1  0  0  0  0
 21 22  1  0  0  0  0
 23 24  1  0  0  0  0
 23 28  1  0  0  0  0
 24 25  1  0  0  0  0
 25 26  1  0  0  0  0
 26 27  1  0  0  0  0
 27 28  1  0  0  0  0
 29 30  4  0  0  0  0
 30 31  4  0  0  0  0
M  END
>  <Name_Molregno>
627500

>  <HISTAMINE H3>
7.16

$$$$
627501
  Marvin  02231216192D 0   1.00000     0.00000     0

 32 35  0  0  1  0  0  0  0  0999 V2000
   -5.3891    0.5970    0.0000 F   0  0  0  0  0  0  0  0  0
   -5.3891   -0.2280    0.0000 C   0  0  0  0  0  0  0  0  0
   -4.6746   -0.6405    0.0000 C   0  0  0  0  0  0  0  0  0
   -4.6746   -1.4655    0.0000 C   0  0  0  0  0  0  0  0  0
   -3.9601   -1.8780    0.0000 O   0  0  0  0  0  0  0  0  0
   -3.9601   -2.7030    0.0000 C   0  0  0  0  0  0  0  0  0
   -3.2927   -3.1879    0.0000 C   0  0  0  0  0  0  0  0  0
   -3.5476   -3.9726    0.0000 C   0  0  0  0  0  0  0  0  0
   -4.3726   -3.9726    0.0000 N   0  0  0  0  0  0  0  0  0
   -4.6276   -3.1879    0.0000 C   0  0  0  0  0  0  0  0  0
   -4.8575   -4.6400    0.0000 C   0  0  0  0  0  0  0  0  0
   -5.6780   -4.5538    0.0000 O   0  0  0  0  0  0  0  0  0
   -4.5220   -5.3937    0.0000 C   0  0  0  0  0  0  0  0  0
   -3.0627   -4.6400    0.0000 C   0  0  0  0  0  0  0  0  0
   -3.3983   -5.3937    0.0000 O   0  0  0  0  0  0  0  0  0
   -2.2422   -4.5538    0.0000 N   0  0  0  0  0  0  0  0  0
   -1.9639   -3.7771    0.0000 C   0  0  0  0  0  0  0  0  0
   -1.1832   -3.5105    0.0000 C   0  0  0  0  0  0  0  0  0
   -0.4880   -3.9546    0.0000 C   0  0  0  0  0  0  0  0  0
   -0.4017   -4.7751    0.0000 N   0  0  0  0  0  0  0  0  0
   -0.9894   -5.3541    0.0000 C   0  0  0  0  0  0  0  0  0
   -1.8085   -5.2556    0.0000 C   0  0  0  0  0  0  0  0  0
    0.3749   -5.0534    0.0000 C   0  0  0  0  0  0  0  0  0
    0.5222   -5.8651    0.0000 C   0  0  0  0  0  0  0  0  0
    1.2989   -6.1434    0.0000 C   0  0  0  0  0  0  0  0  0
    1.4462   -6.9552    0.0000 C   0  0  0  0  0  0  0  0  0
    0.8169   -7.4886    0.0000 C   0  0  0  0  0  0  0  0  0
    0.0402   -7.2103    0.0000 C   0  0  0  0  0  0  0  0  0
   -0.1071   -6.3986    0.0000 C   0  0  0  0  0  0  0  0  0
   -5.3891   -1.8780    0.0000 C   0  0  0  0  0  0  0  0  0
   -6.1035   -1.4655    0.0000 C   0  0  0  0  0  0  0  0  0
   -6.1035   -0.6405    0.0000 C   0  0  0  0  0  0  0  0  0
  1  2  1  0  0  0  0
  2  3  4  0  0  0  0
  2 32  4  0  0  0  0
  3  4  4  0  0  0  0
  4  5  1  0  0  0  0
  4 30  4  0  0  0  0
  5  6  1  0  0  0  0
  6  7  1  0  0  0  0
  6 10  1  0  0  0  0
  7  8  1  0  0  0  0
  8  9  1  0  0  0  0
  8 14  1  0  0  0  0
  9 10  1  0  0  0  0
  9 11  1  0  0  0  0
 11 12  2  0  0  0  0
 11 13  1  0  0  0  0
 14 15  2  0  0  0  0
 14 16  1  0  0  0  0
 16 17  1  0  0  0  0
 16 22  1  0  0  0  0
 17 18  1  0  0  0  0
 18 19  1  0  0  0  0
 19 20  1  0  0  0  0
 20 21  1  0  0  0  0
 20 23  1  0  0  0  0
 21 22  1  0  0  0  0
 23 24  1  0  0  0  0
 24 25  4  0  0  0  0
 24 29  4  0  0  0  0
 25 26  4  0  0  0  0
 26 27  4  0  0  0  0
 27 28  4  0  0  0  0
 28 29  4  0  0  0  0
 30 31  4  0  0  0  0
 31 32  4  0  0  0  0
M  END
>  <Name_Molregno>
627501

>  <HISTAMINE H3>
6.82

$$$$
627583
  Marvin  02231216192D 0   1.00000     0.00000     0

 30 33  0  0  1  0  0  0  0  0999 V2000
   -2.7685    5.3394    0.0000 S   0  0  0  0  0  0  0  0  0
   -3.3978    5.8728    0.0000 C   0  0  0  0  0  0  0  0  0
   -2.9158    4.5276    0.0000 C   0  0  0  0  0  0  0  0  0
   -2.2865    3.9942    0.0000 C   0  0  0  0  0  0  0  0  0
   -2.4338    3.1824    0.0000 C   0  0  0  0  0  0  0  0  0
   -3.2104    2.9042    0.0000 C   0  0  0  0  0  0  0  0  0
   -3.3577    2.0924    0.0000 O   0  0  0  0  0  0  0  0  0
   -4.1344    1.8141    0.0000 C   0  0  0  0  0  0  0  0  0
   -4.3657    1.0222    0.0000 C   0  0  0  0  0  0  0  0  0
   -5.1904    0.9975    0.0000 C   0  0  0  0  0  0  0  0  0
   -5.4687    1.7742    0.0000 N   0  0  0  0  0  0  0  0  0
   -4.8160    2.2789    0.0000 C   0  0  0  0  0  0  0  0  0
   -6.2606    2.0055    0.0000 C   0  0  0  0  0  0  0  0  0
   -6.4562    2.8070    0.0000 O   0  0  0  0  0  0  0  0  0
   -6.8569    1.4354    0.0000 C   0  0  0  0  0  0  0  0  0
   -5.6551    0.3159    0.0000 C   0  0  0  0  0  0  0  0  0
   -6.4778    0.3775    0.0000 O   0  0  0  0  0  0  0  0  0
   -5.2972   -0.4274    0.0000 N   0  0  0  0  0  0  0  0  0
   -4.4722   -0.4274    0.0000 C   0  0  0  0  0  0  0  0  0
   -3.9578   -1.0724    0.0000 C   0  0  0  0  0  0  0  0  0
   -4.1414   -1.8767    0.0000 C   0  0  0  0  0  0  0  0  0
   -4.8847   -2.2347    0.0000 N   0  0  0  0  0  0  0  0  0
   -5.6280   -1.8767    0.0000 C   0  0  0  0  0  0  0  0  0
   -5.8115   -1.0724    0.0000 C   0  0  0  0  0  0  0  0  0
   -4.8847   -3.0597    0.0000 C   0  0  0  0  0  0  0  0  0
   -4.3013   -3.6431    0.0000 C   0  0  0  0  0  0  0  0  0
   -4.8847   -4.2264    0.0000 C   0  0  0  0  0  0  0  0  0
   -5.4680   -3.6431    0.0000 C   0  0  0  0  0  0  0  0  0
   -3.8398    3.4376    0.0000 C   0  0  0  0  0  0  0  0  0
   -3.6925    4.2493    0.0000 C   0  0  0  0  0  0  0  0  0
  1  2  1  0  0  0  0
  1  3  1  0  0  0  0
  3  4  4  0  0  0  0
  3 30  4  0  0  0  0
  4  5  4  0  0  0  0
  5  6  4  0  0  0  0
  6  7  1  0  0  0  0
  6 29  4  0  0  0  0
  7  8  1  0  0  0  0
  8  9  1  0  0  0  0
  8 12  1  0  0  0  0
  9 10  1  0  0  0  0
 10 11  1  0  0  0  0
 10 16  1  0  0  0  0
 11 12  1  0  0  0  0
 11 13  1  0  0  0  0
 13 14  2  0  0  0  0
 13 15  1  0  0  0  0
 16 17  2  0  0  0  0
 16 18  1  0  0  0  0
 18 19  1  0  0  0  0
 18 24  1  0  0  0  0
 19 20  1  0  0  0  0
 20 21  1  0  0  0  0
 21 22  1  0  0  0  0
 22 23  1  0  0  0  0
 22 25  1  0  0  0  0
 23 24  1  0  0  0  0
 25 26  1  0  0  0  0
 25 28  1  0  0  0  0
 26 27  1  0  0  0  0
 27 28  1  0  0  0  0
 29 30  4  0  0  0  0
M  END
>  <Name_Molregno>
627583

>  <HISTAMINE H3>
7.3

$$$$
627765
  Marvin  02231216192D 0   1.00000     0.00000     0

 24 27  0  0  1  0  0  0  0  0999 V2000
   -1.7361    5.0912    0.0000 S   0  0  0  0  0  0  0  0  0
   -1.6254    4.2737    0.0000 C   0  0  0  0  0  0  0  0  0
   -2.3687    3.9157    0.0000 C   0  0  0  0  0  0  0  0  0
   -2.5160    3.1040    0.0000 O   0  0  0  0  0  0  0  0  0
   -3.2926    2.8257    0.0000 C   0  0  0  0  0  0  0  0  0
   -3.5240    2.0338    0.0000 C   0  0  0  0  0  0  0  0  0
   -4.3486    2.0091    0.0000 C   0  0  0  0  0  0  0  0  0
   -4.6269    2.7858    0.0000 N   0  0  0  0  0  0  0  0  0
   -3.9743    3.2904    0.0000 C   0  0  0  0  0  0  0  0  0
   -4.8134    1.3275    0.0000 C   0  0  0  0  0  0  0  0  0
   -5.6361    1.3891    0.0000 O   0  0  0  0  0  0  0  0  0
   -4.4554    0.5842    0.0000 N   0  0  0  0  0  0  0  0  0
   -3.6304    0.5842    0.0000 C   0  0  0  0  0  0  0  0  0
   -3.1160   -0.0608    0.0000 C   0  0  0  0  0  0  0  0  0
   -3.2996   -0.8651    0.0000 C   0  0  0  0  0  0  0  0  0
   -4.0429   -1.2231    0.0000 N   0  0  0  0  0  0  0  0  0
   -4.7862   -0.8651    0.0000 C   0  0  0  0  0  0  0  0  0
   -4.9698   -0.0608    0.0000 C   0  0  0  0  0  0  0  0  0
   -4.0429   -2.0481    0.0000 C   0  0  0  0  0  0  0  0  0
   -3.4595   -2.6315    0.0000 C   0  0  0  0  0  0  0  0  0
   -4.0429   -3.2148    0.0000 C   0  0  0  0  0  0  0  0  0
   -4.6263   -2.6315    0.0000 C   0  0  0  0  0  0  0  0  0
   -2.9388    4.5120    0.0000 C   0  0  0  0  0  0  0  0  0
   -2.5479    5.2385    0.0000 C   0  0  0  0  0  0  0  0  0
  1  2  4  0  0  0  0
  1 24  4  0  0  0  0
  2  3  4  0  0  0  0
  3  4  1  0  0  0  0
  3 23  4  0  0  0  0
  4  5  1  0  0  0  0
  5  6  1  0  0  0  0
  5  9  1  0  0  0  0
  6  7  1  0  0  0  0
  7  8  1  0  0  0  0
  7 10  1  0  0  0  0
  8  9  1  0  0  0  0
 10 11  2  0  0  0  0
 10 12  1  0  0  0  0
 12 13  1  0  0  0  0
 12 18  1  0  0  0  0
 13 14  1  0  0  0  0
 14 15  1  0  0  0  0
 15 16  1  0  0  0  0
 16 17  1  0  0  0  0
 16 19  1  0  0  0  0
 17 18  1  0  0  0  0
 19 20  1  0  0  0  0
 19 22  1  0  0  0  0
 20 21  1  0  0  0  0
 21 22  1  0  0  0  0
 23 24  4  0  0  0  0
M  END
>  <Name_Molregno>
627765

>  <HISTAMINE H3>
8.28

$$$$
627766
  Marvin  02231216192D 0   1.00000     0.00000     0

 25 28  0  0  1  0  0  0  0  0999 V2000
    0.4965    1.6818    0.0000 O   0  0  0  0  0  0  0  0  0
    1.1259    1.1483    0.0000 C   0  0  0  0  0  0  0  0  0
    1.9273    1.3439    0.0000 C   0  0  0  0  0  0  0  0  0
    2.3610    0.6421    0.0000 C   0  0  0  0  0  0  0  0  0
    1.8276    0.0128    0.0000 N   0  0  0  0  0  0  0  0  0
    1.0642    0.3256    0.0000 C   0  0  0  0  0  0  0  0  0
    3.1837    0.5804    0.0000 C   0  0  0  0  0  0  0  0  0
    3.6485    1.2621    0.0000 O   0  0  0  0  0  0  0  0  0
    3.5417   -0.1629    0.0000 N   0  0  0  0  0  0  0  0  0
    4.3667   -0.1629    0.0000 C   0  0  0  0  0  0  0  0  0
    4.8811   -0.8079    0.0000 C   0  0  0  0  0  0  0  0  0
    4.6975   -1.6122    0.0000 C   0  0  0  0  0  0  0  0  0
    3.9542   -1.9701    0.0000 N   0  0  0  0  0  0  0  0  0
    3.2109   -1.6122    0.0000 C   0  0  0  0  0  0  0  0  0
    3.0273   -0.8079    0.0000 C   0  0  0  0  0  0  0  0  0
    3.9542   -2.7951    0.0000 C   0  0  0  0  0  0  0  0  0
    4.5375   -3.3785    0.0000 C   0  0  0  0  0  0  0  0  0
    3.9542   -3.9619    0.0000 C   0  0  0  0  0  0  0  0  0
    3.3708   -3.3785    0.0000 C   0  0  0  0  0  0  0  0  0
    0.6438    2.4935    0.0000 C   0  0  0  0  0  0  0  0  0
    0.0145    3.0269    0.0000 N   0  0  0  0  0  0  0  0  0
    0.1618    3.8387    0.0000 C   0  0  0  0  0  0  0  0  0
    0.9385    4.1170    0.0000 C   0  0  0  0  0  0  0  0  0
    1.5678    3.5835    0.0000 C   0  0  0  0  0  0  0  0  0
    1.4205    2.7718    0.0000 C   0  0  0  0  0  0  0  0  0
  1  2  1  0  0  0  0
  1 20  1  0  0  0  0
  2  3  1  0  0  0  0
  2  6  1  0  0  0  0
  3  4  1  0  0  0  0
  4  5  1  0  0  0  0
  4  7  1  0  0  0  0
  5  6  1  0  0  0  0
  7  8  2  0  0  0  0
  7  9  1  0  0  0  0
  9 10  1  0  0  0  0
  9 15  1  0  0  0  0
 10 11  1  0  0  0  0
 11 12  1  0  0  0  0
 12 13  1  0  0  0  0
 13 14  1  0  0  0  0
 13 16  1  0  0  0  0
 14 15  1  0  0  0  0
 16 17  1  0  0  0  0
 16 19  1  0  0  0  0
 17 18  1  0  0  0  0
 18 19  1  0  0  0  0
 20 21  4  0  0  0  0
 20 25  4  0  0  0  0
 21 22  4  0  0  0  0
 22 23  4  0  0  0  0
 23 24  4  0  0  0  0
 24 25  4  0  0  0  0
M  END
>  <Name_Molregno>
627766

>  <HISTAMINE H3>
8.34

$$$$
627767
  Marvin  02231216192D 0   1.00000     0.00000     0

 25 28  0  0  1  0  0  0  0  0999 V2000
    0.4965    1.6818    0.0000 O   0  0  0  0  0  0  0  0  0
    1.1259    1.1483    0.0000 C   0  0  0  0  0  0  0  0  0
    1.9273    1.3439    0.0000 C   0  0  0  0  0  0  0  0  0
    2.3610    0.6421    0.0000 C   0  0  0  0  0  0  0  0  0
    1.8276    0.0128    0.0000 N   0  0  0  0  0  0  0  0  0
    1.0642    0.3256    0.0000 C   0  0  0  0  0  0  0  0  0
    3.1837    0.5804    0.0000 C   0  0  0  0  0  0  0  0  0
    3.6485    1.2621    0.0000 O   0  0  0  0  0  0  0  0  0
    3.5417   -0.1629    0.0000 N   0  0  0  0  0  0  0  0  0
    4.3667   -0.1629    0.0000 C   0  0  0  0  0  0  0  0  0
    4.8811   -0.8079    0.0000 C   0  0  0  0  0  0  0  0  0
    4.6975   -1.6122    0.0000 C   0  0  0  0  0  0  0  0  0
    3.9542   -1.9701    0.0000 N   0  0  0  0  0  0  0  0  0
    3.2109   -1.6122    0.0000 C   0  0  0  0  0  0  0  0  0
    3.0273   -0.8079    0.0000 C   0  0  0  0  0  0  0  0  0
    3.9542   -2.7951    0.0000 C   0  0  0  0  0  0  0  0  0
    4.5375   -3.3785    0.0000 C   0  0  0  0  0  0  0  0  0
    3.9542   -3.9619    0.0000 C   0  0  0  0  0  0  0  0  0
    3.3708   -3.3785    0.0000 C   0  0  0  0  0  0  0  0  0
    0.6438    2.4935    0.0000 C   0  0  0  0  0  0  0  0  0
    0.0145    3.0269    0.0000 C   0  0  0  0  0  0  0  0  0
    0.1618    3.8387    0.0000 C   0  0  0  0  0  0  0  0  0
    0.9385    4.1170    0.0000 C   0  0  0  0  0  0  0  0  0
    1.5678    3.5835    0.0000 N   0  0  0  0  0  0  0  0  0
    1.4205    2.7718    0.0000 C   0  0  0  0  0  0  0  0  0
  1  2  1  0  0  0  0
  1 20  1  0  0  0  0
  2  3  1  0  0  0  0
  2  6  1  0  0  0  0
  3  4  1  0  0  0  0
  4  5  1  0  0  0  0
  4  7  1  0  0  0  0
  5  6  1  0  0  0  0
  7  8  2  0  0  0  0
  7  9  1  0  0  0  0
  9 10  1  0  0  0  0
  9 15  1  0  0  0  0
 10 11  1  0  0  0  0
 11 12  1  0  0  0  0
 12 13  1  0  0  0  0
 13 14  1  0  0  0  0
 13 16  1  0  0  0  0
 14 15  1  0  0  0  0
 16 17  1  0  0  0  0
 16 19  1  0  0  0  0
 17 18  1  0  0  0  0
 18 19  1  0  0  0  0
 20 21  4  0  0  0  0
 20 25  4  0  0  0  0
 21 22  4  0  0  0  0
 22 23  4  0  0  0  0
 23 24  4  0  0  0  0
 24 25  4  0  0  0  0
M  END
>  <Name_Molregno>
627767

>  <HISTAMINE H3>
8.59

$$$$
627768
  Marvin  02231216192D 0   1.00000     0.00000     0

 27 30  0  0  1  0  0  0  0  0999 V2000
    4.3904    2.1396    0.0000 S   0  0  0  0  0  0  0  0  0
    4.7814    2.8661    0.0000 C   0  0  0  0  0  0  0  0  0
    5.5931    2.7188    0.0000 C   0  0  0  0  0  0  0  0  0
    5.7039    1.9013    0.0000 C   0  0  0  0  0  0  0  0  0
    4.9606    1.5433    0.0000 C   0  0  0  0  0  0  0  0  0
    4.8132    0.7316    0.0000 O   0  0  0  0  0  0  0  0  0
    4.0366    0.4533    0.0000 C   0  0  0  0  0  0  0  0  0
    3.8052   -0.3386    0.0000 C   0  0  0  0  0  0  0  0  0
    2.9806   -0.3633    0.0000 C   0  0  0  0  0  0  0  0  0
    2.7023    0.4133    0.0000 N   0  0  0  0  0  0  0  0  0
    3.3550    0.9180    0.0000 C   0  0  0  0  0  0  0  0  0
    1.9104    0.6447    0.0000 C   0  0  0  0  0  0  0  0  0
    1.7148    1.4462    0.0000 O   0  0  0  0  0  0  0  0  0
    1.3141    0.0746    0.0000 C   0  0  0  0  0  0  0  0  0
    2.5159   -1.0450    0.0000 C   0  0  0  0  0  0  0  0  0
    1.6932   -0.9833    0.0000 O   0  0  0  0  0  0  0  0  0
    2.8738   -1.7883    0.0000 N   0  0  0  0  0  0  0  0  0
    3.6988   -1.7883    0.0000 C   0  0  0  0  0  0  0  0  0
    4.2132   -2.4333    0.0000 C   0  0  0  0  0  0  0  0  0
    4.0296   -3.2376    0.0000 C   0  0  0  0  0  0  0  0  0
    3.2863   -3.5955    0.0000 N   0  0  0  0  0  0  0  0  0
    2.5430   -3.2376    0.0000 C   0  0  0  0  0  0  0  0  0
    2.3595   -2.4333    0.0000 C   0  0  0  0  0  0  0  0  0
    3.2863   -4.4205    0.0000 C   0  0  0  0  0  0  0  0  0
    3.8697   -5.0039    0.0000 C   0  0  0  0  0  0  0  0  0
    3.2863   -5.5873    0.0000 C   0  0  0  0  0  0  0  0  0
    2.7030   -5.0039    0.0000 C   0  0  0  0  0  0  0  0  0
  1  2  4  0  0  0  0
  1  5  4  0  0  0  0
  2  3  4  0  0  0  0
  3  4  4  0  0  0  0
  4  5  4  0  0  0  0
  5  6  1  0  0  0  0
  6  7  1  0  0  0  0
  7  8  1  0  0  0  0
  7 11  1  0  0  0  0
  8  9  1  0  0  0  0
  9 10  1  0  0  0  0
  9 15  1  0  0  0  0
 10 11  1  0  0  0  0
 10 12  1  0  0  0  0
 12 13  2  0  0  0  0
 12 14  1  0  0  0  0
 15 16  2  0  0  0  0
 15 17  1  0  0  0  0
 17 18  1  0  0  0  0
 17 23  1  0  0  0  0
 18 19  1  0  0  0  0
 19 20  1  0  0  0  0
 20 21  1  0  0  0  0
 21 22  1  0  0  0  0
 21 24  1  0  0  0  0
 22 23  1  0  0  0  0
 24 25  1  0  0  0  0
 24 27  1  0  0  0  0
 25 26  1  0  0  0  0
 26 27  1  0  0  0  0
M  END
>  <Name_Molregno>
627768

>  <HISTAMINE H3>
8.43

$$$$
627769
  Marvin  02231216192D 0   1.00000     0.00000     0

 27 30  0  0  1  0  0  0  0  0999 V2000
   -1.8277    4.7529    0.0000 S   0  0  0  0  0  0  0  0  0
   -1.7170    3.9354    0.0000 C   0  0  0  0  0  0  0  0  0
   -2.4603    3.5775    0.0000 C   0  0  0  0  0  0  0  0  0
   -2.6076    2.7657    0.0000 O   0  0  0  0  0  0  0  0  0
   -3.3843    2.4874    0.0000 C   0  0  0  0  0  0  0  0  0
   -3.6156    1.6955    0.0000 C   0  0  0  0  0  0  0  0  0
   -4.4402    1.6708    0.0000 C   0  0  0  0  0  0  0  0  0
   -4.7185    2.4475    0.0000 N   0  0  0  0  0  0  0  0  0
   -4.0659    2.9522    0.0000 C   0  0  0  0  0  0  0  0  0
   -5.5104    2.6788    0.0000 C   0  0  0  0  0  0  0  0  0
   -5.7060    3.4803    0.0000 O   0  0  0  0  0  0  0  0  0
   -6.1067    2.1087    0.0000 C   0  0  0  0  0  0  0  0  0
   -4.9050    0.9892    0.0000 C   0  0  0  0  0  0  0  0  0
   -5.7277    1.0508    0.0000 O   0  0  0  0  0  0  0  0  0
   -4.5470    0.2459    0.0000 N   0  0  0  0  0  0  0  0  0
   -3.7220    0.2459    0.0000 C   0  0  0  0  0  0  0  0  0
   -3.2076   -0.3991    0.0000 C   0  0  0  0  0  0  0  0  0
   -3.3912   -1.2034    0.0000 C   0  0  0  0  0  0  0  0  0
   -4.1345   -1.5614    0.0000 N   0  0  0  0  0  0  0  0  0
   -4.8778   -1.2034    0.0000 C   0  0  0  0  0  0  0  0  0
   -5.0614   -0.3991    0.0000 C   0  0  0  0  0  0  0  0  0
   -4.1345   -2.3864    0.0000 C   0  0  0  0  0  0  0  0  0
   -3.5512   -2.9698    0.0000 C   0  0  0  0  0  0  0  0  0
   -4.1345   -3.5531    0.0000 C   0  0  0  0  0  0  0  0  0
   -4.7179   -2.9698    0.0000 C   0  0  0  0  0  0  0  0  0
   -3.0304    4.1738    0.0000 C   0  0  0  0  0  0  0  0  0
   -2.6395    4.9002    0.0000 C   0  0  0  0  0  0  0  0  0
  1  2  4  0  0  0  0
  1 27  4  0  0  0  0
  2  3  4  0  0  0  0
  3  4  1  0  0  0  0
  3 26  4  0  0  0  0
  4  5  1  0  0  0  0
  5  6  1  0  0  0  0
  5  9  1  0  0  0  0
  6  7  1  0  0  0  0
  7  8  1  0  0  0  0
  7 13  1  0  0  0  0
  8  9  1  0  0  0  0
  8 10  1  0  0  0  0
 10 11  2  0  0  0  0
 10 12  1  0  0  0  0
 13 14  2  0  0  0  0
 13 15  1  0  0  0  0
 15 16  1  0  0  0  0
 15 21  1  0  0  0  0
 16 17  1  0  0  0  0
 17 18  1  0  0  0  0
 18 19  1  0  0  0  0
 19 20  1  0  0  0  0
 19 22  1  0  0  0  0
 20 21  1  0  0  0  0
 22 23  1  0  0  0  0
 22 25  1  0  0  0  0
 23 24  1  0  0  0  0
 24 25  1  0  0  0  0
 26 27  4  0  0  0  0
M  END
>  <Name_Molregno>
627769

>  <HISTAMINE H3>
8.57

$$$$
631496
  Marvin  02231216192D 0   1.00000     0.00000     0

 30 34  0  0  1  0  0  0  0  0999 V2000
   -4.7006   -0.4917    0.0000 S   0  0  0  0  0  0  0  0  0
   -3.9470   -0.8273    0.0000 C   0  0  0  0  0  0  0  0  0
   -3.2325   -0.4148    0.0000 C   0  0  0  0  0  0  0  0  0
   -2.5180   -0.8273    0.0000 N   0  0  0  0  0  0  0  0  0
   -1.8035   -0.4148    0.0000 C   0  0  0  0  0  0  0  0  0
   -1.8035    0.4102    0.0000 C   0  0  0  0  0  0  0  0  0
   -1.0891    0.8227    0.0000 C   0  0  0  0  0  0  0  0  0
   -0.3746    0.4102    0.0000 C   0  0  0  0  0  0  0  0  0
   -0.3746   -0.4148    0.0000 C   0  0  0  0  0  0  0  0  0
   -1.0891   -0.8273    0.0000 C   0  0  0  0  0  0  0  0  0
    0.3399    0.8227    0.0000 C   0  0  0  0  0  0  0  0  0
    1.0543    0.4102    0.0000 C   0  0  0  0  0  0  0  0  0
    1.7688    0.8227    0.0000 N   0  0  0  0  0  0  0  0  0
    1.8550    1.6432    0.0000 C   0  0  0  0  0  0  0  0  0
    2.6620    1.8147    0.0000 C   0  0  0  0  0  0  0  0  0
    3.0745    1.1003    0.0000 C   0  0  0  0  0  0  0  0  0
    2.5225    0.4872    0.0000 C   0  0  0  0  0  0  0  0  0
    2.6940   -0.3198    0.0000 C   0  0  0  0  0  0  0  0  0
   -2.5180    0.8227    0.0000 C   0  0  0  0  0  0  0  0  0
   -3.2325    0.4102    0.0000 C   0  0  0  0  0  0  0  0  0
   -4.0332   -1.6478    0.0000 C   0  0  0  0  0  0  0  0  0
   -4.8402   -1.8193    0.0000 N   0  0  0  0  0  0  0  0  0
   -5.2527   -1.1048    0.0000 C   0  0  0  0  0  0  0  0  0
   -6.0731   -1.0186    0.0000 N   0  0  0  0  0  0  0  0  0
   -6.5581   -1.6860    0.0000 C   0  0  0  0  0  0  0  0  0
   -7.3785   -1.5998    0.0000 C   0  0  0  0  0  0  0  0  0
   -7.7141   -0.8461    0.0000 O   0  0  0  0  0  0  0  0  0
   -7.2292   -0.1787    0.0000 C   0  0  0  0  0  0  0  0  0
   -6.4087   -0.2649    0.0000 C   0  0  0  0  0  0  0  0  0
   -3.4201   -2.1998    0.0000 C   0  0  0  0  0  0  0  0  0
  1  2  4  0  0  0  0
  1 23  4  0  0  0  0
  2  3  1  0  0  0  0
  2 21  4  0  0  0  0
  3  4  4  0  0  0  0
  3 20  4  0  0  0  0
  4  5  4  0  0  0  0
  5  6  4  0  0  0  0
  5 10  4  0  0  0  0
  6  7  4  0  0  0  0
  6 19  4  0  0  0  0
  7  8  4  0  0  0  0
  8  9  4  0  0  0  0
  8 11  1  0  0  0  0
  9 10  4  0  0  0  0
 11 12  1  0  0  0  0
 12 13  1  0  0  0  0
 13 14  1  0  0  0  0
 13 17  1  0  0  0  0
 14 15  1  0  0  0  0
 15 16  1  0  0  0  0
 16 17  1  0  0  0  0
 17 18  1  0  0  0  0
 19 20  4  0  0  0  0
 21 22  4  0  0  0  0
 21 30  1  0  0  0  0
 22 23  4  0  0  0  0
 23 24  1  0  0  0  0
 24 25  1  0  0  0  0
 24 29  1  0  0  0  0
 25 26  1  0  0  0  0
 26 27  1  0  0  0  0
 27 28  1  0  0  0  0
 28 29  1  0  0  0  0
M  END
>  <Name_Molregno>
631496

>  <HISTAMINE H3>
9.25

$$$$
631497
  Marvin  02231216192D 0   1.00000     0.00000     0

 30 34  0  0  1  0  0  0  0  0999 V2000
   -4.7006   -0.4917    0.0000 S   0  0  0  0  0  0  0  0  0
   -3.9470   -0.8273    0.0000 C   0  0  0  0  0  0  0  0  0
   -3.2325   -0.4148    0.0000 C   0  0  0  0  0  0  0  0  0
   -2.5180   -0.8273    0.0000 N   0  0  0  0  0  0  0  0  0
   -1.8035   -0.4148    0.0000 C   0  0  0  0  0  0  0  0  0
   -1.8035    0.4102    0.0000 C   0  0  0  0  0  0  0  0  0
   -1.0891    0.8227    0.0000 C   0  0  0  0  0  0  0  0  0
   -0.3746    0.4102    0.0000 C   0  0  0  0  0  0  0  0  0
   -0.3746   -0.4148    0.0000 C   0  0  0  0  0  0  0  0  0
   -1.0891   -0.8273    0.0000 C   0  0  0  0  0  0  0  0  0
    0.3399    0.8227    0.0000 C   0  0  0  0  0  0  0  0  0
    1.0543    0.4102    0.0000 C   0  0  0  0  0  0  0  0  0
    1.7688    0.8227    0.0000 N   0  0  0  0  0  0  0  0  0
    1.8550    1.6432    0.0000 C   0  0  0  0  0  0  0  0  0
    2.6620    1.8147    0.0000 C   0  0  0  0  0  0  0  0  0
    3.0745    1.1003    0.0000 C   0  0  0  0  0  0  0  0  0
    2.5225    0.4872    0.0000 C   0  0  0  0  0  0  0  0  0
    2.6940   -0.3198    0.0000 C   0  0  0  0  0  0  0  0  0
   -2.5180    0.8227    0.0000 C   0  0  0  0  0  0  0  0  0
   -3.2325    0.4102    0.0000 C   0  0  0  0  0  0  0  0  0
   -4.0332   -1.6478    0.0000 C   0  0  0  0  0  0  0  0  0
   -4.8402   -1.8193    0.0000 N   0  0  0  0  0  0  0  0  0
   -5.2527   -1.1048    0.0000 C   0  0  0  0  0  0  0  0  0
   -6.0731   -1.0186    0.0000 C   0  0  0  0  0  0  0  0  0
   -6.5581   -1.6860    0.0000 N   0  0  0  0  0  0  0  0  0
   -7.3785   -1.5998    0.0000 C   0  0  0  0  0  0  0  0  0
   -7.7141   -0.8461    0.0000 C   0  0  0  0  0  0  0  0  0
   -7.2292   -0.1787    0.0000 C   0  0  0  0  0  0  0  0  0
   -6.4087   -0.2649    0.0000 C   0  0  0  0  0  0  0  0  0
   -3.4201   -2.1998    0.0000 C   0  0  0  0  0  0  0  0  0
  1  2  4  0  0  0  0
  1 23  4  0  0  0  0
  2  3  1  0  0  0  0
  2 21  4  0  0  0  0
  3  4  4  0  0  0  0
  3 20  4  0  0  0  0
  4  5  4  0  0  0  0
  5  6  4  0  0  0  0
  5 10  4  0  0  0  0
  6  7  4  0  0  0  0
  6 19  4  0  0  0  0
  7  8  4  0  0  0  0
  8  9  4  0  0  0  0
  8 11  1  0  0  0  0
  9 10  4  0  0  0  0
 11 12  1  0  0  0  0
 12 13  1  0  0  0  0
 13 14  1  0  0  0  0
 13 17  1  0  0  0  0
 14 15  1  0  0  0  0
 15 16  1  0  0  0  0
 16 17  1  0  0  0  0
 17 18  1  0  0  0  0
 19 20  4  0  0  0  0
 21 22  4  0  0  0  0
 21 30  1  0  0  0  0
 22 23  4  0  0  0  0
 23 24  1  0  0  0  0
 24 25  4  0  0  0  0
 24 29  4  0  0  0  0
 25 26  4  0  0  0  0
 26 27  4  0  0  0  0
 27 28  4  0  0  0  0
 28 29  4  0  0  0  0
M  END
>  <Name_Molregno>
631497

>  <HISTAMINE H3>
9.47

$$$$
631498
  Marvin  02231216192D 0   1.00000     0.00000     0

 30 34  0  0  1  0  0  0  0  0999 V2000
   -4.7006   -0.4917    0.0000 S   0  0  0  0  0  0  0  0  0
   -3.9470   -0.8273    0.0000 C   0  0  0  0  0  0  0  0  0
   -3.2325   -0.4148    0.0000 C   0  0  0  0  0  0  0  0  0
   -2.5180   -0.8273    0.0000 N   0  0  0  0  0  0  0  0  0
   -1.8035   -0.4148    0.0000 C   0  0  0  0  0  0  0  0  0
   -1.8035    0.4102    0.0000 C   0  0  0  0  0  0  0  0  0
   -1.0891    0.8227    0.0000 C   0  0  0  0  0  0  0  0  0
   -0.3746    0.4102    0.0000 C   0  0  0  0  0  0  0  0  0
   -0.3746   -0.4148    0.0000 C   0  0  0  0  0  0  0  0  0
   -1.0891   -0.8273    0.0000 C   0  0  0  0  0  0  0  0  0
    0.3399    0.8227    0.0000 C   0  0  0  0  0  0  0  0  0
    1.0543    0.4102    0.0000 C   0  0  0  0  0  0  0  0  0
    1.7688    0.8227    0.0000 N   0  0  0  0  0  0  0  0  0
    1.8550    1.6432    0.0000 C   0  0  0  0  0  0  0  0  0
    2.6620    1.8147    0.0000 C   0  0  0  0  0  0  0  0  0
    3.0745    1.1003    0.0000 C   0  0  0  0  0  0  0  0  0
    2.5225    0.4872    0.0000 C   0  0  0  0  0  0  0  0  0
    2.6940   -0.3198    0.0000 C   0  0  0  0  0  0  0  0  0
   -2.5180    0.8227    0.0000 C   0  0  0  0  0  0  0  0  0
   -3.2325    0.4102    0.0000 C   0  0  0  0  0  0  0  0  0
   -4.0332   -1.6478    0.0000 C   0  0  0  0  0  0  0  0  0
   -4.8402   -1.8193    0.0000 N   0  0  0  0  0  0  0  0  0
   -5.2527   -1.1048    0.0000 C   0  0  0  0  0  0  0  0  0
   -6.0731   -1.0186    0.0000 C   0  0  0  0  0  0  0  0  0
   -6.5581   -1.6860    0.0000 C   0  0  0  0  0  0  0  0  0
   -7.3785   -1.5998    0.0000 C   0  0  0  0  0  0  0  0  0
   -7.7141   -0.8461    0.0000 C   0  0  0  0  0  0  0  0  0
   -7.2292   -0.1787    0.0000 N   0  0  0  0  0  0  0  0  0
   -6.4087   -0.2649    0.0000 C   0  0  0  0  0  0  0  0  0
   -3.4201   -2.1998    0.0000 C   0  0  0  0  0  0  0  0  0
  1  2  4  0  0  0  0
  1 23  4  0  0  0  0
  2  3  1  0  0  0  0
  2 21  4  0  0  0  0
  3  4  4  0  0  0  0
  3 20  4  0  0  0  0
  4  5  4  0  0  0  0
  5  6  4  0  0  0  0
  5 10  4  0  0  0  0
  6  7  4  0  0  0  0
  6 19  4  0  0  0  0
  7  8  4  0  0  0  0
  8  9  4  0  0  0  0
  8 11  1  0  0  0  0
  9 10  4  0  0  0  0
 11 12  1  0  0  0  0
 12 13  1  0  0  0  0
 13 14  1  0  0  0  0
 13 17  1  0  0  0  0
 14 15  1  0  0  0  0
 15 16  1  0  0  0  0
 16 17  1  0  0  0  0
 17 18  1  0  0  0  0
 19 20  4  0  0  0  0
 21 22  4  0  0  0  0
 21 30  1  0  0  0  0
 22 23  4  0  0  0  0
 23 24  1  0  0  0  0
 24 25  4  0  0  0  0
 24 29  4  0  0  0  0
 25 26  4  0  0  0  0
 26 27  4  0  0  0  0
 27 28  4  0  0  0  0
 28 29  4  0  0  0  0
M  END
>  <Name_Molregno>
631498

>  <HISTAMINE H3>
9.46

$$$$
631499
  Marvin  02231216192D 0   1.00000     0.00000     0

 32 36  0  0  1  0  0  0  0  0999 V2000
   -5.5089   -3.0454    0.0000 F   0  0  0  0  0  0  0  0  0
   -6.3294   -3.1316    0.0000 C   0  0  0  0  0  0  0  0  0
   -6.6650   -3.8853    0.0000 C   0  0  0  0  0  0  0  0  0
   -7.4855   -3.9715    0.0000 C   0  0  0  0  0  0  0  0  0
   -7.8210   -4.7252    0.0000 F   0  0  0  0  0  0  0  0  0
   -7.9704   -3.3041    0.0000 C   0  0  0  0  0  0  0  0  0
   -7.6348   -2.5504    0.0000 C   0  0  0  0  0  0  0  0  0
   -6.8143   -2.4642    0.0000 C   0  0  0  0  0  0  0  0  0
   -6.4788   -1.7105    0.0000 N   0  0  0  0  0  0  0  0  0
   -6.8913   -0.9960    0.0000 N   0  0  0  0  0  0  0  0  0
   -6.3393   -0.3829    0.0000 N   0  0  0  0  0  0  0  0  0
   -5.5856   -0.7185    0.0000 C   0  0  0  0  0  0  0  0  0
   -4.8711   -0.3060    0.0000 C   0  0  0  0  0  0  0  0  0
   -4.1566   -0.7185    0.0000 N   0  0  0  0  0  0  0  0  0
   -3.4422   -0.3060    0.0000 C   0  0  0  0  0  0  0  0  0
   -3.4422    0.5190    0.0000 C   0  0  0  0  0  0  0  0  0
   -2.7277    0.9315    0.0000 C   0  0  0  0  0  0  0  0  0
   -2.0132    0.5190    0.0000 C   0  0  0  0  0  0  0  0  0
   -2.0132   -0.3060    0.0000 C   0  0  0  0  0  0  0  0  0
   -2.7277   -0.7185    0.0000 C   0  0  0  0  0  0  0  0  0
   -1.2988    0.9315    0.0000 C   0  0  0  0  0  0  0  0  0
   -1.2988    1.7565    0.0000 C   0  0  0  0  0  0  0  0  0
   -0.5843    2.1690    0.0000 N   0  0  0  0  0  0  0  0  0
   -0.4980    2.9895    0.0000 C   0  0  0  0  0  0  0  0  0
    0.3089    3.1610    0.0000 C   0  0  0  0  0  0  0  0  0
    0.7214    2.4465    0.0000 C   0  0  0  0  0  0  0  0  0
    0.1694    1.8334    0.0000 C   0  0  0  0  0  0  0  0  0
    0.3409    1.0265    0.0000 C   0  0  0  0  0  0  0  0  0
   -4.1566    0.9315    0.0000 C   0  0  0  0  0  0  0  0  0
   -4.8711    0.5190    0.0000 C   0  0  0  0  0  0  0  0  0
   -5.6718   -1.5390    0.0000 C   0  0  0  0  0  0  0  0  0
   -5.0587   -2.0910    0.0000 C   0  0  0  0  0  0  0  0  0
  1  2  1  0  0  0  0
  2  3  4  0  0  0  0
  2  8  4  0  0  0  0
  3  4  4  0  0  0  0
  4  5  1  0  0  0  0
  4  6  4  0  0  0  0
  6  7  4  0  0  0  0
  7  8  4  0  0  0  0
  8  9  1  0  0  0  0
  9 10  4  0  0  0  0
  9 31  4  0  0  0  0
 10 11  4  0  0  0  0
 11 12  4  0  0  0  0
 12 13  1  0  0  0  0
 12 31  4  0  0  0  0
 13 14  4  0  0  0  0
 13 30  4  0  0  0  0
 14 15  4  0  0  0  0
 15 16  4  0  0  0  0
 15 20  4  0  0  0  0
 16 17  4  0  0  0  0
 16 29  4  0  0  0  0
 17 18  4  0  0  0  0
 18 19  4  0  0  0  0
 18 21  1  0  0  0  0
 19 20  4  0  0  0  0
 21 22  1  0  0  0  0
 22 23  1  0  0  0  0
 23 24  1  0  0  0  0
 23 27  1  0  0  0  0
 24 25  1  0  0  0  0
 25 26  1  0  0  0  0
 26 27  1  0  0  0  0
 27 28  1  0  0  0  0
 29 30  4  0  0  0  0
 31 32  1  0  0  0  0
M  END
>  <Name_Molregno>
631499

>  <HISTAMINE H3>
9.54

$$$$
631568
  Marvin  02231216192D 0   1.00000     0.00000     0

 31 35  0  0  1  0  0  0  0  0999 V2000
    1.9438   -5.0569    0.0000 Cl  0  0  0  0  0  0  0  0  0
    2.2793   -4.3032    0.0000 C   0  0  0  0  0  0  0  0  0
    1.7944   -3.6357    0.0000 C   0  0  0  0  0  0  0  0  0
    2.1300   -2.8821    0.0000 C   0  0  0  0  0  0  0  0  0
    2.9504   -2.7958    0.0000 C   0  0  0  0  0  0  0  0  0
    3.4354   -3.4633    0.0000 C   0  0  0  0  0  0  0  0  0
    3.0998   -4.2169    0.0000 C   0  0  0  0  0  0  0  0  0
    3.2860   -2.0422    0.0000 C   0  0  0  0  0  0  0  0  0
    2.8735   -1.3277    0.0000 N   0  0  0  0  0  0  0  0  0
    3.4255   -0.7146    0.0000 O   0  0  0  0  0  0  0  0  0
    4.1792   -1.0501    0.0000 C   0  0  0  0  0  0  0  0  0
    4.8937   -0.6376    0.0000 C   0  0  0  0  0  0  0  0  0
    5.6081   -1.0501    0.0000 N   0  0  0  0  0  0  0  0  0
    6.3226   -0.6376    0.0000 C   0  0  0  0  0  0  0  0  0
    6.3226    0.1874    0.0000 C   0  0  0  0  0  0  0  0  0
    7.0371    0.5999    0.0000 C   0  0  0  0  0  0  0  0  0
    7.7516    0.1874    0.0000 C   0  0  0  0  0  0  0  0  0
    7.7516   -0.6376    0.0000 C   0  0  0  0  0  0  0  0  0
    7.0371   -1.0501    0.0000 C   0  0  0  0  0  0  0  0  0
    8.4660    0.5999    0.0000 C   0  0  0  0  0  0  0  0  0
    8.4660    1.4249    0.0000 C   0  0  0  0  0  0  0  0  0
    9.1805    1.8374    0.0000 N   0  0  0  0  0  0  0  0  0
    9.2667    2.6578    0.0000 C   0  0  0  0  0  0  0  0  0
   10.0737    2.8294    0.0000 C   0  0  0  0  0  0  0  0  0
   10.4862    2.1149    0.0000 C   0  0  0  0  0  0  0  0  0
    9.9342    1.5018    0.0000 C   0  0  0  0  0  0  0  0  0
   10.1057    0.6948    0.0000 C   0  0  0  0  0  0  0  0  0
    5.6081    0.5999    0.0000 C   0  0  0  0  0  0  0  0  0
    4.8937    0.1874    0.0000 C   0  0  0  0  0  0  0  0  0
    4.0930   -1.8706    0.0000 C   0  0  0  0  0  0  0  0  0
    4.7061   -2.4227    0.0000 C   0  0  0  0  0  0  0  0  0
  1  2  1  0  0  0  0
  2  3  4  0  0  0  0
  2  7  4  0  0  0  0
  3  4  4  0  0  0  0
  4  5  4  0  0  0  0
  5  6  4  0  0  0  0
  5  8  1  0  0  0  0
  6  7  4  0  0  0  0
  8  9  4  0  0  0  0
  8 30  4  0  0  0  0
  9 10  4  0  0  0  0
 10 11  4  0  0  0  0
 11 12  1  0  0  0  0
 11 30  4  0  0  0  0
 12 13  4  0  0  0  0
 12 29  4  0  0  0  0
 13 14  4  0  0  0  0
 14 15  4  0  0  0  0
 14 19  4  0  0  0  0
 15 16  4  0  0  0  0
 15 28  4  0  0  0  0
 16 17  4  0  0  0  0
 17 18  4  0  0  0  0
 17 20  1  0  0  0  0
 18 19  4  0  0  0  0
 20 21  1  0  0  0  0
 21 22  1  0  0  0  0
 22 23  1  0  0  0  0
 22 26  1  0  0  0  0
 23 24  1  0  0  0  0
 24 25  1  0  0  0  0
 25 26  1  0  0  0  0
 26 27  1  0  0  0  0
 28 29  4  0  0  0  0
 30 31  1  0  0  0  0
M  END
>  <Name_Molregno>
631568

>  <HISTAMINE H3>
8.11

$$$$
631569
  Marvin  02231216192D 0   1.00000     0.00000     0

 31 35  0  0  1  0  0  0  0  0999 V2000
   -2.5110   -6.5668    0.0000 Cl  0  0  0  0  0  0  0  0  0
   -3.1241   -6.0147    0.0000 C   0  0  0  0  0  0  0  0  0
   -3.9087   -6.2697    0.0000 C   0  0  0  0  0  0  0  0  0
   -4.5218   -5.7176    0.0000 C   0  0  0  0  0  0  0  0  0
   -4.3503   -4.9107    0.0000 C   0  0  0  0  0  0  0  0  0
   -3.5656   -4.6557    0.0000 C   0  0  0  0  0  0  0  0  0
   -2.9525   -5.2078    0.0000 C   0  0  0  0  0  0  0  0  0
   -4.9633   -4.3586    0.0000 C   0  0  0  0  0  0  0  0  0
   -5.7703   -4.5302    0.0000 N   0  0  0  0  0  0  0  0  0
   -6.1828   -3.8157    0.0000 O   0  0  0  0  0  0  0  0  0
   -5.6308   -3.2026    0.0000 C   0  0  0  0  0  0  0  0  0
   -5.8023   -2.3956    0.0000 C   0  0  0  0  0  0  0  0  0
   -4.8771   -3.5381    0.0000 C   0  0  0  0  0  0  0  0  0
   -4.1626   -3.1256    0.0000 C   0  0  0  0  0  0  0  0  0
   -3.4482   -3.5381    0.0000 N   0  0  0  0  0  0  0  0  0
   -2.7337   -3.1256    0.0000 C   0  0  0  0  0  0  0  0  0
   -2.7337   -2.3006    0.0000 C   0  0  0  0  0  0  0  0  0
   -2.0192   -1.8881    0.0000 C   0  0  0  0  0  0  0  0  0
   -1.3048   -2.3006    0.0000 C   0  0  0  0  0  0  0  0  0
   -1.3048   -3.1256    0.0000 C   0  0  0  0  0  0  0  0  0
   -2.0192   -3.5381    0.0000 C   0  0  0  0  0  0  0  0  0
   -0.5903   -1.8881    0.0000 C   0  0  0  0  0  0  0  0  0
   -0.5903   -1.0631    0.0000 C   0  0  0  0  0  0  0  0  0
    0.1242   -0.6506    0.0000 N   0  0  0  0  0  0  0  0  0
    0.2104    0.1698    0.0000 C   0  0  0  0  0  0  0  0  0
    1.0174    0.3414    0.0000 C   0  0  0  0  0  0  0  0  0
    1.4299   -0.3731    0.0000 C   0  0  0  0  0  0  0  0  0
    0.8779   -0.9862    0.0000 C   0  0  0  0  0  0  0  0  0
    1.0494   -1.7932    0.0000 C   0  0  0  0  0  0  0  0  0
   -3.4482   -1.8881    0.0000 C   0  0  0  0  0  0  0  0  0
   -4.1626   -2.3006    0.0000 C   0  0  0  0  0  0  0  0  0
  1  2  1  0  0  0  0
  2  3  4  0  0  0  0
  2  7  4  0  0  0  0
  3  4  4  0  0  0  0
  4  5  4  0  0  0  0
  5  6  4  0  0  0  0
  5  8  1  0  0  0  0
  6  7  4  0  0  0  0
  8  9  4  0  0  0  0
  8 13  4  0  0  0  0
  9 10  4  0  0  0  0
 10 11  4  0  0  0  0
 11 12  1  0  0  0  0
 11 13  4  0  0  0  0
 13 14  1  0  0  0  0
 14 15  4  0  0  0  0
 14 31  4  0  0  0  0
 15 16  4  0  0  0  0
 16 17  4  0  0  0  0
 16 21  4  0  0  0  0
 17 18  4  0  0  0  0
 17 30  4  0  0  0  0
 18 19  4  0  0  0  0
 19 20  4  0  0  0  0
 19 22  1  0  0  0  0
 20 21  4  0  0  0  0
 22 23  1  0  0  0  0
 23 24  1  0  0  0  0
 24 25  1  0  0  0  0
 24 28  1  0  0  0  0
 25 26  1  0  0  0  0
 26 27  1  0  0  0  0
 27 28  1  0  0  0  0
 28 29  1  0  0  0  0
 30 31  4  0  0  0  0
M  END
>  <Name_Molregno>
631569

>  <HISTAMINE H3>
9.8

$$$$
631570
  Marvin  02231216192D 0   1.00000     0.00000     0

 31 35  0  0  1  0  0  0  0  0999 V2000
   -3.6322   -3.5599    0.0000 Cl  0  0  0  0  0  0  0  0  0
   -4.2453   -3.0079    0.0000 C   0  0  0  0  0  0  0  0  0
   -5.0523   -3.1794    0.0000 N   0  0  0  0  0  0  0  0  0
   -5.4648   -2.4649    0.0000 N   0  0  0  0  0  0  0  0  0
   -4.9127   -1.8519    0.0000 C   0  0  0  0  0  0  0  0  0
   -4.1590   -2.1874    0.0000 C   0  0  0  0  0  0  0  0  0
   -3.4446   -1.7749    0.0000 C   0  0  0  0  0  0  0  0  0
   -2.7301   -2.1874    0.0000 N   0  0  0  0  0  0  0  0  0
   -2.0156   -1.7749    0.0000 C   0  0  0  0  0  0  0  0  0
   -2.0156   -0.9499    0.0000 C   0  0  0  0  0  0  0  0  0
   -1.3012   -0.5374    0.0000 C   0  0  0  0  0  0  0  0  0
   -0.5867   -0.9499    0.0000 C   0  0  0  0  0  0  0  0  0
   -0.5867   -1.7749    0.0000 C   0  0  0  0  0  0  0  0  0
   -1.3012   -2.1874    0.0000 C   0  0  0  0  0  0  0  0  0
    0.1278   -0.5374    0.0000 C   0  0  0  0  0  0  0  0  0
    0.8422   -0.9499    0.0000 C   0  0  0  0  0  0  0  0  0
    1.5567   -0.5374    0.0000 N   0  0  0  0  0  0  0  0  0
    1.6430    0.2831    0.0000 C   0  0  0  0  0  0  0  0  0
    2.4499    0.4546    0.0000 C   0  0  0  0  0  0  0  0  0
    2.8624   -0.2599    0.0000 C   0  0  0  0  0  0  0  0  0
    2.3104   -0.8730    0.0000 C   0  0  0  0  0  0  0  0  0
    2.4819   -1.6799    0.0000 C   0  0  0  0  0  0  0  0  0
   -2.7301   -0.5374    0.0000 C   0  0  0  0  0  0  0  0  0
   -3.4446   -0.9499    0.0000 C   0  0  0  0  0  0  0  0  0
   -5.0843   -1.0449    0.0000 C   0  0  0  0  0  0  0  0  0
   -5.8689   -0.7899    0.0000 C   0  0  0  0  0  0  0  0  0
   -6.0404    0.0170    0.0000 C   0  0  0  0  0  0  0  0  0
   -5.4273    0.5691    0.0000 C   0  0  0  0  0  0  0  0  0
   -4.6427    0.3141    0.0000 C   0  0  0  0  0  0  0  0  0
   -4.4712   -0.4928    0.0000 C   0  0  0  0  0  0  0  0  0
   -5.3878   -3.9331    0.0000 C   0  0  0  0  0  0  0  0  0
  1  2  1  0  0  0  0
  2  3  4  0  0  0  0
  2  6  4  0  0  0  0
  3  4  4  0  0  0  0
  3 31  1  0  0  0  0
  4  5  4  0  0  0  0
  5  6  4  0  0  0  0
  5 25  1  0  0  0  0
  6  7  1  0  0  0  0
  7  8  4  0  0  0  0
  7 24  4  0  0  0  0
  8  9  4  0  0  0  0
  9 10  4  0  0  0  0
  9 14  4  0  0  0  0
 10 11  4  0  0  0  0
 10 23  4  0  0  0  0
 11 12  4  0  0  0  0
 12 13  4  0  0  0  0
 12 15  1  0  0  0  0
 13 14  4  0  0  0  0
 15 16  1  0  0  0  0
 16 17  1  0  0  0  0
 17 18  1  0  0  0  0
 17 21  1  0  0  0  0
 18 19  1  0  0  0  0
 19 20  1  0  0  0  0
 20 21  1  0  0  0  0
 21 22  1  0  0  0  0
 23 24  4  0  0  0  0
 25 26  4  0  0  0  0
 25 30  4  0  0  0  0
 26 27  4  0  0  0  0
 27 28  4  0  0  0  0
 28 29  4  0  0  0  0
 29 30  4  0  0  0  0
M  END
>  <Name_Molregno>
631570

>  <HISTAMINE H3>
9.39

$$$$
631571
  Marvin  02231216192D 0   1.00000     0.00000     0

 30 34  0  0  1  0  0  0  0  0999 V2000
    0.3863   -1.0080    0.0000 O   0  0  0  0  0  0  0  0  0
   -0.0262   -0.2935    0.0000 N   0  0  0  0  0  0  0  0  0
    0.5259    0.3196    0.0000 C   0  0  0  0  0  0  0  0  0
    1.2795   -0.0160    0.0000 C   0  0  0  0  0  0  0  0  0
    1.9940    0.3965    0.0000 C   0  0  0  0  0  0  0  0  0
    2.7085   -0.0160    0.0000 N   0  0  0  0  0  0  0  0  0
    3.4229    0.3965    0.0000 C   0  0  0  0  0  0  0  0  0
    3.4229    1.2215    0.0000 C   0  0  0  0  0  0  0  0  0
    4.1374    1.6340    0.0000 C   0  0  0  0  0  0  0  0  0
    4.8519    1.2215    0.0000 C   0  0  0  0  0  0  0  0  0
    4.8519    0.3965    0.0000 C   0  0  0  0  0  0  0  0  0
    4.1374   -0.0160    0.0000 C   0  0  0  0  0  0  0  0  0
    5.5664    1.6340    0.0000 C   0  0  0  0  0  0  0  0  0
    6.2808    1.2215    0.0000 C   0  0  0  0  0  0  0  0  0
    6.9953    1.6340    0.0000 N   0  0  0  0  0  0  0  0  0
    7.0815    2.4545    0.0000 C   0  0  0  0  0  0  0  0  0
    7.8885    2.6260    0.0000 C   0  0  0  0  0  0  0  0  0
    8.3010    1.9116    0.0000 C   0  0  0  0  0  0  0  0  0
    7.7490    1.2985    0.0000 C   0  0  0  0  0  0  0  0  0
    7.9205    0.4915    0.0000 C   0  0  0  0  0  0  0  0  0
    2.7085    1.6340    0.0000 C   0  0  0  0  0  0  0  0  0
    1.9940    1.2215    0.0000 C   0  0  0  0  0  0  0  0  0
    1.1933   -0.8364    0.0000 C   0  0  0  0  0  0  0  0  0
    1.8064   -1.3885    0.0000 C   0  0  0  0  0  0  0  0  0
    0.3543    1.1266    0.0000 C   0  0  0  0  0  0  0  0  0
   -0.4303    1.3815    0.0000 C   0  0  0  0  0  0  0  0  0
   -0.6018    2.1885    0.0000 C   0  0  0  0  0  0  0  0  0
    0.0113    2.7405    0.0000 C   0  0  0  0  0  0  0  0  0
    0.7959    2.4856    0.0000 C   0  0  0  0  0  0  0  0  0
    0.9674    1.6786    0.0000 C   0  0  0  0  0  0  0  0  0
  1  2  4  0  0  0  0
  1 23  4  0  0  0  0
  2  3  4  0  0  0  0
  3  4  4  0  0  0  0
  3 25  1  0  0  0  0
  4  5  1  0  0  0  0
  4 23  4  0  0  0  0
  5  6  4  0  0  0  0
  5 22  4  0  0  0  0
  6  7  4  0  0  0  0
  7  8  4  0  0  0  0
  7 12  4  0  0  0  0
  8  9  4  0  0  0  0
  8 21  4  0  0  0  0
  9 10  4  0  0  0  0
 10 11  4  0  0  0  0
 10 13  1  0  0  0  0
 11 12  4  0  0  0  0
 13 14  1  0  0  0  0
 14 15  1  0  0  0  0
 15 16  1  0  0  0  0
 15 19  1  0  0  0  0
 16 17  1  0  0  0  0
 17 18  1  0  0  0  0
 18 19  1  0  0  0  0
 19 20  1  0  0  0  0
 21 22  4  0  0  0  0
 23 24  1  0  0  0  0
 25 26  4  0  0  0  0
 25 30  4  0  0  0  0
 26 27  4  0  0  0  0
 27 28  4  0  0  0  0
 28 29  4  0  0  0  0
 29 30  4  0  0  0  0
M  END
>  <Name_Molregno>
631571

>  <HISTAMINE H3>
10

$$$$
631649
  Marvin  02231216192D 0   1.00000     0.00000     0

 27 31  0  0  1  0  0  0  0  0999 V2000
   -0.3437   -0.1063    0.0000 S   0  0  0  0  0  0  0  0  0
   -0.8957   -0.7194    0.0000 C   0  0  0  0  0  0  0  0  0
   -0.4832   -1.4339    0.0000 C   0  0  0  0  0  0  0  0  0
    0.3238   -1.2623    0.0000 N   0  0  0  0  0  0  0  0  0
    0.4100   -0.4419    0.0000 C   0  0  0  0  0  0  0  0  0
    1.1245   -0.0294    0.0000 C   0  0  0  0  0  0  0  0  0
    1.8390   -0.4419    0.0000 N   0  0  0  0  0  0  0  0  0
    2.5534   -0.0294    0.0000 C   0  0  0  0  0  0  0  0  0
    2.5534    0.7956    0.0000 C   0  0  0  0  0  0  0  0  0
    3.2679    1.2081    0.0000 C   0  0  0  0  0  0  0  0  0
    3.9824    0.7956    0.0000 C   0  0  0  0  0  0  0  0  0
    3.9824   -0.0294    0.0000 C   0  0  0  0  0  0  0  0  0
    3.2679   -0.4419    0.0000 C   0  0  0  0  0  0  0  0  0
    4.6968    1.2081    0.0000 C   0  0  0  0  0  0  0  0  0
    5.4113    0.7956    0.0000 C   0  0  0  0  0  0  0  0  0
    6.1258    1.2081    0.0000 N   0  0  0  0  0  0  0  0  0
    6.2120    2.0286    0.0000 C   0  0  0  0  0  0  0  0  0
    7.0190    2.2002    0.0000 C   0  0  0  0  0  0  0  0  0
    7.4315    1.4857    0.0000 C   0  0  0  0  0  0  0  0  0
    6.8795    0.8726    0.0000 C   0  0  0  0  0  0  0  0  0
    7.0510    0.0656    0.0000 C   0  0  0  0  0  0  0  0  0
    1.8390    1.2081    0.0000 C   0  0  0  0  0  0  0  0  0
    1.1245    0.7956    0.0000 C   0  0  0  0  0  0  0  0  0
   -0.8957   -2.1483    0.0000 C   0  0  0  0  0  0  0  0  0
   -1.7207   -2.1483    0.0000 C   0  0  0  0  0  0  0  0  0
   -2.1332   -1.4339    0.0000 C   0  0  0  0  0  0  0  0  0
   -1.7207   -0.7194    0.0000 C   0  0  0  0  0  0  0  0  0
  1  2  4  0  0  0  0
  1  5  4  0  0  0  0
  2  3  4  0  0  0  0
  2 27  4  0  0  0  0
  3  4  4  0  0  0  0
  3 24  4  0  0  0  0
  4  5  4  0  0  0  0
  5  6  1  0  0  0  0
  6  7  4  0  0  0  0
  6 23  4  0  0  0  0
  7  8  4  0  0  0  0
  8  9  4  0  0  0  0
  8 13  4  0  0  0  0
  9 10  4  0  0  0  0
  9 22  4  0  0  0  0
 10 11  4  0  0  0  0
 11 12  4  0  0  0  0
 11 14  1  0  0  0  0
 12 13  4  0  0  0  0
 14 15  1  0  0  0  0
 15 16  1  0  0  0  0
 16 17  1  0  0  0  0
 16 20  1  0  0  0  0
 17 18  1  0  0  0  0
 18 19  1  0  0  0  0
 19 20  1  0  0  0  0
 20 21  1  0  0  0  0
 22 23  4  0  0  0  0
 24 25  4  0  0  0  0
 25 26  4  0  0  0  0
 26 27  4  0  0  0  0
M  END
>  <Name_Molregno>
631649

>  <HISTAMINE H3>
8.54

$$$$
631650
  Marvin  02231216192D 0   1.00000     0.00000     0

 31 36  0  0  1  0  0  0  0  0999 V2000
   -3.3805   -1.9307    0.0000 S   0  0  0  0  0  0  0  0  0
   -4.1875   -2.1023    0.0000 C   0  0  0  0  0  0  0  0  0
   -4.6000   -1.3878    0.0000 N   0  0  0  0  0  0  0  0  0
   -5.4070   -1.5593    0.0000 C   0  0  0  0  0  0  0  0  0
   -5.4932   -2.3798    0.0000 C   0  0  0  0  0  0  0  0  0
   -4.7395   -2.7153    0.0000 N   0  0  0  0  0  0  0  0  0
   -6.2469   -2.7153    0.0000 C   0  0  0  0  0  0  0  0  0
   -6.9143   -2.2304    0.0000 C   0  0  0  0  0  0  0  0  0
   -6.8281   -1.4099    0.0000 C   0  0  0  0  0  0  0  0  0
   -6.0744   -1.0744    0.0000 C   0  0  0  0  0  0  0  0  0
   -4.0480   -0.7747    0.0000 C   0  0  0  0  0  0  0  0  0
   -4.2195    0.0323    0.0000 C   0  0  0  0  0  0  0  0  0
   -3.2943   -1.1102    0.0000 C   0  0  0  0  0  0  0  0  0
   -2.5798   -0.6977    0.0000 C   0  0  0  0  0  0  0  0  0
   -1.8654   -1.1102    0.0000 N   0  0  0  0  0  0  0  0  0
   -1.1509   -0.6977    0.0000 C   0  0  0  0  0  0  0  0  0
   -1.1509    0.1273    0.0000 C   0  0  0  0  0  0  0  0  0
   -0.4364    0.5398    0.0000 C   0  0  0  0  0  0  0  0  0
    0.2781    0.1273    0.0000 C   0  0  0  0  0  0  0  0  0
    0.2781   -0.6977    0.0000 C   0  0  0  0  0  0  0  0  0
   -0.4364   -1.1102    0.0000 C   0  0  0  0  0  0  0  0  0
    0.9925    0.5398    0.0000 C   0  0  0  0  0  0  0  0  0
    0.9925    1.3648    0.0000 C   0  0  0  0  0  0  0  0  0
    1.7070    1.7773    0.0000 N   0  0  0  0  0  0  0  0  0
    1.7932    2.5977    0.0000 C   0  0  0  0  0  0  0  0  0
    2.6002    2.7693    0.0000 C   0  0  0  0  0  0  0  0  0
    3.0127    2.0548    0.0000 C   0  0  0  0  0  0  0  0  0
    2.4607    1.4417    0.0000 C   0  0  0  0  0  0  0  0  0
    2.6322    0.6347    0.0000 C   0  0  0  0  0  0  0  0  0
   -1.8654    0.5398    0.0000 C   0  0  0  0  0  0  0  0  0
   -2.5798    0.1273    0.0000 C   0  0  0  0  0  0  0  0  0
  1  2  4  0  0  0  0
  1 13  4  0  0  0  0
  2  3  4  0  0  0  0
  2  6  4  0  0  0  0
  3  4  4  0  0  0  0
  3 11  4  0  0  0  0
  4  5  4  0  0  0  0
  4 10  4  0  0  0  0
  5  6  4  0  0  0  0
  5  7  4  0  0  0  0
  7  8  4  0  0  0  0
  8  9  4  0  0  0  0
  9 10  4  0  0  0  0
 11 12  1  0  0  0  0
 11 13  4  0  0  0  0
 13 14  1  0  0  0  0
 14 15  4  0  0  0  0
 14 31  4  0  0  0  0
 15 16  4  0  0  0  0
 16 17  4  0  0  0  0
 16 21  4  0  0  0  0
 17 18  4  0  0  0  0
 17 30  4  0  0  0  0
 18 19  4  0  0  0  0
 19 20  4  0  0  0  0
 19 22  1  0  0  0  0
 20 21  4  0  0  0  0
 22 23  1  0  0  0  0
 23 24  1  0  0  0  0
 24 25  1  0  0  0  0
 24 28  1  0  0  0  0
 25 26  1  0  0  0  0
 26 27  1  0  0  0  0
 27 28  1  0  0  0  0
 28 29  1  0  0  0  0
 30 31  4  0  0  0  0
M  END
>  <Name_Molregno>
631650

>  <HISTAMINE H3>
9.44

$$$$
631651
  Marvin  02231216192D 0   1.00000     0.00000     0

 27 31  0  0  1  0  0  0  0  0999 V2000
   -0.1749   -0.3955    0.0000 S   0  0  0  0  0  0  0  0  0
   -0.7269   -1.0086    0.0000 C   0  0  0  0  0  0  0  0  0
   -0.3144   -1.7231    0.0000 N   0  0  0  0  0  0  0  0  0
   -0.8664   -2.3362    0.0000 N   0  0  0  0  0  0  0  0  0
   -1.6201   -2.0006    0.0000 C   0  0  0  0  0  0  0  0  0
   -1.5339   -1.1801    0.0000 N   0  0  0  0  0  0  0  0  0
    0.4926   -1.5515    0.0000 C   0  0  0  0  0  0  0  0  0
    1.1057   -2.1036    0.0000 C   0  0  0  0  0  0  0  0  0
    0.5788   -0.7311    0.0000 C   0  0  0  0  0  0  0  0  0
    1.2933   -0.3186    0.0000 C   0  0  0  0  0  0  0  0  0
    2.0078   -0.7311    0.0000 N   0  0  0  0  0  0  0  0  0
    2.7222   -0.3186    0.0000 C   0  0  0  0  0  0  0  0  0
    2.7222    0.5064    0.0000 C   0  0  0  0  0  0  0  0  0
    3.4367    0.9189    0.0000 C   0  0  0  0  0  0  0  0  0
    4.1512    0.5064    0.0000 C   0  0  0  0  0  0  0  0  0
    4.1512   -0.3186    0.0000 C   0  0  0  0  0  0  0  0  0
    3.4367   -0.7311    0.0000 C   0  0  0  0  0  0  0  0  0
    4.8656    0.9189    0.0000 C   0  0  0  0  0  0  0  0  0
    4.8656    1.7439    0.0000 C   0  0  0  0  0  0  0  0  0
    5.5801    2.1564    0.0000 N   0  0  0  0  0  0  0  0  0
    5.6664    2.9769    0.0000 C   0  0  0  0  0  0  0  0  0
    6.4733    3.1485    0.0000 C   0  0  0  0  0  0  0  0  0
    6.8858    2.4340    0.0000 C   0  0  0  0  0  0  0  0  0
    6.3338    1.8209    0.0000 C   0  0  0  0  0  0  0  0  0
    6.5053    1.0139    0.0000 C   0  0  0  0  0  0  0  0  0
    2.0078    0.9189    0.0000 C   0  0  0  0  0  0  0  0  0
    1.2933    0.5064    0.0000 C   0  0  0  0  0  0  0  0  0
  1  2  4  0  0  0  0
  1  9  4  0  0  0  0
  2  3  4  0  0  0  0
  2  6  4  0  0  0  0
  3  4  4  0  0  0  0
  3  7  4  0  0  0  0
  4  5  4  0  0  0  0
  5  6  4  0  0  0  0
  7  8  1  0  0  0  0
  7  9  4  0  0  0  0
  9 10  1  0  0  0  0
 10 11  4  0  0  0  0
 10 27  4  0  0  0  0
 11 12  4  0  0  0  0
 12 13  4  0  0  0  0
 12 17  4  0  0  0  0
 13 14  4  0  0  0  0
 13 26  4  0  0  0  0
 14 15  4  0  0  0  0
 15 16  4  0  0  0  0
 15 18  1  0  0  0  0
 16 17  4  0  0  0  0
 18 19  1  0  0  0  0
 19 20  1  0  0  0  0
 20 21  1  0  0  0  0
 20 24  1  0  0  0  0
 21 22  1  0  0  0  0
 22 23  1  0  0  0  0
 23 24  1  0  0  0  0
 24 25  1  0  0  0  0
 26 27  4  0  0  0  0
M  END
>  <Name_Molregno>
631651

>  <HISTAMINE H3>
10

$$$$
631652
  Marvin  02231216192D 0   1.00000     0.00000     0

 26 30  0  0  1  0  0  0  0  0999 V2000
   -8.0049   -2.4069    0.0000 S   0  0  0  0  0  0  0  0  0
   -8.7586   -2.0713    0.0000 C   0  0  0  0  0  0  0  0  0
   -8.6723   -1.2509    0.0000 C   0  0  0  0  0  0  0  0  0
   -7.8653   -1.0793    0.0000 N   0  0  0  0  0  0  0  0  0
   -7.3133   -0.4662    0.0000 C   0  0  0  0  0  0  0  0  0
   -6.5596   -0.8018    0.0000 C   0  0  0  0  0  0  0  0  0
   -6.6459   -1.6223    0.0000 N   0  0  0  0  0  0  0  0  0
   -7.4528   -1.7938    0.0000 C   0  0  0  0  0  0  0  0  0
   -5.8452   -0.3893    0.0000 C   0  0  0  0  0  0  0  0  0
   -5.1307   -0.8018    0.0000 N   0  0  0  0  0  0  0  0  0
   -4.4162   -0.3893    0.0000 C   0  0  0  0  0  0  0  0  0
   -4.4162    0.4357    0.0000 C   0  0  0  0  0  0  0  0  0
   -3.7018    0.8482    0.0000 C   0  0  0  0  0  0  0  0  0
   -2.9873    0.4357    0.0000 C   0  0  0  0  0  0  0  0  0
   -2.9873   -0.3893    0.0000 C   0  0  0  0  0  0  0  0  0
   -3.7018   -0.8018    0.0000 C   0  0  0  0  0  0  0  0  0
   -2.2728    0.8482    0.0000 C   0  0  0  0  0  0  0  0  0
   -2.2728    1.6732    0.0000 C   0  0  0  0  0  0  0  0  0
   -1.5583    2.0857    0.0000 N   0  0  0  0  0  0  0  0  0
   -1.4721    2.9062    0.0000 C   0  0  0  0  0  0  0  0  0
   -0.6651    3.0777    0.0000 C   0  0  0  0  0  0  0  0  0
   -0.2526    2.3632    0.0000 C   0  0  0  0  0  0  0  0  0
   -0.8047    1.7501    0.0000 C   0  0  0  0  0  0  0  0  0
   -0.6331    0.9432    0.0000 C   0  0  0  0  0  0  0  0  0
   -5.1307    0.8482    0.0000 C   0  0  0  0  0  0  0  0  0
   -5.8452    0.4357    0.0000 C   0  0  0  0  0  0  0  0  0
  1  2  1  0  0  0  0
  1  8  1  0  0  0  0
  2  3  1  0  0  0  0
  3  4  1  0  0  0  0
  4  5  4  0  0  0  0
  4  8  4  0  0  0  0
  5  6  4  0  0  0  0
  6  7  4  0  0  0  0
  6  9  1  0  0  0  0
  7  8  4  0  0  0  0
  9 10  4  0  0  0  0
  9 26  4  0  0  0  0
 10 11  4  0  0  0  0
 11 12  4  0  0  0  0
 11 16  4  0  0  0  0
 12 13  4  0  0  0  0
 12 25  4  0  0  0  0
 13 14  4  0  0  0  0
 14 15  4  0  0  0  0
 14 17  1  0  0  0  0
 15 16  4  0  0  0  0
 17 18  1  0  0  0  0
 18 19  1  0  0  0  0
 19 20  1  0  0  0  0
 19 23  1  0  0  0  0
 20 21  1  0  0  0  0
 21 22  1  0  0  0  0
 22 23  1  0  0  0  0
 23 24  1  0  0  0  0
 25 26  4  0  0  0  0
M  END
>  <Name_Molregno>
631652

>  <HISTAMINE H3>
9.07

$$$$
631653
  Marvin  02231216192D 0   1.00000     0.00000     0

 28 32  0  0  1  0  0  0  0  0999 V2000
   -0.0823   -0.9027    0.0000 N   0  0  0  0  0  0  0  0  0
   -0.6343   -1.5158    0.0000 C   0  0  0  0  0  0  0  0  0
   -0.2218   -2.2303    0.0000 N   0  0  0  0  0  0  0  0  0
    0.5851   -2.0587    0.0000 C   0  0  0  0  0  0  0  0  0
    1.1982   -2.6108    0.0000 C   0  0  0  0  0  0  0  0  0
    0.6714   -1.2383    0.0000 C   0  0  0  0  0  0  0  0  0
    1.3859   -0.8258    0.0000 C   0  0  0  0  0  0  0  0  0
    2.1003   -1.2383    0.0000 N   0  0  0  0  0  0  0  0  0
    2.8148   -0.8258    0.0000 C   0  0  0  0  0  0  0  0  0
    2.8148   -0.0008    0.0000 C   0  0  0  0  0  0  0  0  0
    3.5293    0.4117    0.0000 C   0  0  0  0  0  0  0  0  0
    4.2437   -0.0008    0.0000 C   0  0  0  0  0  0  0  0  0
    4.2437   -0.8258    0.0000 C   0  0  0  0  0  0  0  0  0
    3.5293   -1.2383    0.0000 C   0  0  0  0  0  0  0  0  0
    4.9582    0.4117    0.0000 C   0  0  0  0  0  0  0  0  0
    5.6727   -0.0008    0.0000 C   0  0  0  0  0  0  0  0  0
    6.3871    0.4117    0.0000 N   0  0  0  0  0  0  0  0  0
    6.4734    1.2322    0.0000 C   0  0  0  0  0  0  0  0  0
    7.2804    1.4038    0.0000 C   0  0  0  0  0  0  0  0  0
    7.6929    0.6893    0.0000 C   0  0  0  0  0  0  0  0  0
    7.1408    0.0762    0.0000 C   0  0  0  0  0  0  0  0  0
    7.3123   -0.7308    0.0000 C   0  0  0  0  0  0  0  0  0
    2.1003    0.4117    0.0000 C   0  0  0  0  0  0  0  0  0
    1.3859   -0.0008    0.0000 C   0  0  0  0  0  0  0  0  0
   -1.4413   -1.3443    0.0000 C   0  0  0  0  0  0  0  0  0
   -1.6962   -0.5596    0.0000 C   0  0  0  0  0  0  0  0  0
   -1.1442    0.0535    0.0000 C   0  0  0  0  0  0  0  0  0
   -0.3372   -0.1181    0.0000 C   0  0  0  0  0  0  0  0  0
  1  2  4  0  0  0  0
  1  6  4  0  0  0  0
  1 28  4  0  0  0  0
  2  3  4  0  0  0  0
  2 25  4  0  0  0  0
  3  4  4  0  0  0  0
  4  5  1  0  0  0  0
  4  6  4  0  0  0  0
  6  7  1  0  0  0  0
  7  8  4  0  0  0  0
  7 24  4  0  0  0  0
  8  9  4  0  0  0  0
  9 10  4  0  0  0  0
  9 14  4  0  0  0  0
 10 11  4  0  0  0  0
 10 23  4  0  0  0  0
 11 12  4  0  0  0  0
 12 13  4  0  0  0  0
 12 15  1  0  0  0  0
 13 14  4  0  0  0  0
 15 16  1  0  0  0  0
 16 17  1  0  0  0  0
 17 18  1  0  0  0  0
 17 21  1  0  0  0  0
 18 19  1  0  0  0  0
 19 20  1  0  0  0  0
 20 21  1  0  0  0  0
 21 22  1  0  0  0  0
 23 24  4  0  0  0  0
 25 26  4  0  0  0  0
 26 27  4  0  0  0  0
 27 28  4  0  0  0  0
M  END
>  <Name_Molregno>
631653

>  <HISTAMINE H3>
9.92

$$$$
631732
  Marvin  02231216192D 0   1.00000     0.00000     0

 28 32  0  0  1  0  0  0  0  0999 V2000
   -0.0710   -0.0909    0.0000 N   0  0  0  0  0  0  0  0  0
   -0.7855    0.3216    0.0000 C   0  0  0  0  0  0  0  0  0
   -1.4999   -0.0909    0.0000 C   0  0  0  0  0  0  0  0  0
   -2.2144    0.3216    0.0000 C   0  0  0  0  0  0  0  0  0
   -2.2144    1.1466    0.0000 C   0  0  0  0  0  0  0  0  0
   -1.4999    1.5591    0.0000 C   0  0  0  0  0  0  0  0  0
   -0.7855    1.1466    0.0000 C   0  0  0  0  0  0  0  0  0
   -2.9289    1.5591    0.0000 C   0  0  0  0  0  0  0  0  0
   -2.9289    2.3841    0.0000 C   0  0  0  0  0  0  0  0  0
   -3.6433    2.7966    0.0000 N   0  0  0  0  0  0  0  0  0
   -4.3970    2.4610    0.0000 C   0  0  0  0  0  0  0  0  0
   -4.9491    3.0741    0.0000 C   0  0  0  0  0  0  0  0  0
   -4.5366    3.7886    0.0000 C   0  0  0  0  0  0  0  0  0
   -3.7296    3.6171    0.0000 C   0  0  0  0  0  0  0  0  0
   -3.1165    4.1691    0.0000 C   0  0  0  0  0  0  0  0  0
   -1.4999   -0.9159    0.0000 C   0  0  0  0  0  0  0  0  0
   -0.7855   -1.3284    0.0000 C   0  0  0  0  0  0  0  0  0
   -0.0710   -0.9159    0.0000 C   0  0  0  0  0  0  0  0  0
    0.6435   -1.3284    0.0000 C   0  0  0  0  0  0  0  0  0
    1.3580   -0.9159    0.0000 C   0  0  0  0  0  0  0  0  0
    2.0724   -1.3284    0.0000 C   0  0  0  0  0  0  0  0  0
    2.7869   -0.9159    0.0000 N   0  0  0  0  0  0  0  0  0
    3.5014   -1.3284    0.0000 C   0  0  0  0  0  0  0  0  0
    3.5014   -2.1534    0.0000 C   0  0  0  0  0  0  0  0  0
    2.7869   -2.5659    0.0000 N   0  0  0  0  0  0  0  0  0
    2.0724   -2.1534    0.0000 C   0  0  0  0  0  0  0  0  0
    1.3580   -2.5659    0.0000 C   0  0  0  0  0  0  0  0  0
    0.6435   -2.1534    0.0000 C   0  0  0  0  0  0  0  0  0
  1  2  4  0  0  0  0
  1 18  4  0  0  0  0
  2  3  4  0  0  0  0
  2  7  4  0  0  0  0
  3  4  4  0  0  0  0
  3 16  4  0  0  0  0
  4  5  4  0  0  0  0
  5  6  4  0  0  0  0
  5  8  1  0  0  0  0
  6  7  4  0  0  0  0
  8  9  1  0  0  0  0
  9 10  1  0  0  0  0
 10 11  1  0  0  0  0
 10 14  1  0  0  0  0
 11 12  1  0  0  0  0
 12 13  1  0  0  0  0
 13 14  1  0  0  0  0
 14 15  1  0  0  0  0
 16 17  4  0  0  0  0
 17 18  4  0  0  0  0
 18 19  1  0  0  0  0
 19 20  4  0  0  0  0
 19 28  4  0  0  0  0
 20 21  4  0  0  0  0
 21 22  4  0  0  0  0
 21 26  4  0  0  0  0
 22 23  4  0  0  0  0
 23 24  4  0  0  0  0
 24 25  4  0  0  0  0
 25 26  4  0  0  0  0
 26 27  4  0  0  0  0
 27 28  4  0  0  0  0
M  END
>  <Name_Molregno>
631732

>  <HISTAMINE H3>
9.43

$$$$
631733
  Marvin  02231216192D 0   1.00000     0.00000     0

 28 32  0  0  1  0  0  0  0  0999 V2000
   -9.3198   -0.3343    0.0000 O   0  0  0  0  0  0  0  0  0
   -8.6053    0.0782    0.0000 C   0  0  0  0  0  0  0  0  0
   -7.8909   -0.3343    0.0000 C   0  0  0  0  0  0  0  0  0
   -7.1764    0.0782    0.0000 C   0  0  0  0  0  0  0  0  0
   -6.4619   -0.3343    0.0000 C   0  0  0  0  0  0  0  0  0
   -6.4619   -1.1593    0.0000 C   0  0  0  0  0  0  0  0  0
   -7.1764   -1.5718    0.0000 C   0  0  0  0  0  0  0  0  0
   -7.8909   -1.1593    0.0000 C   0  0  0  0  0  0  0  0  0
   -8.6053   -1.5718    0.0000 O   0  0  0  0  0  0  0  0  0
   -9.3198   -1.1593    0.0000 C   0  0  0  0  0  0  0  0  0
   -5.7474    0.0782    0.0000 C   0  0  0  0  0  0  0  0  0
   -5.0330   -0.3343    0.0000 N   0  0  0  0  0  0  0  0  0
   -4.3185    0.0782    0.0000 C   0  0  0  0  0  0  0  0  0
   -4.3185    0.9032    0.0000 C   0  0  0  0  0  0  0  0  0
   -3.6040    1.3157    0.0000 C   0  0  0  0  0  0  0  0  0
   -2.8896    0.9032    0.0000 C   0  0  0  0  0  0  0  0  0
   -2.8896    0.0782    0.0000 C   0  0  0  0  0  0  0  0  0
   -3.6040   -0.3343    0.0000 C   0  0  0  0  0  0  0  0  0
   -2.1751    1.3157    0.0000 C   0  0  0  0  0  0  0  0  0
   -2.1751    2.1407    0.0000 C   0  0  0  0  0  0  0  0  0
   -1.4606    2.5532    0.0000 N   0  0  0  0  0  0  0  0  0
   -1.3744    3.3737    0.0000 C   0  0  0  0  0  0  0  0  0
   -0.5674    3.5452    0.0000 C   0  0  0  0  0  0  0  0  0
   -0.1549    2.8307    0.0000 C   0  0  0  0  0  0  0  0  0
   -0.7069    2.2176    0.0000 C   0  0  0  0  0  0  0  0  0
   -0.5354    1.4107    0.0000 C   0  0  0  0  0  0  0  0  0
   -5.0330    1.3157    0.0000 C   0  0  0  0  0  0  0  0  0
   -5.7474    0.9032    0.0000 C   0  0  0  0  0  0  0  0  0
  1  2  1  0  0  0  0
  1 10  1  0  0  0  0
  2  3  1  0  0  0  0
  3  4  4  0  0  0  0
  3  8  4  0  0  0  0
  4  5  4  0  0  0  0
  5  6  4  0  0  0  0
  5 11  1  0  0  0  0
  6  7  4  0  0  0  0
  7  8  4  0  0  0  0
  8  9  1  0  0  0  0
  9 10  1  0  0  0  0
 11 12  4  0  0  0  0
 11 28  4  0  0  0  0
 12 13  4  0  0  0  0
 13 14  4  0  0  0  0
 13 18  4  0  0  0  0
 14 15  4  0  0  0  0
 14 27  4  0  0  0  0
 15 16  4  0  0  0  0
 16 17  4  0  0  0  0
 16 19  1  0  0  0  0
 17 18  4  0  0  0  0
 19 20  1  0  0  0  0
 20 21  1  0  0  0  0
 21 22  1  0  0  0  0
 21 25  1  0  0  0  0
 22 23  1  0  0  0  0
 23 24  1  0  0  0  0
 24 25  1  0  0  0  0
 25 26  1  0  0  0  0
 27 28  4  0  0  0  0
M  END
>  <Name_Molregno>
631733

>  <HISTAMINE H3>
9.4

$$$$
631734
  Marvin  02231216192D 0   1.00000     0.00000     0

 25 28  0  0  1  0  0  0  0  0999 V2000
   -6.1195   -0.9730    0.0000 S   0  0  0  0  0  0  0  0  0
   -5.3658   -1.3086    0.0000 C   0  0  0  0  0  0  0  0  0
   -5.4521   -2.1290    0.0000 C   0  0  0  0  0  0  0  0  0
   -6.2590   -2.3006    0.0000 C   0  0  0  0  0  0  0  0  0
   -6.6715   -1.5861    0.0000 C   0  0  0  0  0  0  0  0  0
   -7.4920   -1.4999    0.0000 C   0  0  0  0  0  0  0  0  0
   -8.3125   -1.4136    0.0000 N   0  0  0  0  0  0  0  0  0
   -4.6514   -0.8961    0.0000 C   0  0  0  0  0  0  0  0  0
   -3.9369   -1.3086    0.0000 N   0  0  0  0  0  0  0  0  0
   -3.2224   -0.8961    0.0000 C   0  0  0  0  0  0  0  0  0
   -3.2224   -0.0711    0.0000 C   0  0  0  0  0  0  0  0  0
   -2.5080    0.3414    0.0000 C   0  0  0  0  0  0  0  0  0
   -1.7935   -0.0711    0.0000 C   0  0  0  0  0  0  0  0  0
   -1.7935   -0.8961    0.0000 C   0  0  0  0  0  0  0  0  0
   -2.5080   -1.3086    0.0000 C   0  0  0  0  0  0  0  0  0
   -1.0790    0.3414    0.0000 C   0  0  0  0  0  0  0  0  0
   -1.0790    1.1664    0.0000 C   0  0  0  0  0  0  0  0  0
   -0.3645    1.5789    0.0000 N   0  0  0  0  0  0  0  0  0
   -0.2783    2.3994    0.0000 C   0  0  0  0  0  0  0  0  0
    0.5287    2.5709    0.0000 C   0  0  0  0  0  0  0  0  0
    0.9412    1.8565    0.0000 C   0  0  0  0  0  0  0  0  0
    0.3891    1.2434    0.0000 C   0  0  0  0  0  0  0  0  0
    0.5607    0.4364    0.0000 C   0  0  0  0  0  0  0  0  0
   -3.9369    0.3414    0.0000 C   0  0  0  0  0  0  0  0  0
   -4.6514   -0.0711    0.0000 C   0  0  0  0  0  0  0  0  0
  1  2  4  0  0  0  0
  1  5  4  0  0  0  0
  2  3  4  0  0  0  0
  2  8  1  0  0  0  0
  3  4  4  0  0  0  0
  4  5  4  0  0  0  0
  5  6  1  0  0  0  0
  6  7  3  0  0  0  0
  8  9  4  0  0  0  0
  8 25  4  0  0  0  0
  9 10  4  0  0  0  0
 10 11  4  0  0  0  0
 10 15  4  0  0  0  0
 11 12  4  0  0  0  0
 11 24  4  0  0  0  0
 12 13  4  0  0  0  0
 13 14  4  0  0  0  0
 13 16  1  0  0  0  0
 14 15  4  0  0  0  0
 16 17  1  0  0  0  0
 17 18  1  0  0  0  0
 18 19  1  0  0  0  0
 18 22  1  0  0  0  0
 19 20  1  0  0  0  0
 20 21  1  0  0  0  0
 21 22  1  0  0  0  0
 22 23  1  0  0  0  0
 24 25  4  0  0  0  0
M  END
>  <Name_Molregno>
631734

>  <HISTAMINE H3>
9.49

$$$$
631735
  Marvin  02231216192D 0   1.00000     0.00000     0

 28 31  0  0  1  0  0  0  0  0999 V2000
   -4.9341   -0.3315    0.0000 S   0  0  0  0  0  0  0  0  0
   -4.1804   -0.6670    0.0000 C   0  0  0  0  0  0  0  0  0
   -4.2667   -1.4875    0.0000 C   0  0  0  0  0  0  0  0  0
   -5.0736   -1.6590    0.0000 C   0  0  0  0  0  0  0  0  0
   -5.4861   -0.9446    0.0000 C   0  0  0  0  0  0  0  0  0
   -6.3066   -0.8583    0.0000 C   0  0  0  0  0  0  0  0  0
   -6.7915   -1.5258    0.0000 O   0  0  0  0  0  0  0  0  0
   -7.6120   -1.4395    0.0000 C   0  0  0  0  0  0  0  0  0
   -8.0969   -2.1070    0.0000 C   0  0  0  0  0  0  0  0  0
   -6.6422   -0.1046    0.0000 N   0  0  0  0  0  0  0  0  0
   -3.4660   -0.2545    0.0000 C   0  0  0  0  0  0  0  0  0
   -2.7515   -0.6670    0.0000 N   0  0  0  0  0  0  0  0  0
   -2.0370   -0.2545    0.0000 C   0  0  0  0  0  0  0  0  0
   -2.0370    0.5705    0.0000 C   0  0  0  0  0  0  0  0  0
   -1.3226    0.9830    0.0000 C   0  0  0  0  0  0  0  0  0
   -0.6081    0.5705    0.0000 C   0  0  0  0  0  0  0  0  0
   -0.6081   -0.2545    0.0000 C   0  0  0  0  0  0  0  0  0
   -1.3226   -0.6670    0.0000 C   0  0  0  0  0  0  0  0  0
    0.1064    0.9830    0.0000 C   0  0  0  0  0  0  0  0  0
    0.1064    1.8080    0.0000 C   0  0  0  0  0  0  0  0  0
    0.8209    2.2205    0.0000 N   0  0  0  0  0  0  0  0  0
    0.9071    3.0410    0.0000 C   0  0  0  0  0  0  0  0  0
    1.7141    3.2125    0.0000 C   0  0  0  0  0  0  0  0  0
    2.1266    2.4980    0.0000 C   0  0  0  0  0  0  0  0  0
    1.5745    1.8849    0.0000 C   0  0  0  0  0  0  0  0  0
    1.7461    1.0779    0.0000 C   0  0  0  0  0  0  0  0  0
   -2.7515    0.9830    0.0000 C   0  0  0  0  0  0  0  0  0
   -3.4660    0.5705    0.0000 C   0  0  0  0  0  0  0  0  0
  1  2  4  0  0  0  0
  1  5  4  0  0  0  0
  2  3  4  0  0  0  0
  2 11  1  0  0  0  0
  3  4  4  0  0  0  0
  4  5  4  0  0  0  0
  5  6  1  0  0  0  0
  6  7  1  0  0  0  0
  6 10  2  0  0  0  0
  7  8  1  0  0  0  0
  8  9  1  0  0  0  0
 11 12  4  0  0  0  0
 11 28  4  0  0  0  0
 12 13  4  0  0  0  0
 13 14  4  0  0  0  0
 13 18  4  0  0  0  0
 14 15  4  0  0  0  0
 14 27  4  0  0  0  0
 15 16  4  0  0  0  0
 16 17  4  0  0  0  0
 16 19  1  0  0  0  0
 17 18  4  0  0  0  0
 19 20  1  0  0  0  0
 20 21  1  0  0  0  0
 21 22  1  0  0  0  0
 21 25  1  0  0  0  0
 22 23  1  0  0  0  0
 23 24  1  0  0  0  0
 24 25  1  0  0  0  0
 25 26  1  0  0  0  0
 27 28  4  0  0  0  0
M  END
>  <Name_Molregno>
631735

>  <HISTAMINE H3>
9.19

$$$$
631805
  Marvin  02231216192D 0   1.00000     0.00000     0

 24 27  0  0  1  0  0  0  0  0999 V2000
    0.1910   -0.7442    0.0000 N   0  0  0  0  0  0  0  0  0
    0.9055   -0.3317    0.0000 C   0  0  0  0  0  0  0  0  0
    0.9055    0.4933    0.0000 C   0  0  0  0  0  0  0  0  0
    1.6199    0.9058    0.0000 C   0  0  0  0  0  0  0  0  0
    2.3344    0.4933    0.0000 C   0  0  0  0  0  0  0  0  0
    2.3344   -0.3317    0.0000 C   0  0  0  0  0  0  0  0  0
    1.6199   -0.7442    0.0000 C   0  0  0  0  0  0  0  0  0
    3.0489    0.9058    0.0000 C   0  0  0  0  0  0  0  0  0
    3.7633    0.4933    0.0000 C   0  0  0  0  0  0  0  0  0
    4.4778    0.9058    0.0000 N   0  0  0  0  0  0  0  0  0
    4.5641    1.7263    0.0000 C   0  0  0  0  0  0  0  0  0
    5.3710    1.8978    0.0000 C   0  0  0  0  0  0  0  0  0
    5.7835    1.1833    0.0000 C   0  0  0  0  0  0  0  0  0
    5.2315    0.5702    0.0000 C   0  0  0  0  0  0  0  0  0
    5.4030   -0.2368    0.0000 C   0  0  0  0  0  0  0  0  0
    0.1910    0.9058    0.0000 C   0  0  0  0  0  0  0  0  0
   -0.5235    0.4933    0.0000 C   0  0  0  0  0  0  0  0  0
   -0.5235   -0.3317    0.0000 C   0  0  0  0  0  0  0  0  0
   -1.2380   -0.7442    0.0000 C   0  0  0  0  0  0  0  0  0
   -1.2380   -1.5692    0.0000 N   0  0  0  0  0  0  0  0  0
   -1.9524   -1.9817    0.0000 C   0  0  0  0  0  0  0  0  0
   -2.6669   -1.5692    0.0000 C   0  0  0  0  0  0  0  0  0
   -2.6669   -0.7442    0.0000 C   0  0  0  0  0  0  0  0  0
   -1.9524   -0.3317    0.0000 C   0  0  0  0  0  0  0  0  0
  1  2  4  0  0  0  0
  1 18  4  0  0  0  0
  2  3  4  0  0  0  0
  2  7  4  0  0  0  0
  3  4  4  0  0  0  0
  3 16  4  0  0  0  0
  4  5  4  0  0  0  0
  5  6  4  0  0  0  0
  5  8  1  0  0  0  0
  6  7  4  0  0  0  0
  8  9  1  0  0  0  0
  9 10  1  0  0  0  0
 10 11  1  0  0  0  0
 10 14  1  0  0  0  0
 11 12  1  0  0  0  0
 12 13  1  0  0  0  0
 13 14  1  0  0  0  0
 14 15  1  0  0  0  0
 16 17  4  0  0  0  0
 17 18  4  0  0  0  0
 18 19  1  0  0  0  0
 19 20  4  0  0  0  0
 19 24  4  0  0  0  0
 20 21  4  0  0  0  0
 21 22  4  0  0  0  0
 22 23  4  0  0  0  0
 23 24  4  0  0  0  0
M  END
>  <Name_Molregno>
631805

>  <HISTAMINE H3>
9.12

$$$$
631806
  Marvin  02231216192D 0   1.00000     0.00000     0

 30 34  0  0  1  0  0  0  0  0999 V2000
   -4.7006   -0.4917    0.0000 S   0  0  0  0  0  0  0  0  0
   -3.9470   -0.8273    0.0000 C   0  0  0  0  0  0  0  0  0
   -3.2325   -0.4148    0.0000 C   0  0  0  0  0  0  0  0  0
   -2.5180   -0.8273    0.0000 N   0  0  0  0  0  0  0  0  0
   -1.8035   -0.4148    0.0000 C   0  0  0  0  0  0  0  0  0
   -1.8035    0.4102    0.0000 C   0  0  0  0  0  0  0  0  0
   -1.0891    0.8227    0.0000 C   0  0  0  0  0  0  0  0  0
   -0.3746    0.4102    0.0000 C   0  0  0  0  0  0  0  0  0
   -0.3746   -0.4148    0.0000 C   0  0  0  0  0  0  0  0  0
   -1.0891   -0.8273    0.0000 C   0  0  0  0  0  0  0  0  0
    0.3399    0.8227    0.0000 C   0  0  0  0  0  0  0  0  0
    1.0543    0.4102    0.0000 C   0  0  0  0  0  0  0  0  0
    1.7688    0.8227    0.0000 N   0  0  0  0  0  0  0  0  0
    1.8550    1.6432    0.0000 C   0  0  0  0  0  0  0  0  0
    2.6620    1.8147    0.0000 C   0  0  0  0  0  0  0  0  0
    3.0745    1.1003    0.0000 C   0  0  0  0  0  0  0  0  0
    2.5225    0.4872    0.0000 C   0  0  0  0  0  0  0  0  0
    2.6940   -0.3198    0.0000 C   0  0  0  0  0  0  0  0  0
   -2.5180    0.8227    0.0000 C   0  0  0  0  0  0  0  0  0
   -3.2325    0.4102    0.0000 C   0  0  0  0  0  0  0  0  0
   -4.0332   -1.6478    0.0000 C   0  0  0  0  0  0  0  0  0
   -4.8402   -1.8193    0.0000 N   0  0  0  0  0  0  0  0  0
   -5.2527   -1.1048    0.0000 C   0  0  0  0  0  0  0  0  0
   -6.0731   -1.0186    0.0000 C   0  0  0  0  0  0  0  0  0
   -6.5581   -1.6860    0.0000 C   0  0  0  0  0  0  0  0  0
   -7.3785   -1.5998    0.0000 C   0  0  0  0  0  0  0  0  0
   -7.7141   -0.8461    0.0000 N   0  0  0  0  0  0  0  0  0
   -7.2292   -0.1787    0.0000 C   0  0  0  0  0  0  0  0  0
   -6.4087   -0.2649    0.0000 C   0  0  0  0  0  0  0  0  0
   -3.4201   -2.1998    0.0000 C   0  0  0  0  0  0  0  0  0
  1  2  4  0  0  0  0
  1 23  4  0  0  0  0
  2  3  1  0  0  0  0
  2 21  4  0  0  0  0
  3  4  4  0  0  0  0
  3 20  4  0  0  0  0
  4  5  4  0  0  0  0
  5  6  4  0  0  0  0
  5 10  4  0  0  0  0
  6  7  4  0  0  0  0
  6 19  4  0  0  0  0
  7  8  4  0  0  0  0
  8  9  4  0  0  0  0
  8 11  1  0  0  0  0
  9 10  4  0  0  0  0
 11 12  1  0  0  0  0
 12 13  1  0  0  0  0
 13 14  1  0  0  0  0
 13 17  1  0  0  0  0
 14 15  1  0  0  0  0
 15 16  1  0  0  0  0
 16 17  1  0  0  0  0
 17 18  1  0  0  0  0
 19 20  4  0  0  0  0
 21 22  4  0  0  0  0
 21 30  1  0  0  0  0
 22 23  4  0  0  0  0
 23 24  1  0  0  0  0
 24 25  4  0  0  0  0
 24 29  4  0  0  0  0
 25 26  4  0  0  0  0
 26 27  4  0  0  0  0
 27 28  4  0  0  0  0
 28 29  4  0  0  0  0
M  END
>  <Name_Molregno>
631806

>  <HISTAMINE H3>
9.49

$$$$
631807
  Marvin  02231216192D 0   1.00000     0.00000     0

 29 33  0  0  1  0  0  0  0  0999 V2000
   -5.9329    0.0710    0.0000 S   0  0  0  0  0  0  0  0  0
   -5.3809    0.6841    0.0000 C   0  0  0  0  0  0  0  0  0
   -4.6272    0.3485    0.0000 C   0  0  0  0  0  0  0  0  0
   -4.7134   -0.4719    0.0000 N   0  0  0  0  0  0  0  0  0
   -5.5204   -0.6435    0.0000 C   0  0  0  0  0  0  0  0  0
   -5.8560   -1.3971    0.0000 C   0  0  0  0  0  0  0  0  0
   -5.4435   -2.1116    0.0000 N   0  0  0  0  0  0  0  0  0
   -5.9955   -2.7247    0.0000 C   0  0  0  0  0  0  0  0  0
   -6.7492   -2.3892    0.0000 S   0  0  0  0  0  0  0  0  0
   -6.6630   -1.5687    0.0000 C   0  0  0  0  0  0  0  0  0
   -5.8240   -3.5317    0.0000 C   0  0  0  0  0  0  0  0  0
   -3.9127    0.7610    0.0000 C   0  0  0  0  0  0  0  0  0
   -3.1983    0.3485    0.0000 N   0  0  0  0  0  0  0  0  0
   -2.4838    0.7610    0.0000 C   0  0  0  0  0  0  0  0  0
   -2.4838    1.5860    0.0000 C   0  0  0  0  0  0  0  0  0
   -1.7693    1.9985    0.0000 C   0  0  0  0  0  0  0  0  0
   -1.0549    1.5860    0.0000 C   0  0  0  0  0  0  0  0  0
   -1.0549    0.7610    0.0000 C   0  0  0  0  0  0  0  0  0
   -1.7693    0.3485    0.0000 C   0  0  0  0  0  0  0  0  0
   -0.3404    1.9985    0.0000 C   0  0  0  0  0  0  0  0  0
   -0.3404    2.8235    0.0000 C   0  0  0  0  0  0  0  0  0
    0.3741    3.2360    0.0000 N   0  0  0  0  0  0  0  0  0
    0.4603    4.0565    0.0000 C   0  0  0  0  0  0  0  0  0
    1.2673    4.2280    0.0000 C   0  0  0  0  0  0  0  0  0
    1.6798    3.5136    0.0000 C   0  0  0  0  0  0  0  0  0
    1.1278    2.9005    0.0000 C   0  0  0  0  0  0  0  0  0
    1.2993    2.0935    0.0000 C   0  0  0  0  0  0  0  0  0
   -3.1983    1.9985    0.0000 C   0  0  0  0  0  0  0  0  0
   -3.9127    1.5860    0.0000 C   0  0  0  0  0  0  0  0  0
  1  2  4  0  0  0  0
  1  5  4  0  0  0  0
  2  3  4  0  0  0  0
  3  4  4  0  0  0  0
  3 12  1  0  0  0  0
  4  5  4  0  0  0  0
  5  6  1  0  0  0  0
  6  7  4  0  0  0  0
  6 10  4  0  0  0  0
  7  8  4  0  0  0  0
  8  9  4  0  0  0  0
  8 11  1  0  0  0  0
  9 10  4  0  0  0  0
 12 13  4  0  0  0  0
 12 29  4  0  0  0  0
 13 14  4  0  0  0  0
 14 15  4  0  0  0  0
 14 19  4  0  0  0  0
 15 16  4  0  0  0  0
 15 28  4  0  0  0  0
 16 17  4  0  0  0  0
 17 18  4  0  0  0  0
 17 20  1  0  0  0  0
 18 19  4  0  0  0  0
 20 21  1  0  0  0  0
 21 22  1  0  0  0  0
 22 23  1  0  0  0  0
 22 26  1  0  0  0  0
 23 24  1  0  0  0  0
 24 25  1  0  0  0  0
 25 26  1  0  0  0  0
 26 27  1  0  0  0  0
 28 29  4  0  0  0  0
M  END
>  <Name_Molregno>
631807

>  <HISTAMINE H3>
8.77

$$$$
631808
  Marvin  02231216192D 0   1.00000     0.00000     0

 29 33  0  0  1  0  0  0  0  0999 V2000
   -5.8764   -1.5301    0.0000 S   0  0  0  0  0  0  0  0  0
   -5.3243   -0.9170    0.0000 C   0  0  0  0  0  0  0  0  0
   -4.5707   -1.2526    0.0000 C   0  0  0  0  0  0  0  0  0
   -4.6569   -2.0730    0.0000 N   0  0  0  0  0  0  0  0  0
   -5.4639   -2.2446    0.0000 C   0  0  0  0  0  0  0  0  0
   -5.7994   -2.9982    0.0000 C   0  0  0  0  0  0  0  0  0
   -5.3869   -3.7127    0.0000 N   0  0  0  0  0  0  0  0  0
   -5.9390   -4.3258    0.0000 O   0  0  0  0  0  0  0  0  0
   -6.6926   -3.9902    0.0000 C   0  0  0  0  0  0  0  0  0
   -6.6064   -3.1698    0.0000 C   0  0  0  0  0  0  0  0  0
   -7.4071   -4.4027    0.0000 C   0  0  0  0  0  0  0  0  0
   -3.8562   -0.8401    0.0000 C   0  0  0  0  0  0  0  0  0
   -3.1417   -1.2526    0.0000 N   0  0  0  0  0  0  0  0  0
   -2.4273   -0.8401    0.0000 C   0  0  0  0  0  0  0  0  0
   -2.4273   -0.0151    0.0000 C   0  0  0  0  0  0  0  0  0
   -1.7128    0.3974    0.0000 C   0  0  0  0  0  0  0  0  0
   -0.9983   -0.0151    0.0000 C   0  0  0  0  0  0  0  0  0
   -0.9983   -0.8401    0.0000 C   0  0  0  0  0  0  0  0  0
   -1.7128   -1.2526    0.0000 C   0  0  0  0  0  0  0  0  0
   -0.2838    0.3974    0.0000 C   0  0  0  0  0  0  0  0  0
   -0.2838    1.2224    0.0000 C   0  0  0  0  0  0  0  0  0
    0.4306    1.6349    0.0000 N   0  0  0  0  0  0  0  0  0
    0.5169    2.4554    0.0000 C   0  0  0  0  0  0  0  0  0
    1.3238    2.6269    0.0000 C   0  0  0  0  0  0  0  0  0
    1.7363    1.9125    0.0000 C   0  0  0  0  0  0  0  0  0
    1.1843    1.2994    0.0000 C   0  0  0  0  0  0  0  0  0
    1.3558    0.4924    0.0000 C   0  0  0  0  0  0  0  0  0
   -3.1417    0.3974    0.0000 C   0  0  0  0  0  0  0  0  0
   -3.8562   -0.0151    0.0000 C   0  0  0  0  0  0  0  0  0
  1  2  4  0  0  0  0
  1  5  4  0  0  0  0
  2  3  4  0  0  0  0
  3  4  4  0  0  0  0
  3 12  1  0  0  0  0
  4  5  4  0  0  0  0
  5  6  1  0  0  0  0
  6  7  4  0  0  0  0
  6 10  4  0  0  0  0
  7  8  4  0  0  0  0
  8  9  4  0  0  0  0
  9 10  4  0  0  0  0
  9 11  1  0  0  0  0
 12 13  4  0  0  0  0
 12 29  4  0  0  0  0
 13 14  4  0  0  0  0
 14 15  4  0  0  0  0
 14 19  4  0  0  0  0
 15 16  4  0  0  0  0
 15 28  4  0  0  0  0
 16 17  4  0  0  0  0
 17 18  4  0  0  0  0
 17 20  1  0  0  0  0
 18 19  4  0  0  0  0
 20 21  1  0  0  0  0
 21 22  1  0  0  0  0
 22 23  1  0  0  0  0
 22 26  1  0  0  0  0
 23 24  1  0  0  0  0
 24 25  1  0  0  0  0
 25 26  1  0  0  0  0
 26 27  1  0  0  0  0
 28 29  4  0  0  0  0
M  END
>  <Name_Molregno>
631808

>  <HISTAMINE H3>
9.05

$$$$
631809
  Marvin  02231216192D 0   1.00000     0.00000     0

 27 31  0  0  1  0  0  0  0  0999 V2000
   -8.3476   -1.4676    0.0000 O   0  0  0  0  0  0  0  0  0
   -7.5630   -1.7225    0.0000 C   0  0  0  0  0  0  0  0  0
   -6.8485   -1.3100    0.0000 C   0  0  0  0  0  0  0  0  0
   -6.1341   -1.7225    0.0000 C   0  0  0  0  0  0  0  0  0
   -6.1341   -2.5475    0.0000 C   0  0  0  0  0  0  0  0  0
   -6.8485   -2.9600    0.0000 N   0  0  0  0  0  0  0  0  0
   -7.5630   -2.5475    0.0000 C   0  0  0  0  0  0  0  0  0
   -8.3476   -2.8024    0.0000 O   0  0  0  0  0  0  0  0  0
   -8.8326   -2.1350    0.0000 C   0  0  0  0  0  0  0  0  0
   -5.4196   -1.3100    0.0000 C   0  0  0  0  0  0  0  0  0
   -4.7051   -1.7225    0.0000 N   0  0  0  0  0  0  0  0  0
   -3.9907   -1.3100    0.0000 C   0  0  0  0  0  0  0  0  0
   -3.9907   -0.4850    0.0000 C   0  0  0  0  0  0  0  0  0
   -3.2762   -0.0725    0.0000 C   0  0  0  0  0  0  0  0  0
   -2.5617   -0.4850    0.0000 C   0  0  0  0  0  0  0  0  0
   -2.5617   -1.3100    0.0000 C   0  0  0  0  0  0  0  0  0
   -3.2762   -1.7225    0.0000 C   0  0  0  0  0  0  0  0  0
   -1.8472   -0.0725    0.0000 C   0  0  0  0  0  0  0  0  0
   -1.8472    0.7525    0.0000 C   0  0  0  0  0  0  0  0  0
   -1.1328    1.1650    0.0000 N   0  0  0  0  0  0  0  0  0
   -1.0465    1.9855    0.0000 C   0  0  0  0  0  0  0  0  0
   -0.2396    2.1570    0.0000 C   0  0  0  0  0  0  0  0  0
    0.1729    1.4425    0.0000 C   0  0  0  0  0  0  0  0  0
   -0.3791    0.8294    0.0000 C   0  0  0  0  0  0  0  0  0
   -0.2076    0.0225    0.0000 C   0  0  0  0  0  0  0  0  0
   -4.7051   -0.0725    0.0000 C   0  0  0  0  0  0  0  0  0
   -5.4196   -0.4850    0.0000 C   0  0  0  0  0  0  0  0  0
  1  2  1  0  0  0  0
  1  9  1  0  0  0  0
  2  3  4  0  0  0  0
  2  7  4  0  0  0  0
  3  4  4  0  0  0  0
  4  5  4  0  0  0  0
  4 10  1  0  0  0  0
  5  6  4  0  0  0  0
  6  7  4  0  0  0  0
  7  8  1  0  0  0  0
  8  9  1  0  0  0  0
 10 11  4  0  0  0  0
 10 27  4  0  0  0  0
 11 12  4  0  0  0  0
 12 13  4  0  0  0  0
 12 17  4  0  0  0  0
 13 14  4  0  0  0  0
 13 26  4  0  0  0  0
 14 15  4  0  0  0  0
 15 16  4  0  0  0  0
 15 18  1  0  0  0  0
 16 17  4  0  0  0  0
 18 19  1  0  0  0  0
 19 20  1  0  0  0  0
 20 21  1  0  0  0  0
 20 24  1  0  0  0  0
 21 22  1  0  0  0  0
 22 23  1  0  0  0  0
 23 24  1  0  0  0  0
 24 25  1  0  0  0  0
 26 27  4  0  0  0  0
M  END
>  <Name_Molregno>
631809

>  <HISTAMINE H3>
9.08

$$$$
631885
  Marvin  02231216192D 0   1.00000     0.00000     0

 27 31  0  0  1  0  0  0  0  0999 V2000
    0.0834    0.6487    0.0000 N   0  0  0  0  0  0  0  0  0
    0.7979    0.2362    0.0000 C   0  0  0  0  0  0  0  0  0
    1.5124    0.6487    0.0000 C   0  0  0  0  0  0  0  0  0
    2.2268    0.2362    0.0000 C   0  0  0  0  0  0  0  0  0
    2.2268   -0.5888    0.0000 C   0  0  0  0  0  0  0  0  0
    1.5124   -1.0013    0.0000 C   0  0  0  0  0  0  0  0  0
    0.7979   -0.5888    0.0000 C   0  0  0  0  0  0  0  0  0
    2.9413   -1.0013    0.0000 C   0  0  0  0  0  0  0  0  0
    2.9413   -1.8263    0.0000 C   0  0  0  0  0  0  0  0  0
    3.6558   -2.2388    0.0000 N   0  0  0  0  0  0  0  0  0
    4.4094   -1.9033    0.0000 C   0  0  0  0  0  0  0  0  0
    4.9615   -2.5164    0.0000 C   0  0  0  0  0  0  0  0  0
    4.5490   -3.2309    0.0000 C   0  0  0  0  0  0  0  0  0
    3.7420   -3.0593    0.0000 C   0  0  0  0  0  0  0  0  0
    3.1289   -3.6114    0.0000 C   0  0  0  0  0  0  0  0  0
    1.5124    1.4737    0.0000 C   0  0  0  0  0  0  0  0  0
    0.7979    1.8862    0.0000 C   0  0  0  0  0  0  0  0  0
    0.0834    1.4737    0.0000 C   0  0  0  0  0  0  0  0  0
   -0.6311    1.8862    0.0000 C   0  0  0  0  0  0  0  0  0
   -1.3455    1.4737    0.0000 N   0  0  0  0  0  0  0  0  0
   -2.0600    1.8862    0.0000 C   0  0  0  0  0  0  0  0  0
   -2.0600    2.7112    0.0000 N   0  0  0  0  0  0  0  0  0
   -2.8446    2.9661    0.0000 N   0  0  0  0  0  0  0  0  0
   -3.3295    2.2987    0.0000 C   0  0  0  0  0  0  0  0  0
   -2.8446    1.6312    0.0000 N   0  0  0  0  0  0  0  0  0
   -1.3455    3.1237    0.0000 C   0  0  0  0  0  0  0  0  0
   -0.6311    2.7112    0.0000 C   0  0  0  0  0  0  0  0  0
  1  2  4  0  0  0  0
  1 18  4  0  0  0  0
  2  3  4  0  0  0  0
  2  7  4  0  0  0  0
  3  4  4  0  0  0  0
  3 16  4  0  0  0  0
  4  5  4  0  0  0  0
  5  6  4  0  0  0  0
  5  8  1  0  0  0  0
  6  7  4  0  0  0  0
  8  9  1  0  0  0  0
  9 10  1  0  0  0  0
 10 11  1  0  0  0  0
 10 14  1  0  0  0  0
 11 12  1  0  0  0  0
 12 13  1  0  0  0  0
 13 14  1  0  0  0  0
 14 15  1  0  0  0  0
 16 17  4  0  0  0  0
 17 18  4  0  0  0  0
 18 19  1  0  0  0  0
 19 20  4  0  0  0  0
 19 27  4  0  0  0  0
 20 21  4  0  0  0  0
 21 22  4  0  0  0  0
 21 25  4  0  0  0  0
 22 23  4  0  0  0  0
 22 26  4  0  0  0  0
 23 24  4  0  0  0  0
 24 25  4  0  0  0  0
 26 27  4  0  0  0  0
M  END
>  <Name_Molregno>
631885

>  <HISTAMINE H3>
9.16

$$$$
631953
  Marvin  02231216192D 0   1.00000     0.00000     0

 33 37  0  0  1  0  0  0  0  0999 V2000
    0.0148   -0.0139    0.0000 N   0  0  0  0  0  0  0  0  0
    0.7293    0.3986    0.0000 C   0  0  0  0  0  0  0  0  0
    0.7293    1.2236    0.0000 C   0  0  0  0  0  0  0  0  0
    1.4438    1.6361    0.0000 C   0  0  0  0  0  0  0  0  0
    2.1582    1.2236    0.0000 C   0  0  0  0  0  0  0  0  0
    2.1582    0.3986    0.0000 C   0  0  0  0  0  0  0  0  0
    1.4438   -0.0139    0.0000 C   0  0  0  0  0  0  0  0  0
    2.8727    1.6361    0.0000 C   0  0  0  0  0  0  0  0  0
    3.5872    1.2236    0.0000 C   0  0  0  0  0  0  0  0  0
    4.3016    1.6361    0.0000 N   0  0  0  0  0  0  0  0  0
    4.3879    2.4566    0.0000 C   0  0  0  0  0  0  0  0  0
    5.1949    2.6281    0.0000 C   0  0  0  0  0  0  0  0  0
    5.6074    1.9137    0.0000 C   0  0  0  0  0  0  0  0  0
    5.0553    1.3006    0.0000 C   0  0  0  0  0  0  0  0  0
    5.2268    0.4936    0.0000 C   0  0  0  0  0  0  0  0  0
    0.0148    1.6361    0.0000 C   0  0  0  0  0  0  0  0  0
   -0.6996    1.2236    0.0000 C   0  0  0  0  0  0  0  0  0
   -0.6996    0.3986    0.0000 C   0  0  0  0  0  0  0  0  0
   -1.4141   -0.0139    0.0000 C   0  0  0  0  0  0  0  0  0
   -1.5004   -0.8343    0.0000 C   0  0  0  0  0  0  0  0  0
   -2.3073   -1.0059    0.0000 N   0  0  0  0  0  0  0  0  0
   -2.7198   -0.2914    0.0000 N   0  0  0  0  0  0  0  0  0
   -2.1678    0.3217    0.0000 C   0  0  0  0  0  0  0  0  0
   -2.3393    1.1287    0.0000 C   0  0  0  0  0  0  0  0  0
   -3.5403   -0.2052    0.0000 C   0  0  0  0  0  0  0  0  0
   -4.0252   -0.8726    0.0000 N   0  0  0  0  0  0  0  0  0
   -4.8457   -0.7864    0.0000 N   0  0  0  0  0  0  0  0  0
   -5.1813   -0.0327    0.0000 C   0  0  0  0  0  0  0  0  0
   -6.0018    0.0535    0.0000 N   0  0  0  0  0  0  0  0  0
   -6.4867   -0.6139    0.0000 C   0  0  0  0  0  0  0  0  0
   -6.3373    0.8072    0.0000 C   0  0  0  0  0  0  0  0  0
   -4.6963    0.6348    0.0000 C   0  0  0  0  0  0  0  0  0
   -3.8759    0.5485    0.0000 C   0  0  0  0  0  0  0  0  0
  1  2  4  0  0  0  0
  1 18  4  0  0  0  0
  2  3  4  0  0  0  0
  2  7  4  0  0  0  0
  3  4  4  0  0  0  0
  3 16  4  0  0  0  0
  4  5  4  0  0  0  0
  5  6  4  0  0  0  0
  5  8  1  0  0  0  0
  6  7  4  0  0  0  0
  8  9  1  0  0  0  0
  9 10  1  0  0  0  0
 10 11  1  0  0  0  0
 10 14  1  0  0  0  0
 11 12  1  0  0  0  0
 12 13  1  0  0  0  0
 13 14  1  0  0  0  0
 14 15  1  0  0  0  0
 16 17  4  0  0  0  0
 17 18  4  0  0  0  0
 18 19  1  0  0  0  0
 19 20  4  0  0  0  0
 19 23  4  0  0  0  0
 20 21  4  0  0  0  0
 21 22  4  0  0  0  0
 22 23  4  0  0  0  0
 22 25  1  0  0  0  0
 23 24  1  0  0  0  0
 25 26  4  0  0  0  0
 25 33  4  0  0  0  0
 26 27  4  0  0  0  0
 27 28  4  0  0  0  0
 28 29  1  0  0  0  0
 28 32  4  0  0  0  0
 29 30  1  0  0  0  0
 29 31  1  0  0  0  0
 32 33  4  0  0  0  0
M  END
>  <Name_Molregno>
631953

>  <HISTAMINE H3>
9.72

$$$$
631954
  Marvin  02231216192D 0   1.00000     0.00000     0

 32 36  0  0  1  0  0  0  0  0999 V2000
    0.5510   -2.3319    0.0000 Cl  0  0  0  0  0  0  0  0  0
    1.3714   -2.2457    0.0000 C   0  0  0  0  0  0  0  0  0
    1.7070   -1.4920    0.0000 C   0  0  0  0  0  0  0  0  0
    2.5275   -1.4058    0.0000 C   0  0  0  0  0  0  0  0  0
    2.8630   -0.6521    0.0000 N   0  0  0  0  0  0  0  0  0
    2.4505    0.0623    0.0000 N   0  0  0  0  0  0  0  0  0
    3.0026    0.6754    0.0000 C   0  0  0  0  0  0  0  0  0
    3.7562    0.3399    0.0000 C   0  0  0  0  0  0  0  0  0
    4.4707    0.7524    0.0000 C   0  0  0  0  0  0  0  0  0
    5.1852    0.3399    0.0000 N   0  0  0  0  0  0  0  0  0
    5.8997    0.7524    0.0000 C   0  0  0  0  0  0  0  0  0
    5.8997    1.5774    0.0000 C   0  0  0  0  0  0  0  0  0
    6.6141    1.9899    0.0000 C   0  0  0  0  0  0  0  0  0
    7.3286    1.5774    0.0000 C   0  0  0  0  0  0  0  0  0
    7.3286    0.7524    0.0000 C   0  0  0  0  0  0  0  0  0
    6.6141    0.3399    0.0000 C   0  0  0  0  0  0  0  0  0
    8.0431    1.9899    0.0000 C   0  0  0  0  0  0  0  0  0
    8.7575    1.5774    0.0000 C   0  0  0  0  0  0  0  0  0
    9.4720    1.9899    0.0000 N   0  0  0  0  0  0  0  0  0
    9.5583    2.8104    0.0000 C   0  0  0  0  0  0  0  0  0
   10.3652    2.9819    0.0000 C   0  0  0  0  0  0  0  0  0
   10.7777    2.2674    0.0000 C   0  0  0  0  0  0  0  0  0
   10.2257    1.6543    0.0000 C   0  0  0  0  0  0  0  0  0
   10.3972    0.8474    0.0000 C   0  0  0  0  0  0  0  0  0
    5.1852    1.9899    0.0000 C   0  0  0  0  0  0  0  0  0
    4.4707    1.5774    0.0000 C   0  0  0  0  0  0  0  0  0
    3.6700   -0.4806    0.0000 C   0  0  0  0  0  0  0  0  0
    4.2831   -1.0326    0.0000 C   0  0  0  0  0  0  0  0  0
    3.0124   -2.0732    0.0000 C   0  0  0  0  0  0  0  0  0
    2.6768   -2.8269    0.0000 C   0  0  0  0  0  0  0  0  0
    1.8564   -2.9132    0.0000 C   0  0  0  0  0  0  0  0  0
    1.5208   -3.6668    0.0000 Cl  0  0  0  0  0  0  0  0  0
  1  2  1  0  0  0  0
  2  3  4  0  0  0  0
  2 31  4  0  0  0  0
  3  4  4  0  0  0  0
  4  5  1  0  0  0  0
  4 29  4  0  0  0  0
  5  6  4  0  0  0  0
  5 27  4  0  0  0  0
  6  7  4  0  0  0  0
  7  8  4  0  0  0  0
  8  9  1  0  0  0  0
  8 27  4  0  0  0  0
  9 10  4  0  0  0  0
  9 26  4  0  0  0  0
 10 11  4  0  0  0  0
 11 12  4  0  0  0  0
 11 16  4  0  0  0  0
 12 13  4  0  0  0  0
 12 25  4  0  0  0  0
 13 14  4  0  0  0  0
 14 15  4  0  0  0  0
 14 17  1  0  0  0  0
 15 16  4  0  0  0  0
 17 18  1  0  0  0  0
 18 19  1  0  0  0  0
 19 20  1  0  0  0  0
 19 23  1  0  0  0  0
 20 21  1  0  0  0  0
 21 22  1  0  0  0  0
 22 23  1  0  0  0  0
 23 24  1  0  0  0  0
 25 26  4  0  0  0  0
 27 28  1  0  0  0  0
 29 30  4  0  0  0  0
 30 31  4  0  0  0  0
 31 32  1  0  0  0  0
M  END
>  <Name_Molregno>
631954

>  <HISTAMINE H3>
9.13

$$$$
632017
  Marvin  02231216192D 0   1.00000     0.00000     0

 35 39  0  0  1  0  0  0  0  0999 V2000
    3.9474   -4.0561    0.0000 F   0  0  0  0  0  0  0  0  0
    3.4624   -3.3887    0.0000 C   0  0  0  0  0  0  0  0  0
    4.1299   -2.9037    0.0000 F   0  0  0  0  0  0  0  0  0
    2.7950   -3.8736    0.0000 F   0  0  0  0  0  0  0  0  0
    2.9775   -2.7212    0.0000 C   0  0  0  0  0  0  0  0  0
    2.1570   -2.8075    0.0000 C   0  0  0  0  0  0  0  0  0
    1.6721   -2.1400    0.0000 C   0  0  0  0  0  0  0  0  0
    2.0077   -1.3863    0.0000 N   0  0  0  0  0  0  0  0  0
    2.8281   -1.3001    0.0000 C   0  0  0  0  0  0  0  0  0
    3.1637   -0.5464    0.0000 N   0  0  0  0  0  0  0  0  0
    2.7512    0.1680    0.0000 N   0  0  0  0  0  0  0  0  0
    3.3032    0.7811    0.0000 C   0  0  0  0  0  0  0  0  0
    4.0569    0.4456    0.0000 C   0  0  0  0  0  0  0  0  0
    4.7714    0.8581    0.0000 C   0  0  0  0  0  0  0  0  0
    5.4859    0.4456    0.0000 N   0  0  0  0  0  0  0  0  0
    6.2003    0.8581    0.0000 C   0  0  0  0  0  0  0  0  0
    6.2003    1.6831    0.0000 C   0  0  0  0  0  0  0  0  0
    6.9148    2.0956    0.0000 C   0  0  0  0  0  0  0  0  0
    7.6293    1.6831    0.0000 C   0  0  0  0  0  0  0  0  0
    7.6293    0.8581    0.0000 C   0  0  0  0  0  0  0  0  0
    6.9148    0.4456    0.0000 C   0  0  0  0  0  0  0  0  0
    8.3437    2.0956    0.0000 C   0  0  0  0  0  0  0  0  0
    8.3437    2.9206    0.0000 C   0  0  0  0  0  0  0  0  0
    9.0582    3.3331    0.0000 N   0  0  0  0  0  0  0  0  0
    9.1444    4.1536    0.0000 C   0  0  0  0  0  0  0  0  0
    9.9514    4.3251    0.0000 C   0  0  0  0  0  0  0  0  0
   10.3639    3.6106    0.0000 C   0  0  0  0  0  0  0  0  0
    9.8119    2.9975    0.0000 C   0  0  0  0  0  0  0  0  0
    9.9834    2.1905    0.0000 C   0  0  0  0  0  0  0  0  0
    5.4859    2.0956    0.0000 C   0  0  0  0  0  0  0  0  0
    4.7714    1.6831    0.0000 C   0  0  0  0  0  0  0  0  0
    3.9707   -0.3749    0.0000 C   0  0  0  0  0  0  0  0  0
    4.5838   -0.9269    0.0000 C   0  0  0  0  0  0  0  0  0
    3.3131   -1.9675    0.0000 C   0  0  0  0  0  0  0  0  0
    0.8516   -2.2263    0.0000 C   0  0  0  0  0  0  0  0  0
  1  2  1  0  0  0  0
  2  3  1  0  0  0  0
  2  4  1  0  0  0  0
  2  5  1  0  0  0  0
  5  6  4  0  0  0  0
  5 34  4  0  0  0  0
  6  7  4  0  0  0  0
  7  8  4  0  0  0  0
  7 35  1  0  0  0  0
  8  9  4  0  0  0  0
  9 10  1  0  0  0  0
  9 34  4  0  0  0  0
 10 11  4  0  0  0  0
 10 32  4  0  0  0  0
 11 12  4  0  0  0  0
 12 13  4  0  0  0  0
 13 14  1  0  0  0  0
 13 32  4  0  0  0  0
 14 15  4  0  0  0  0
 14 31  4  0  0  0  0
 15 16  4  0  0  0  0
 16 17  4  0  0  0  0
 16 21  4  0  0  0  0
 17 18  4  0  0  0  0
 17 30  4  0  0  0  0
 18 19  4  0  0  0  0
 19 20  4  0  0  0  0
 19 22  1  0  0  0  0
 20 21  4  0  0  0  0
 22 23  1  0  0  0  0
 23 24  1  0  0  0  0
 24 25  1  0  0  0  0
 24 28  1  0  0  0  0
 25 26  1  0  0  0  0
 26 27  1  0  0  0  0
 27 28  1  0  0  0  0
 28 29  1  0  0  0  0
 30 31  4  0  0  0  0
 32 33  1  0  0  0  0
M  END
>  <Name_Molregno>
632017

>  <HISTAMINE H3>
8.96

$$$$
632018
  Marvin  02231216192D 0   1.00000     0.00000     0

 29 33  0  0  1  0  0  0  0  0999 V2000
   -6.0379   -0.4631    0.0000 S   0  0  0  0  0  0  0  0  0
   -5.4858    0.1500    0.0000 C   0  0  0  0  0  0  0  0  0
   -4.7321   -0.1855    0.0000 C   0  0  0  0  0  0  0  0  0
   -4.8184   -1.0060    0.0000 N   0  0  0  0  0  0  0  0  0
   -5.6254   -1.1775    0.0000 C   0  0  0  0  0  0  0  0  0
   -5.9609   -1.9312    0.0000 C   0  0  0  0  0  0  0  0  0
   -5.4760   -2.5987    0.0000 C   0  0  0  0  0  0  0  0  0
   -5.8115   -3.3523    0.0000 C   0  0  0  0  0  0  0  0  0
   -6.6320   -3.4386    0.0000 C   0  0  0  0  0  0  0  0  0
   -7.1169   -2.7711    0.0000 C   0  0  0  0  0  0  0  0  0
   -6.7814   -2.0175    0.0000 C   0  0  0  0  0  0  0  0  0
   -4.0177    0.2270    0.0000 C   0  0  0  0  0  0  0  0  0
   -3.3032   -0.1855    0.0000 N   0  0  0  0  0  0  0  0  0
   -2.5887    0.2270    0.0000 C   0  0  0  0  0  0  0  0  0
   -2.5887    1.0520    0.0000 C   0  0  0  0  0  0  0  0  0
   -1.8743    1.4645    0.0000 C   0  0  0  0  0  0  0  0  0
   -1.1598    1.0520    0.0000 C   0  0  0  0  0  0  0  0  0
   -1.1598    0.2270    0.0000 C   0  0  0  0  0  0  0  0  0
   -1.8743   -0.1855    0.0000 C   0  0  0  0  0  0  0  0  0
   -0.4453    1.4645    0.0000 C   0  0  0  0  0  0  0  0  0
   -0.4453    2.2895    0.0000 C   0  0  0  0  0  0  0  0  0
    0.2692    2.7020    0.0000 N   0  0  0  0  0  0  0  0  0
    0.3554    3.5224    0.0000 C   0  0  0  0  0  0  0  0  0
    1.1624    3.6940    0.0000 C   0  0  0  0  0  0  0  0  0
    1.5749    2.9795    0.0000 C   0  0  0  0  0  0  0  0  0
    1.0228    2.3664    0.0000 C   0  0  0  0  0  0  0  0  0
    1.1944    1.5594    0.0000 C   0  0  0  0  0  0  0  0  0
   -3.3032    1.4645    0.0000 C   0  0  0  0  0  0  0  0  0
   -4.0177    1.0520    0.0000 C   0  0  0  0  0  0  0  0  0
  1  2  4  0  0  0  0
  1  5  4  0  0  0  0
  2  3  4  0  0  0  0
  3  4  4  0  0  0  0
  3 12  1  0  0  0  0
  4  5  4  0  0  0  0
  5  6  1  0  0  0  0
  6  7  4  0  0  0  0
  6 11  4  0  0  0  0
  7  8  4  0  0  0  0
  8  9  4  0  0  0  0
  9 10  4  0  0  0  0
 10 11  4  0  0  0  0
 12 13  4  0  0  0  0
 12 29  4  0  0  0  0
 13 14  4  0  0  0  0
 14 15  4  0  0  0  0
 14 19  4  0  0  0  0
 15 16  4  0  0  0  0
 15 28  4  0  0  0  0
 16 17  4  0  0  0  0
 17 18  4  0  0  0  0
 17 20  1  0  0  0  0
 18 19  4  0  0  0  0
 20 21  1  0  0  0  0
 21 22  1  0  0  0  0
 22 23  1  0  0  0  0
 22 26  1  0  0  0  0
 23 24  1  0  0  0  0
 24 25  1  0  0  0  0
 25 26  1  0  0  0  0
 26 27  1  0  0  0  0
 28 29  4  0  0  0  0
M  END
>  <Name_Molregno>
632018

>  <HISTAMINE H3>
8.17

$$$$
632019
  Marvin  02231216192D 0   1.00000     0.00000     0

 35 39  0  0  1  0  0  0  0  0999 V2000
   -3.3564   -1.4028    0.0000 S   0  0  0  0  0  0  0  0  0
   -2.8043   -0.7898    0.0000 C   0  0  0  0  0  0  0  0  0
   -2.0507   -1.1253    0.0000 C   0  0  0  0  0  0  0  0  0
   -2.1369   -1.9458    0.0000 N   0  0  0  0  0  0  0  0  0
   -2.9439   -2.1173    0.0000 C   0  0  0  0  0  0  0  0  0
   -3.2794   -2.8710    0.0000 C   0  0  0  0  0  0  0  0  0
   -2.7945   -3.5384    0.0000 C   0  0  0  0  0  0  0  0  0
   -3.1301   -4.2921    0.0000 C   0  0  0  0  0  0  0  0  0
   -3.9506   -4.3783    0.0000 C   0  0  0  0  0  0  0  0  0
   -4.2861   -5.1320    0.0000 O   0  0  0  0  0  0  0  0  0
   -5.1066   -5.2183    0.0000 C   0  0  0  0  0  0  0  0  0
   -5.4421   -5.9719    0.0000 C   0  0  0  0  0  0  0  0  0
   -5.7777   -6.7256    0.0000 F   0  0  0  0  0  0  0  0  0
   -4.6885   -6.3075    0.0000 F   0  0  0  0  0  0  0  0  0
   -6.1958   -5.6364    0.0000 F   0  0  0  0  0  0  0  0  0
   -4.4355   -3.7109    0.0000 N   0  0  0  0  0  0  0  0  0
   -4.0999   -2.9572    0.0000 C   0  0  0  0  0  0  0  0  0
   -1.3362   -0.7128    0.0000 C   0  0  0  0  0  0  0  0  0
   -0.6217   -1.1253    0.0000 N   0  0  0  0  0  0  0  0  0
    0.0927   -0.7128    0.0000 C   0  0  0  0  0  0  0  0  0
    0.0927    0.1122    0.0000 C   0  0  0  0  0  0  0  0  0
    0.8072    0.5247    0.0000 C   0  0  0  0  0  0  0  0  0
    1.5217    0.1122    0.0000 C   0  0  0  0  0  0  0  0  0
    1.5217   -0.7128    0.0000 C   0  0  0  0  0  0  0  0  0
    0.8072   -1.1253    0.0000 C   0  0  0  0  0  0  0  0  0
    2.2362    0.5247    0.0000 C   0  0  0  0  0  0  0  0  0
    2.2362    1.3497    0.0000 C   0  0  0  0  0  0  0  0  0
    2.9506    1.7622    0.0000 N   0  0  0  0  0  0  0  0  0
    3.0369    2.5827    0.0000 C   0  0  0  0  0  0  0  0  0
    3.8438    2.7542    0.0000 C   0  0  0  0  0  0  0  0  0
    4.2563    2.0397    0.0000 C   0  0  0  0  0  0  0  0  0
    3.7043    1.4266    0.0000 C   0  0  0  0  0  0  0  0  0
    3.8758    0.6197    0.0000 C   0  0  0  0  0  0  0  0  0
   -0.6217    0.5247    0.0000 C   0  0  0  0  0  0  0  0  0
   -1.3362    0.1122    0.0000 C   0  0  0  0  0  0  0  0  0
  1  2  4  0  0  0  0
  1  5  4  0  0  0  0
  2  3  4  0  0  0  0
  3  4  4  0  0  0  0
  3 18  1  0  0  0  0
  4  5  4  0  0  0  0
  5  6  1  0  0  0  0
  6  7  4  0  0  0  0
  6 17  4  0  0  0  0
  7  8  4  0  0  0  0
  8  9  4  0  0  0  0
  9 10  1  0  0  0  0
  9 16  4  0  0  0  0
 10 11  1  0  0  0  0
 11 12  1  0  0  0  0
 12 13  1  0  0  0  0
 12 14  1  0  0  0  0
 12 15  1  0  0  0  0
 16 17  4  0  0  0  0
 18 19  4  0  0  0  0
 18 35  4  0  0  0  0
 19 20  4  0  0  0  0
 20 21  4  0  0  0  0
 20 25  4  0  0  0  0
 21 22  4  0  0  0  0
 21 34  4  0  0  0  0
 22 23  4  0  0  0  0
 23 24  4  0  0  0  0
 23 26  1  0  0  0  0
 24 25  4  0  0  0  0
 26 27  1  0  0  0  0
 27 28  1  0  0  0  0
 28 29  1  0  0  0  0
 28 32  1  0  0  0  0
 29 30  1  0  0  0  0
 30 31  1  0  0  0  0
 31 32  1  0  0  0  0
 32 33  1  0  0  0  0
 34 35  4  0  0  0  0
M  END
>  <Name_Molregno>
632019

>  <HISTAMINE H3>
7.6

$$$$
632020
  Marvin  02231216192D 0   1.00000     0.00000     0

 29 33  0  0  1  0  0  0  0  0999 V2000
   -4.5431   -1.0063    0.0000 S   0  0  0  0  0  0  0  0  0
   -3.7895   -1.3419    0.0000 C   0  0  0  0  0  0  0  0  0
   -3.8757   -2.1624    0.0000 C   0  0  0  0  0  0  0  0  0
   -4.6827   -2.3339    0.0000 C   0  0  0  0  0  0  0  0  0
   -5.0952   -1.6194    0.0000 C   0  0  0  0  0  0  0  0  0
   -5.9156   -1.5332    0.0000 C   0  0  0  0  0  0  0  0  0
   -6.4677   -2.1463    0.0000 S   0  0  0  0  0  0  0  0  0
   -7.2213   -1.8107    0.0000 C   0  0  0  0  0  0  0  0  0
   -7.1351   -0.9903    0.0000 C   0  0  0  0  0  0  0  0  0
   -6.3281   -0.8187    0.0000 C   0  0  0  0  0  0  0  0  0
   -7.9358   -2.2232    0.0000 C   0  0  0  0  0  0  0  0  0
   -3.0750   -0.9294    0.0000 C   0  0  0  0  0  0  0  0  0
   -2.3605   -1.3419    0.0000 N   0  0  0  0  0  0  0  0  0
   -1.6460   -0.9294    0.0000 C   0  0  0  0  0  0  0  0  0
   -1.6460   -0.1044    0.0000 C   0  0  0  0  0  0  0  0  0
   -0.9316    0.3081    0.0000 C   0  0  0  0  0  0  0  0  0
   -0.2171   -0.1044    0.0000 C   0  0  0  0  0  0  0  0  0
   -0.2171   -0.9294    0.0000 C   0  0  0  0  0  0  0  0  0
   -0.9316   -1.3419    0.0000 C   0  0  0  0  0  0  0  0  0
    0.4974    0.3081    0.0000 C   0  0  0  0  0  0  0  0  0
    0.4974    1.1331    0.0000 C   0  0  0  0  0  0  0  0  0
    1.2118    1.5456    0.0000 N   0  0  0  0  0  0  0  0  0
    1.2981    2.3661    0.0000 C   0  0  0  0  0  0  0  0  0
    2.1051    2.5376    0.0000 C   0  0  0  0  0  0  0  0  0
    2.5176    1.8231    0.0000 C   0  0  0  0  0  0  0  0  0
    1.9655    1.2100    0.0000 C   0  0  0  0  0  0  0  0  0
    2.1370    0.4031    0.0000 C   0  0  0  0  0  0  0  0  0
   -2.3605    0.3081    0.0000 C   0  0  0  0  0  0  0  0  0
   -3.0750   -0.1044    0.0000 C   0  0  0  0  0  0  0  0  0
  1  2  4  0  0  0  0
  1  5  4  0  0  0  0
  2  3  4  0  0  0  0
  2 12  1  0  0  0  0
  3  4  4  0  0  0  0
  4  5  4  0  0  0  0
  5  6  1  0  0  0  0
  6  7  4  0  0  0  0
  6 10  4  0  0  0  0
  7  8  4  0  0  0  0
  8  9  4  0  0  0  0
  8 11  1  0  0  0  0
  9 10  4  0  0  0  0
 12 13  4  0  0  0  0
 12 29  4  0  0  0  0
 13 14  4  0  0  0  0
 14 15  4  0  0  0  0
 14 19  4  0  0  0  0
 15 16  4  0  0  0  0
 15 28  4  0  0  0  0
 16 17  4  0  0  0  0
 17 18  4  0  0  0  0
 17 20  1  0  0  0  0
 18 19  4  0  0  0  0
 20 21  1  0  0  0  0
 21 22  1  0  0  0  0
 22 23  1  0  0  0  0
 22 26  1  0  0  0  0
 23 24  1  0  0  0  0
 24 25  1  0  0  0  0
 25 26  1  0  0  0  0
 26 27  1  0  0  0  0
 28 29  4  0  0  0  0
M  END
>  <Name_Molregno>
632020

>  <HISTAMINE H3>
7.68

$$$$
632088
  Marvin  02231216192D 0   1.00000     0.00000     0

 29 33  0  0  1  0  0  0  0  0999 V2000
   -4.8552   -0.3150    0.0000 S   0  0  0  0  0  0  0  0  0
   -4.1015   -0.6505    0.0000 C   0  0  0  0  0  0  0  0  0
   -3.3870   -0.2380    0.0000 C   0  0  0  0  0  0  0  0  0
   -2.6726   -0.6505    0.0000 N   0  0  0  0  0  0  0  0  0
   -1.9581   -0.2380    0.0000 C   0  0  0  0  0  0  0  0  0
   -1.9581    0.5870    0.0000 C   0  0  0  0  0  0  0  0  0
   -1.2436    0.9995    0.0000 C   0  0  0  0  0  0  0  0  0
   -0.5292    0.5870    0.0000 C   0  0  0  0  0  0  0  0  0
   -0.5292   -0.2380    0.0000 C   0  0  0  0  0  0  0  0  0
   -1.2436   -0.6505    0.0000 C   0  0  0  0  0  0  0  0  0
    0.1853    0.9995    0.0000 C   0  0  0  0  0  0  0  0  0
    0.8998    0.5870    0.0000 C   0  0  0  0  0  0  0  0  0
    1.6143    0.9995    0.0000 N   0  0  0  0  0  0  0  0  0
    1.7005    1.8200    0.0000 C   0  0  0  0  0  0  0  0  0
    2.5075    1.9915    0.0000 C   0  0  0  0  0  0  0  0  0
    2.9200    1.2770    0.0000 C   0  0  0  0  0  0  0  0  0
    2.3679    0.6639    0.0000 C   0  0  0  0  0  0  0  0  0
    2.5395   -0.1430    0.0000 C   0  0  0  0  0  0  0  0  0
   -2.6726    0.9995    0.0000 C   0  0  0  0  0  0  0  0  0
   -3.3870    0.5870    0.0000 C   0  0  0  0  0  0  0  0  0
   -4.1878   -1.4710    0.0000 C   0  0  0  0  0  0  0  0  0
   -4.9947   -1.6425    0.0000 N   0  0  0  0  0  0  0  0  0
   -5.4072   -0.9280    0.0000 C   0  0  0  0  0  0  0  0  0
   -6.2277   -0.8418    0.0000 C   0  0  0  0  0  0  0  0  0
   -6.7797   -1.4549    0.0000 S   0  0  0  0  0  0  0  0  0
   -7.5334   -1.1194    0.0000 C   0  0  0  0  0  0  0  0  0
   -7.4472   -0.2989    0.0000 C   0  0  0  0  0  0  0  0  0
   -6.6402   -0.1273    0.0000 C   0  0  0  0  0  0  0  0  0
   -3.5747   -2.0230    0.0000 C   0  0  0  0  0  0  0  0  0
  1  2  4  0  0  0  0
  1 23  4  0  0  0  0
  2  3  1  0  0  0  0
  2 21  4  0  0  0  0
  3  4  4  0  0  0  0
  3 20  4  0  0  0  0
  4  5  4  0  0  0  0
  5  6  4  0  0  0  0
  5 10  4  0  0  0  0
  6  7  4  0  0  0  0
  6 19  4  0  0  0  0
  7  8  4  0  0  0  0
  8  9  4  0  0  0  0
  8 11  1  0  0  0  0
  9 10  4  0  0  0  0
 11 12  1  0  0  0  0
 12 13  1  0  0  0  0
 13 14  1  0  0  0  0
 13 17  1  0  0  0  0
 14 15  1  0  0  0  0
 15 16  1  0  0  0  0
 16 17  1  0  0  0  0
 17 18  1  0  0  0  0
 19 20  4  0  0  0  0
 21 22  4  0  0  0  0
 21 29  1  0  0  0  0
 22 23  4  0  0  0  0
 23 24  1  0  0  0  0
 24 25  4  0  0  0  0
 24 28  4  0  0  0  0
 25 26  4  0  0  0  0
 26 27  4  0  0  0  0
 27 28  4  0  0  0  0
M  END
>  <Name_Molregno>
632088

>  <HISTAMINE H3>
9.02

$$$$
632089
  Marvin  02231216192D 0   1.00000     0.00000     0

 29 33  0  0  1  0  0  0  0  0999 V2000
   -4.6172   -0.7822    0.0000 S   0  0  0  0  0  0  0  0  0
   -3.8635   -1.1177    0.0000 C   0  0  0  0  0  0  0  0  0
   -3.9497   -1.9382    0.0000 C   0  0  0  0  0  0  0  0  0
   -4.7567   -2.1097    0.0000 N   0  0  0  0  0  0  0  0  0
   -5.1692   -1.3953    0.0000 C   0  0  0  0  0  0  0  0  0
   -5.9897   -1.3090    0.0000 C   0  0  0  0  0  0  0  0  0
   -6.4746   -1.9765    0.0000 C   0  0  0  0  0  0  0  0  0
   -7.2951   -1.8902    0.0000 C   0  0  0  0  0  0  0  0  0
   -7.6306   -1.1365    0.0000 C   0  0  0  0  0  0  0  0  0
   -7.1457   -0.4691    0.0000 C   0  0  0  0  0  0  0  0  0
   -6.3252   -0.5553    0.0000 C   0  0  0  0  0  0  0  0  0
   -3.1490   -0.7052    0.0000 C   0  0  0  0  0  0  0  0  0
   -2.4345   -1.1177    0.0000 N   0  0  0  0  0  0  0  0  0
   -1.7201   -0.7052    0.0000 C   0  0  0  0  0  0  0  0  0
   -1.7201    0.1198    0.0000 C   0  0  0  0  0  0  0  0  0
   -1.0056    0.5323    0.0000 C   0  0  0  0  0  0  0  0  0
   -0.2911    0.1198    0.0000 C   0  0  0  0  0  0  0  0  0
   -0.2911   -0.7052    0.0000 C   0  0  0  0  0  0  0  0  0
   -1.0056   -1.1177    0.0000 C   0  0  0  0  0  0  0  0  0
    0.4233    0.5323    0.0000 C   0  0  0  0  0  0  0  0  0
    0.4233    1.3573    0.0000 C   0  0  0  0  0  0  0  0  0
    1.1378    1.7698    0.0000 N   0  0  0  0  0  0  0  0  0
    1.2240    2.5903    0.0000 C   0  0  0  0  0  0  0  0  0
    2.0310    2.7618    0.0000 C   0  0  0  0  0  0  0  0  0
    2.4435    2.0473    0.0000 C   0  0  0  0  0  0  0  0  0
    1.8915    1.4342    0.0000 C   0  0  0  0  0  0  0  0  0
    2.0630    0.6273    0.0000 C   0  0  0  0  0  0  0  0  0
   -2.4345    0.5323    0.0000 C   0  0  0  0  0  0  0  0  0
   -3.1490    0.1198    0.0000 C   0  0  0  0  0  0  0  0  0
  1  2  4  0  0  0  0
  1  5  4  0  0  0  0
  2  3  4  0  0  0  0
  2 12  1  0  0  0  0
  3  4  4  0  0  0  0
  4  5  4  0  0  0  0
  5  6  1  0  0  0  0
  6  7  4  0  0  0  0
  6 11  4  0  0  0  0
  7  8  4  0  0  0  0
  8  9  4  0  0  0  0
  9 10  4  0  0  0  0
 10 11  4  0  0  0  0
 12 13  4  0  0  0  0
 12 29  4  0  0  0  0
 13 14  4  0  0  0  0
 14 15  4  0  0  0  0
 14 19  4  0  0  0  0
 15 16  4  0  0  0  0
 15 28  4  0  0  0  0
 16 17  4  0  0  0  0
 17 18  4  0  0  0  0
 17 20  1  0  0  0  0
 18 19  4  0  0  0  0
 20 21  1  0  0  0  0
 21 22  1  0  0  0  0
 22 23  1  0  0  0  0
 22 26  1  0  0  0  0
 23 24  1  0  0  0  0
 24 25  1  0  0  0  0
 25 26  1  0  0  0  0
 26 27  1  0  0  0  0
 28 29  4  0  0  0  0
M  END
>  <Name_Molregno>
632089

>  <HISTAMINE H3>
8.96

$$$$
632090
  Marvin  02231216192D 0   1.00000     0.00000     0

 31 35  0  0  1  0  0  0  0  0999 V2000
    0.5801   -2.4276    0.0000 O   0  0  0  0  0  0  0  0  0
    1.2945   -2.0151    0.0000 C   0  0  0  0  0  0  0  0  0
    1.2945   -1.1901    0.0000 C   0  0  0  0  0  0  0  0  0
    2.0090   -0.7776    0.0000 C   0  0  0  0  0  0  0  0  0
    2.7235   -1.1901    0.0000 N   0  0  0  0  0  0  0  0  0
    2.7235   -2.0151    0.0000 C   0  0  0  0  0  0  0  0  0
    2.0090   -2.4276    0.0000 C   0  0  0  0  0  0  0  0  0
    3.4380   -0.7776    0.0000 C   0  0  0  0  0  0  0  0  0
    3.4380    0.0474    0.0000 C   0  0  0  0  0  0  0  0  0
    4.1524    0.4599    0.0000 C   0  0  0  0  0  0  0  0  0
    4.8669    0.0474    0.0000 C   0  0  0  0  0  0  0  0  0
    4.8669   -0.7776    0.0000 C   0  0  0  0  0  0  0  0  0
    4.1524   -1.1901    0.0000 C   0  0  0  0  0  0  0  0  0
    5.5814    0.4599    0.0000 C   0  0  0  0  0  0  0  0  0
    6.2958    0.0474    0.0000 N   0  0  0  0  0  0  0  0  0
    7.0103    0.4599    0.0000 C   0  0  0  0  0  0  0  0  0
    7.0103    1.2849    0.0000 C   0  0  0  0  0  0  0  0  0
    7.7248    1.6974    0.0000 C   0  0  0  0  0  0  0  0  0
    8.4392    1.2849    0.0000 C   0  0  0  0  0  0  0  0  0
    8.4392    0.4599    0.0000 C   0  0  0  0  0  0  0  0  0
    7.7248    0.0474    0.0000 C   0  0  0  0  0  0  0  0  0
    9.1537    1.6974    0.0000 C   0  0  0  0  0  0  0  0  0
    9.1537    2.5224    0.0000 C   0  0  0  0  0  0  0  0  0
    9.8682    2.9349    0.0000 N   0  0  0  0  0  0  0  0  0
    9.9544    3.7554    0.0000 C   0  0  0  0  0  0  0  0  0
   10.7614    3.9270    0.0000 C   0  0  0  0  0  0  0  0  0
   11.1739    3.2125    0.0000 C   0  0  0  0  0  0  0  0  0
   10.6219    2.5994    0.0000 C   0  0  0  0  0  0  0  0  0
   10.7934    1.7924    0.0000 C   0  0  0  0  0  0  0  0  0
    6.2958    1.6974    0.0000 C   0  0  0  0  0  0  0  0  0
    5.5814    1.2849    0.0000 C   0  0  0  0  0  0  0  0  0
  1  2  2  0  0  0  0
  2  3  1  0  0  0  0
  2  7  1  0  0  0  0
  3  4  2  0  0  0  0
  4  5  1  0  0  0  0
  5  6  1  0  0  0  0
  5  8  1  0  0  0  0
  6  7  2  0  0  0  0
  8  9  4  0  0  0  0
  8 13  4  0  0  0  0
  9 10  4  0  0  0  0
 10 11  4  0  0  0  0
 11 12  4  0  0  0  0
 11 14  1  0  0  0  0
 12 13  4  0  0  0  0
 14 15  4  0  0  0  0
 14 31  4  0  0  0  0
 15 16  4  0  0  0  0
 16 17  4  0  0  0  0
 16 21  4  0  0  0  0
 17 18  4  0  0  0  0
 17 30  4  0  0  0  0
 18 19  4  0  0  0  0
 19 20  4  0  0  0  0
 19 22  1  0  0  0  0
 20 21  4  0  0  0  0
 22 23  1  0  0  0  0
 23 24  1  0  0  0  0
 24 25  1  0  0  0  0
 24 28  1  0  0  0  0
 25 26  1  0  0  0  0
 26 27  1  0  0  0  0
 27 28  1  0  0  0  0
 28 29  1  0  0  0  0
 30 31  4  0  0  0  0
M  END
>  <Name_Molregno>
632090

>  <HISTAMINE H3>
9.92

$$$$
632091
  Marvin  02231216192D 0   1.00000     0.00000     0

 30 34  0  0  1  0  0  0  0  0999 V2000
    0.1259   -0.1239    0.0000 N   0  0  0  0  0  0  0  0  0
    0.8403    0.2886    0.0000 C   0  0  0  0  0  0  0  0  0
    0.8403    1.1136    0.0000 C   0  0  0  0  0  0  0  0  0
    1.5548    1.5261    0.0000 C   0  0  0  0  0  0  0  0  0
    2.2693    1.1136    0.0000 C   0  0  0  0  0  0  0  0  0
    2.2693    0.2886    0.0000 C   0  0  0  0  0  0  0  0  0
    1.5548   -0.1239    0.0000 C   0  0  0  0  0  0  0  0  0
    2.9837    1.5261    0.0000 C   0  0  0  0  0  0  0  0  0
    3.6982    1.1136    0.0000 C   0  0  0  0  0  0  0  0  0
    4.4127    1.5261    0.0000 N   0  0  0  0  0  0  0  0  0
    4.4989    2.3465    0.0000 C   0  0  0  0  0  0  0  0  0
    5.3059    2.5181    0.0000 C   0  0  0  0  0  0  0  0  0
    5.7184    1.8036    0.0000 C   0  0  0  0  0  0  0  0  0
    5.1664    1.1905    0.0000 C   0  0  0  0  0  0  0  0  0
    5.3379    0.3835    0.0000 C   0  0  0  0  0  0  0  0  0
    0.1259    1.5261    0.0000 C   0  0  0  0  0  0  0  0  0
   -0.5886    1.1136    0.0000 C   0  0  0  0  0  0  0  0  0
   -0.5886    0.2886    0.0000 C   0  0  0  0  0  0  0  0  0
   -1.3031   -0.1239    0.0000 C   0  0  0  0  0  0  0  0  0
   -1.3031   -0.9489    0.0000 C   0  0  0  0  0  0  0  0  0
   -2.0176   -1.3614    0.0000 C   0  0  0  0  0  0  0  0  0
   -2.7320   -0.9489    0.0000 C   0  0  0  0  0  0  0  0  0
   -3.4465   -1.3614    0.0000 N   0  0  0  0  0  0  0  0  0
   -3.4465   -2.1864    0.0000 C   0  0  0  0  0  0  0  0  0
   -4.1610   -2.5989    0.0000 C   0  0  0  0  0  0  0  0  0
   -4.8754   -2.1864    0.0000 C   0  0  0  0  0  0  0  0  0
   -4.8754   -1.3614    0.0000 C   0  0  0  0  0  0  0  0  0
   -4.1610   -0.9489    0.0000 C   0  0  0  0  0  0  0  0  0
   -2.7320   -0.1239    0.0000 C   0  0  0  0  0  0  0  0  0
   -2.0176    0.2886    0.0000 C   0  0  0  0  0  0  0  0  0
  1  2  4  0  0  0  0
  1 18  4  0  0  0  0
  2  3  4  0  0  0  0
  2  7  4  0  0  0  0
  3  4  4  0  0  0  0
  3 16  4  0  0  0  0
  4  5  4  0  0  0  0
  5  6  4  0  0  0  0
  5  8  1  0  0  0  0
  6  7  4  0  0  0  0
  8  9  1  0  0  0  0
  9 10  1  0  0  0  0
 10 11  1  0  0  0  0
 10 14  1  0  0  0  0
 11 12  1  0  0  0  0
 12 13  1  0  0  0  0
 13 14  1  0  0  0  0
 14 15  1  0  0  0  0
 16 17  4  0  0  0  0
 17 18  4  0  0  0  0
 18 19  1  0  0  0  0
 19 20  4  0  0  0  0
 19 30  4  0  0  0  0
 20 21  4  0  0  0  0
 21 22  4  0  0  0  0
 22 23  1  0  0  0  0
 22 29  4  0  0  0  0
 23 24  1  0  0  0  0
 23 28  1  0  0  0  0
 24 25  1  0  0  0  0
 25 26  1  0  0  0  0
 26 27  1  0  0  0  0
 27 28  1  0  0  0  0
 29 30  4  0  0  0  0
M  END
>  <Name_Molregno>
632091

>  <HISTAMINE H3>
9

$$$$
632092
  Marvin  02231216192D 0   1.00000     0.00000     0

 25 28  0  0  1  0  0  0  0  0999 V2000
    0.1815   -0.6338    0.0000 N   0  0  0  0  0  0  0  0  0
    0.8959   -0.2213    0.0000 C   0  0  0  0  0  0  0  0  0
    0.8959    0.6037    0.0000 C   0  0  0  0  0  0  0  0  0
    1.6104    1.0162    0.0000 C   0  0  0  0  0  0  0  0  0
    2.3249    0.6037    0.0000 C   0  0  0  0  0  0  0  0  0
    2.3249   -0.2213    0.0000 C   0  0  0  0  0  0  0  0  0
    1.6104   -0.6338    0.0000 C   0  0  0  0  0  0  0  0  0
    3.0394    1.0162    0.0000 C   0  0  0  0  0  0  0  0  0
    3.7538    0.6037    0.0000 C   0  0  0  0  0  0  0  0  0
    4.4683    1.0162    0.0000 N   0  0  0  0  0  0  0  0  0
    4.5545    1.8367    0.0000 C   0  0  0  0  0  0  0  0  0
    5.3615    2.0082    0.0000 C   0  0  0  0  0  0  0  0  0
    5.7740    1.2937    0.0000 C   0  0  0  0  0  0  0  0  0
    5.2220    0.6806    0.0000 C   0  0  0  0  0  0  0  0  0
    5.3935   -0.1263    0.0000 C   0  0  0  0  0  0  0  0  0
    0.1815    1.0162    0.0000 C   0  0  0  0  0  0  0  0  0
   -0.5330    0.6037    0.0000 C   0  0  0  0  0  0  0  0  0
   -0.5330   -0.2213    0.0000 C   0  0  0  0  0  0  0  0  0
   -1.2475   -0.6338    0.0000 N   0  0  0  0  0  0  0  0  0
   -1.2475   -1.4588    0.0000 C   0  0  0  0  0  0  0  0  0
   -1.9619   -1.8713    0.0000 C   0  0  0  0  0  0  0  0  0
   -2.6764   -1.4588    0.0000 C   0  0  0  0  0  0  0  0  0
   -2.6764   -0.6338    0.0000 C   0  0  0  0  0  0  0  0  0
   -1.9619   -0.2213    0.0000 C   0  0  0  0  0  0  0  0  0
   -3.3909   -1.8713    0.0000 C   0  0  0  0  0  0  0  0  0
  1  2  4  0  0  0  0
  1 18  4  0  0  0  0
  2  3  4  0  0  0  0
  2  7  4  0  0  0  0
  3  4  4  0  0  0  0
  3 16  4  0  0  0  0
  4  5  4  0  0  0  0
  5  6  4  0  0  0  0
  5  8  1  0  0  0  0
  6  7  4  0  0  0  0
  8  9  1  0  0  0  0
  9 10  1  0  0  0  0
 10 11  1  0  0  0  0
 10 14  1  0  0  0  0
 11 12  1  0  0  0  0
 12 13  1  0  0  0  0
 13 14  1  0  0  0  0
 14 15  1  0  0  0  0
 16 17  4  0  0  0  0
 17 18  4  0  0  0  0
 18 19  1  0  0  0  0
 19 20  1  0  0  0  0
 19 24  1  0  0  0  0
 20 21  1  0  0  0  0
 21 22  1  0  0  0  0
 22 23  1  0  0  0  0
 22 25  1  0  0  0  0
 23 24  1  0  0  0  0
M  END
>  <Name_Molregno>
632092

>  <HISTAMINE H3>
10.3

$$$$
632195
  Marvin  02231216192D 0   1.00000     0.00000     0

 31 35  0  0  1  0  0  0  0  0999 V2000
   -4.0881   -1.4060    0.0000 N   0  0  0  0  0  0  0  0  0
   -3.3736   -1.8185    0.0000 C   0  0  0  0  0  0  0  0  0
   -3.3736   -2.6435    0.0000 C   0  0  0  0  0  0  0  0  0
   -4.0881   -3.0560    0.0000 C   0  0  0  0  0  0  0  0  0
   -4.8026   -2.6435    0.0000 N   0  0  0  0  0  0  0  0  0
   -4.8026   -1.8185    0.0000 C   0  0  0  0  0  0  0  0  0
   -5.5171   -1.4060    0.0000 C   0  0  0  0  0  0  0  0  0
   -6.2315   -1.8185    0.0000 C   0  0  0  0  0  0  0  0  0
   -6.9460   -1.4060    0.0000 C   0  0  0  0  0  0  0  0  0
   -6.9460   -0.5810    0.0000 C   0  0  0  0  0  0  0  0  0
   -6.2315   -0.1685    0.0000 C   0  0  0  0  0  0  0  0  0
   -5.5171   -0.5810    0.0000 C   0  0  0  0  0  0  0  0  0
   -4.0881   -3.8810    0.0000 C   0  0  0  0  0  0  0  0  0
   -2.6592   -1.4060    0.0000 C   0  0  0  0  0  0  0  0  0
   -1.9447   -1.8185    0.0000 N   0  0  0  0  0  0  0  0  0
   -1.2302   -1.4060    0.0000 C   0  0  0  0  0  0  0  0  0
   -1.2302   -0.5810    0.0000 C   0  0  0  0  0  0  0  0  0
   -0.5158   -0.1685    0.0000 C   0  0  0  0  0  0  0  0  0
    0.1987   -0.5810    0.0000 C   0  0  0  0  0  0  0  0  0
    0.1987   -1.4060    0.0000 C   0  0  0  0  0  0  0  0  0
   -0.5158   -1.8185    0.0000 C   0  0  0  0  0  0  0  0  0
    0.9132   -0.1685    0.0000 C   0  0  0  0  0  0  0  0  0
    0.9132    0.6565    0.0000 C   0  0  0  0  0  0  0  0  0
    1.6277    1.0690    0.0000 N   0  0  0  0  0  0  0  0  0
    1.7139    1.8895    0.0000 C   0  0  0  0  0  0  0  0  0
    2.5209    2.0610    0.0000 C   0  0  0  0  0  0  0  0  0
    2.9334    1.3465    0.0000 C   0  0  0  0  0  0  0  0  0
    2.3813    0.7334    0.0000 C   0  0  0  0  0  0  0  0  0
    2.5529   -0.0735    0.0000 C   0  0  0  0  0  0  0  0  0
   -1.9447   -0.1685    0.0000 C   0  0  0  0  0  0  0  0  0
   -2.6592   -0.5810    0.0000 C   0  0  0  0  0  0  0  0  0
  1  2  4  0  0  0  0
  1  6  4  0  0  0  0
  2  3  4  0  0  0  0
  2 14  1  0  0  0  0
  3  4  4  0  0  0  0
  4  5  4  0  0  0  0
  4 13  1  0  0  0  0
  5  6  4  0  0  0  0
  6  7  1  0  0  0  0
  7  8  4  0  0  0  0
  7 12  4  0  0  0  0
  8  9  4  0  0  0  0
  9 10  4  0  0  0  0
 10 11  4  0  0  0  0
 11 12  4  0  0  0  0
 14 15  4  0  0  0  0
 14 31  4  0  0  0  0
 15 16  4  0  0  0  0
 16 17  4  0  0  0  0
 16 21  4  0  0  0  0
 17 18  4  0  0  0  0
 17 30  4  0  0  0  0
 18 19  4  0  0  0  0
 19 20  4  0  0  0  0
 19 22  1  0  0  0  0
 20 21  4  0  0  0  0
 22 23  1  0  0  0  0
 23 24  1  0  0  0  0
 24 25  1  0  0  0  0
 24 28  1  0  0  0  0
 25 26  1  0  0  0  0
 26 27  1  0  0  0  0
 27 28  1  0  0  0  0
 28 29  1  0  0  0  0
 30 31  4  0  0  0  0
M  END
>  <Name_Molregno>
632195

>  <HISTAMINE H3>
8.77

$$$$
632196
  Marvin  02231216192D 0   1.00000     0.00000     0

 26 29  0  0  1  0  0  0  0  0999 V2000
   -8.9439   -1.6314    0.0000 O   0  0  0  0  0  0  0  0  0
   -8.9439   -2.4564    0.0000 C   0  0  0  0  0  0  0  0  0
   -8.2294   -1.2189    0.0000 C   0  0  0  0  0  0  0  0  0
   -8.2294   -0.3939    0.0000 N   0  0  0  0  0  0  0  0  0
   -7.5149    0.0186    0.0000 C   0  0  0  0  0  0  0  0  0
   -6.8004   -0.3939    0.0000 C   0  0  0  0  0  0  0  0  0
   -6.8004   -1.2189    0.0000 C   0  0  0  0  0  0  0  0  0
   -7.5149   -1.6314    0.0000 N   0  0  0  0  0  0  0  0  0
   -6.0860    0.0186    0.0000 C   0  0  0  0  0  0  0  0  0
   -5.3715   -0.3939    0.0000 N   0  0  0  0  0  0  0  0  0
   -4.6570    0.0186    0.0000 C   0  0  0  0  0  0  0  0  0
   -4.6570    0.8436    0.0000 C   0  0  0  0  0  0  0  0  0
   -3.9426    1.2561    0.0000 C   0  0  0  0  0  0  0  0  0
   -3.2281    0.8436    0.0000 C   0  0  0  0  0  0  0  0  0
   -3.2281    0.0186    0.0000 C   0  0  0  0  0  0  0  0  0
   -3.9426   -0.3939    0.0000 C   0  0  0  0  0  0  0  0  0
   -2.5136    1.2561    0.0000 C   0  0  0  0  0  0  0  0  0
   -2.5136    2.0811    0.0000 C   0  0  0  0  0  0  0  0  0
   -1.7992    2.4936    0.0000 N   0  0  0  0  0  0  0  0  0
   -1.7129    3.3140    0.0000 C   0  0  0  0  0  0  0  0  0
   -0.9059    3.4856    0.0000 C   0  0  0  0  0  0  0  0  0
   -0.4934    2.7711    0.0000 C   0  0  0  0  0  0  0  0  0
   -1.0455    2.1580    0.0000 C   0  0  0  0  0  0  0  0  0
   -0.8739    1.3510    0.0000 C   0  0  0  0  0  0  0  0  0
   -5.3715    1.2561    0.0000 C   0  0  0  0  0  0  0  0  0
   -6.0860    0.8436    0.0000 C   0  0  0  0  0  0  0  0  0
  1  2  1  0  0  0  0
  1  3  1  0  0  0  0
  3  4  4  0  0  0  0
  3  8  4  0  0  0  0
  4  5  4  0  0  0  0
  5  6  4  0  0  0  0
  6  7  4  0  0  0  0
  6  9  1  0  0  0  0
  7  8  4  0  0  0  0
  9 10  4  0  0  0  0
  9 26  4  0  0  0  0
 10 11  4  0  0  0  0
 11 12  4  0  0  0  0
 11 16  4  0  0  0  0
 12 13  4  0  0  0  0
 12 25  4  0  0  0  0
 13 14  4  0  0  0  0
 14 15  4  0  0  0  0
 14 17  1  0  0  0  0
 15 16  4  0  0  0  0
 17 18  1  0  0  0  0
 18 19  1  0  0  0  0
 19 20  1  0  0  0  0
 19 23  1  0  0  0  0
 20 21  1  0  0  0  0
 21 22  1  0  0  0  0
 22 23  1  0  0  0  0
 23 24  1  0  0  0  0
 25 26  4  0  0  0  0
M  END
>  <Name_Molregno>
632196

>  <HISTAMINE H3>
9.64

$$$$
632197
  Marvin  02231216192D 0   1.00000     0.00000     0

 24 27  0  0  1  0  0  0  0  0999 V2000
    0.1910   -0.7442    0.0000 N   0  0  0  0  0  0  0  0  0
    0.9055   -0.3317    0.0000 C   0  0  0  0  0  0  0  0  0
    0.9055    0.4933    0.0000 C   0  0  0  0  0  0  0  0  0
    1.6199    0.9058    0.0000 C   0  0  0  0  0  0  0  0  0
    2.3344    0.4933    0.0000 C   0  0  0  0  0  0  0  0  0
    2.3344   -0.3317    0.0000 C   0  0  0  0  0  0  0  0  0
    1.6199   -0.7442    0.0000 C   0  0  0  0  0  0  0  0  0
    3.0489    0.9058    0.0000 C   0  0  0  0  0  0  0  0  0
    3.7633    0.4933    0.0000 C   0  0  0  0  0  0  0  0  0
    4.4778    0.9058    0.0000 N   0  0  0  0  0  0  0  0  0
    4.5641    1.7263    0.0000 C   0  0  0  0  0  0  0  0  0
    5.3710    1.8978    0.0000 C   0  0  0  0  0  0  0  0  0
    5.7835    1.1833    0.0000 C   0  0  0  0  0  0  0  0  0
    5.2315    0.5702    0.0000 C   0  0  0  0  0  0  0  0  0
    5.4030   -0.2368    0.0000 C   0  0  0  0  0  0  0  0  0
    0.1910    0.9058    0.0000 C   0  0  0  0  0  0  0  0  0
   -0.5235    0.4933    0.0000 C   0  0  0  0  0  0  0  0  0
   -0.5235   -0.3317    0.0000 C   0  0  0  0  0  0  0  0  0
   -1.2380   -0.7442    0.0000 C   0  0  0  0  0  0  0  0  0
   -1.2380   -1.5692    0.0000 C   0  0  0  0  0  0  0  0  0
   -1.9524   -1.9817    0.0000 N   0  0  0  0  0  0  0  0  0
   -2.6669   -1.5692    0.0000 C   0  0  0  0  0  0  0  0  0
   -2.6669   -0.7442    0.0000 N   0  0  0  0  0  0  0  0  0
   -1.9524   -0.3317    0.0000 C   0  0  0  0  0  0  0  0  0
  1  2  4  0  0  0  0
  1 18  4  0  0  0  0
  2  3  4  0  0  0  0
  2  7  4  0  0  0  0
  3  4  4  0  0  0  0
  3 16  4  0  0  0  0
  4  5  4  0  0  0  0
  5  6  4  0  0  0  0
  5  8  1  0  0  0  0
  6  7  4  0  0  0  0
  8  9  1  0  0  0  0
  9 10  1  0  0  0  0
 10 11  1  0  0  0  0
 10 14  1  0  0  0  0
 11 12  1  0  0  0  0
 12 13  1  0  0  0  0
 13 14  1  0  0  0  0
 14 15  1  0  0  0  0
 16 17  4  0  0  0  0
 17 18  4  0  0  0  0
 18 19  1  0  0  0  0
 19 20  4  0  0  0  0
 19 24  4  0  0  0  0
 20 21  4  0  0  0  0
 21 22  4  0  0  0  0
 22 23  4  0  0  0  0
 23 24  4  0  0  0  0
M  END
>  <Name_Molregno>
632197

>  <HISTAMINE H3>
9.72

$$$$
632198
  Marvin  02231216192D 0   1.00000     0.00000     0

 23 26  0  0  1  0  0  0  0  0999 V2000
    0.5762   -2.0712    0.0000 S   0  0  0  0  0  0  0  0  0
   -0.2308   -2.2428    0.0000 C   0  0  0  0  0  0  0  0  0
   -0.6433   -1.5283    0.0000 C   0  0  0  0  0  0  0  0  0
   -0.0913   -0.9152    0.0000 C   0  0  0  0  0  0  0  0  0
    0.6624   -1.2508    0.0000 C   0  0  0  0  0  0  0  0  0
    1.3769   -0.8383    0.0000 C   0  0  0  0  0  0  0  0  0
    2.0913   -1.2508    0.0000 N   0  0  0  0  0  0  0  0  0
    2.8058   -0.8383    0.0000 C   0  0  0  0  0  0  0  0  0
    2.8058   -0.0133    0.0000 C   0  0  0  0  0  0  0  0  0
    3.5203    0.3992    0.0000 C   0  0  0  0  0  0  0  0  0
    4.2348   -0.0133    0.0000 C   0  0  0  0  0  0  0  0  0
    4.2348   -0.8383    0.0000 C   0  0  0  0  0  0  0  0  0
    3.5203   -1.2508    0.0000 C   0  0  0  0  0  0  0  0  0
    4.9492    0.3992    0.0000 C   0  0  0  0  0  0  0  0  0
    4.9492    1.2242    0.0000 C   0  0  0  0  0  0  0  0  0
    5.6637    1.6367    0.0000 N   0  0  0  0  0  0  0  0  0
    5.7499    2.4572    0.0000 C   0  0  0  0  0  0  0  0  0
    6.5569    2.6287    0.0000 C   0  0  0  0  0  0  0  0  0
    6.9694    1.9143    0.0000 C   0  0  0  0  0  0  0  0  0
    6.4174    1.3012    0.0000 C   0  0  0  0  0  0  0  0  0
    6.5889    0.4942    0.0000 C   0  0  0  0  0  0  0  0  0
    2.0913    0.3992    0.0000 C   0  0  0  0  0  0  0  0  0
    1.3769   -0.0133    0.0000 C   0  0  0  0  0  0  0  0  0
  1  2  4  0  0  0  0
  1  5  4  0  0  0  0
  2  3  4  0  0  0  0
  3  4  4  0  0  0  0
  4  5  4  0  0  0  0
  5  6  1  0  0  0  0
  6  7  4  0  0  0  0
  6 23  4  0  0  0  0
  7  8  4  0  0  0  0
  8  9  4  0  0  0  0
  8 13  4  0  0  0  0
  9 10  4  0  0  0  0
  9 22  4  0  0  0  0
 10 11  4  0  0  0  0
 11 12  4  0  0  0  0
 11 14  1  0  0  0  0
 12 13  4  0  0  0  0
 14 15  1  0  0  0  0
 15 16  1  0  0  0  0
 16 17  1  0  0  0  0
 16 20  1  0  0  0  0
 17 18  1  0  0  0  0
 18 19  1  0  0  0  0
 19 20  1  0  0  0  0
 20 21  1  0  0  0  0
 22 23  4  0  0  0  0
M  END
>  <Name_Molregno>
632198

>  <HISTAMINE H3>
9

$$$$
632262
  Marvin  02231216192D 0   1.00000     0.00000     0

 26 29  0  0  1  0  0  0  0  0999 V2000
   -7.3215   -0.3431    0.0000 N   0  0  0  0  0  0  0  0  0
   -6.6070    0.0694    0.0000 C   0  0  0  0  0  0  0  0  0
   -6.6070    0.8944    0.0000 C   0  0  0  0  0  0  0  0  0
   -5.8926   -0.3431    0.0000 C   0  0  0  0  0  0  0  0  0
   -5.8926   -1.1681    0.0000 C   0  0  0  0  0  0  0  0  0
   -6.6070   -1.5806    0.0000 C   0  0  0  0  0  0  0  0  0
   -7.3215   -1.1681    0.0000 C   0  0  0  0  0  0  0  0  0
   -8.0360   -1.5806    0.0000 C   0  0  0  0  0  0  0  0  0
   -5.1781    0.0694    0.0000 C   0  0  0  0  0  0  0  0  0
   -4.4636   -0.3431    0.0000 N   0  0  0  0  0  0  0  0  0
   -3.7492    0.0694    0.0000 C   0  0  0  0  0  0  0  0  0
   -3.7492    0.8944    0.0000 C   0  0  0  0  0  0  0  0  0
   -3.0347    1.3069    0.0000 C   0  0  0  0  0  0  0  0  0
   -2.3202    0.8944    0.0000 C   0  0  0  0  0  0  0  0  0
   -2.3202    0.0694    0.0000 C   0  0  0  0  0  0  0  0  0
   -3.0347   -0.3431    0.0000 C   0  0  0  0  0  0  0  0  0
   -1.6057    1.3069    0.0000 C   0  0  0  0  0  0  0  0  0
   -1.6057    2.1319    0.0000 C   0  0  0  0  0  0  0  0  0
   -0.8913    2.5444    0.0000 N   0  0  0  0  0  0  0  0  0
   -0.8050    3.3648    0.0000 C   0  0  0  0  0  0  0  0  0
    0.0019    3.5364    0.0000 C   0  0  0  0  0  0  0  0  0
    0.4144    2.8219    0.0000 C   0  0  0  0  0  0  0  0  0
   -0.1376    2.2088    0.0000 C   0  0  0  0  0  0  0  0  0
    0.0339    1.4018    0.0000 C   0  0  0  0  0  0  0  0  0
   -4.4636    1.3069    0.0000 C   0  0  0  0  0  0  0  0  0
   -5.1781    0.8944    0.0000 C   0  0  0  0  0  0  0  0  0
  1  2  4  0  0  0  0
  1  7  4  0  0  0  0
  2  3  1  0  0  0  0
  2  4  4  0  0  0  0
  4  5  4  0  0  0  0
  4  9  1  0  0  0  0
  5  6  4  0  0  0  0
  6  7  4  0  0  0  0
  7  8  1  0  0  0  0
  9 10  4  0  0  0  0
  9 26  4  0  0  0  0
 10 11  4  0  0  0  0
 11 12  4  0  0  0  0
 11 16  4  0  0  0  0
 12 13  4  0  0  0  0
 12 25  4  0  0  0  0
 13 14  4  0  0  0  0
 14 15  4  0  0  0  0
 14 17  1  0  0  0  0
 15 16  4  0  0  0  0
 17 18  1  0  0  0  0
 18 19  1  0  0  0  0
 19 20  1  0  0  0  0
 19 23  1  0  0  0  0
 20 21  1  0  0  0  0
 21 22  1  0  0  0  0
 22 23  1  0  0  0  0
 23 24  1  0  0  0  0
 25 26  4  0  0  0  0
M  END
>  <Name_Molregno>
632262

>  <HISTAMINE H3>
9.44

$$$$
632263
  Marvin  02231216192D 0   1.00000     0.00000     0

 28 31  0  0  1  0  0  0  0  0999 V2000
   -6.8997   -0.3147    0.0000 N   0  0  0  0  0  0  0  0  0
   -6.1853    0.0978    0.0000 C   0  0  0  0  0  0  0  0  0
   -6.1853    0.9228    0.0000 C   0  0  0  0  0  0  0  0  0
   -5.4708   -0.3147    0.0000 C   0  0  0  0  0  0  0  0  0
   -5.4708   -1.1397    0.0000 C   0  0  0  0  0  0  0  0  0
   -6.1853   -1.5522    0.0000 C   0  0  0  0  0  0  0  0  0
   -6.1853   -2.3772    0.0000 C   0  0  0  0  0  0  0  0  0
   -6.1853   -3.2022    0.0000 N   0  0  0  0  0  0  0  0  0
   -6.8997   -1.1397    0.0000 C   0  0  0  0  0  0  0  0  0
   -7.6142   -1.5522    0.0000 C   0  0  0  0  0  0  0  0  0
   -4.7563    0.0978    0.0000 C   0  0  0  0  0  0  0  0  0
   -4.0418   -0.3147    0.0000 N   0  0  0  0  0  0  0  0  0
   -3.3274    0.0978    0.0000 C   0  0  0  0  0  0  0  0  0
   -3.3274    0.9228    0.0000 C   0  0  0  0  0  0  0  0  0
   -2.6129    1.3353    0.0000 C   0  0  0  0  0  0  0  0  0
   -1.8984    0.9228    0.0000 C   0  0  0  0  0  0  0  0  0
   -1.8984    0.0978    0.0000 C   0  0  0  0  0  0  0  0  0
   -2.6129   -0.3147    0.0000 C   0  0  0  0  0  0  0  0  0
   -1.1840    1.3353    0.0000 C   0  0  0  0  0  0  0  0  0
   -1.1840    2.1603    0.0000 C   0  0  0  0  0  0  0  0  0
   -0.4695    2.5728    0.0000 N   0  0  0  0  0  0  0  0  0
   -0.3832    3.3933    0.0000 C   0  0  0  0  0  0  0  0  0
    0.4237    3.5648    0.0000 C   0  0  0  0  0  0  0  0  0
    0.8362    2.8504    0.0000 C   0  0  0  0  0  0  0  0  0
    0.2842    2.2373    0.0000 C   0  0  0  0  0  0  0  0  0
    0.4557    1.4303    0.0000 C   0  0  0  0  0  0  0  0  0
   -4.0418    1.3353    0.0000 C   0  0  0  0  0  0  0  0  0
   -4.7563    0.9228    0.0000 C   0  0  0  0  0  0  0  0  0
  1  2  4  0  0  0  0
  1  9  4  0  0  0  0
  2  3  1  0  0  0  0
  2  4  4  0  0  0  0
  4  5  4  0  0  0  0
  4 11  1  0  0  0  0
  5  6  4  0  0  0  0
  6  7  1  0  0  0  0
  6  9  4  0  0  0  0
  7  8  3  0  0  0  0
  9 10  1  0  0  0  0
 11 12  4  0  0  0  0
 11 28  4  0  0  0  0
 12 13  4  0  0  0  0
 13 14  4  0  0  0  0
 13 18  4  0  0  0  0
 14 15  4  0  0  0  0
 14 27  4  0  0  0  0
 15 16  4  0  0  0  0
 16 17  4  0  0  0  0
 16 19  1  0  0  0  0
 17 18  4  0  0  0  0
 19 20  1  0  0  0  0
 20 21  1  0  0  0  0
 21 22  1  0  0  0  0
 21 25  1  0  0  0  0
 22 23  1  0  0  0  0
 23 24  1  0  0  0  0
 24 25  1  0  0  0  0
 25 26  1  0  0  0  0
 27 28  4  0  0  0  0
M  END
>  <Name_Molregno>
632263

>  <HISTAMINE H3>
9.55

$$$$
632264
  Marvin  02231216192D 0   1.00000     0.00000     0

 29 32  0  0  1  0  0  0  0  0999 V2000
   -0.2701   -1.6790    0.0000 O   0  0  0  0  0  0  0  0  0
    0.4443   -1.2665    0.0000 C   0  0  0  0  0  0  0  0  0
    0.4443   -0.4415    0.0000 N   0  0  0  0  0  0  0  0  0
    1.1588   -1.6790    0.0000 C   0  0  0  0  0  0  0  0  0
    1.8733   -1.2665    0.0000 C   0  0  0  0  0  0  0  0  0
    2.5878   -1.6790    0.0000 C   0  0  0  0  0  0  0  0  0
    3.3022   -1.2665    0.0000 C   0  0  0  0  0  0  0  0  0
    4.0167   -1.6790    0.0000 N   0  0  0  0  0  0  0  0  0
    4.7312   -1.2665    0.0000 C   0  0  0  0  0  0  0  0  0
    4.7312   -0.4415    0.0000 C   0  0  0  0  0  0  0  0  0
    5.4456   -0.0290    0.0000 C   0  0  0  0  0  0  0  0  0
    6.1601   -0.4415    0.0000 C   0  0  0  0  0  0  0  0  0
    6.1601   -1.2665    0.0000 C   0  0  0  0  0  0  0  0  0
    5.4456   -1.6790    0.0000 C   0  0  0  0  0  0  0  0  0
    6.8746   -0.0290    0.0000 C   0  0  0  0  0  0  0  0  0
    6.8746    0.7960    0.0000 C   0  0  0  0  0  0  0  0  0
    7.5890    1.2085    0.0000 N   0  0  0  0  0  0  0  0  0
    7.6753    2.0290    0.0000 C   0  0  0  0  0  0  0  0  0
    8.4823    2.2005    0.0000 C   0  0  0  0  0  0  0  0  0
    8.8948    1.4860    0.0000 C   0  0  0  0  0  0  0  0  0
    8.3427    0.8729    0.0000 C   0  0  0  0  0  0  0  0  0
    8.5143    0.0659    0.0000 C   0  0  0  0  0  0  0  0  0
    4.0167   -0.0290    0.0000 C   0  0  0  0  0  0  0  0  0
    3.3022   -0.4415    0.0000 C   0  0  0  0  0  0  0  0  0
    2.5878   -2.5040    0.0000 C   0  0  0  0  0  0  0  0  0
    1.8733   -2.9165    0.0000 N   0  0  0  0  0  0  0  0  0
    1.1588   -2.5040    0.0000 C   0  0  0  0  0  0  0  0  0
    0.4443   -2.9165    0.0000 C   0  0  0  0  0  0  0  0  0
    3.3022   -2.9165    0.0000 C   0  0  0  0  0  0  0  0  0
  1  2  2  0  0  0  0
  2  3  1  0  0  0  0
  2  4  1  0  0  0  0
  4  5  4  0  0  0  0
  4 27  4  0  0  0  0
  5  6  4  0  0  0  0
  6  7  1  0  0  0  0
  6 25  4  0  0  0  0
  7  8  4  0  0  0  0
  7 24  4  0  0  0  0
  8  9  4  0  0  0  0
  9 10  4  0  0  0  0
  9 14  4  0  0  0  0
 10 11  4  0  0  0  0
 10 23  4  0  0  0  0
 11 12  4  0  0  0  0
 12 13  4  0  0  0  0
 12 15  1  0  0  0  0
 13 14  4  0  0  0  0
 15 16  1  0  0  0  0
 16 17  1  0  0  0  0
 17 18  1  0  0  0  0
 17 21  1  0  0  0  0
 18 19  1  0  0  0  0
 19 20  1  0  0  0  0
 20 21  1  0  0  0  0
 21 22  1  0  0  0  0
 23 24  4  0  0  0  0
 25 26  4  0  0  0  0
 25 29  1  0  0  0  0
 26 27  4  0  0  0  0
 27 28  1  0  0  0  0
M  END
>  <Name_Molregno>
632264

>  <HISTAMINE H3>
9.01

$$$$
632265
  Marvin  02231216192D 0   1.00000     0.00000     0

 29 32  0  0  1  0  0  0  0  0999 V2000
   -2.7190   -2.0479    0.0000 F   0  0  0  0  0  0  0  0  0
   -3.4334   -1.6354    0.0000 C   0  0  0  0  0  0  0  0  0
   -3.0209   -0.9210    0.0000 F   0  0  0  0  0  0  0  0  0
   -3.8459   -2.3499    0.0000 F   0  0  0  0  0  0  0  0  0
   -4.1479   -1.2229    0.0000 C   0  0  0  0  0  0  0  0  0
   -4.8624   -1.6354    0.0000 N   0  0  0  0  0  0  0  0  0
   -5.5769   -1.2229    0.0000 C   0  0  0  0  0  0  0  0  0
   -5.5769   -0.3979    0.0000 C   0  0  0  0  0  0  0  0  0
   -4.8624    0.0146    0.0000 C   0  0  0  0  0  0  0  0  0
   -4.8624    0.8396    0.0000 O   0  0  0  0  0  0  0  0  0
   -4.1479   -0.3979    0.0000 C   0  0  0  0  0  0  0  0  0
   -3.4334    0.0146    0.0000 C   0  0  0  0  0  0  0  0  0
   -2.7190   -0.3979    0.0000 N   0  0  0  0  0  0  0  0  0
   -2.0045    0.0146    0.0000 C   0  0  0  0  0  0  0  0  0
   -2.0045    0.8396    0.0000 C   0  0  0  0  0  0  0  0  0
   -1.2900    1.2521    0.0000 C   0  0  0  0  0  0  0  0  0
   -0.5756    0.8396    0.0000 C   0  0  0  0  0  0  0  0  0
   -0.5756    0.0146    0.0000 C   0  0  0  0  0  0  0  0  0
   -1.2900   -0.3979    0.0000 C   0  0  0  0  0  0  0  0  0
    0.1389    1.2521    0.0000 C   0  0  0  0  0  0  0  0  0
    0.1389    2.0771    0.0000 C   0  0  0  0  0  0  0  0  0
    0.8534    2.4896    0.0000 N   0  0  0  0  0  0  0  0  0
    0.9396    3.3100    0.0000 C   0  0  0  0  0  0  0  0  0
    1.7466    3.4816    0.0000 C   0  0  0  0  0  0  0  0  0
    2.1591    2.7671    0.0000 C   0  0  0  0  0  0  0  0  0
    1.6071    2.1540    0.0000 C   0  0  0  0  0  0  0  0  0
    1.7786    1.3470    0.0000 C   0  0  0  0  0  0  0  0  0
   -2.7190    1.2521    0.0000 C   0  0  0  0  0  0  0  0  0
   -3.4334    0.8396    0.0000 C   0  0  0  0  0  0  0  0  0
  1  2  1  0  0  0  0
  2  3  1  0  0  0  0
  2  4  1  0  0  0  0
  2  5  1  0  0  0  0
  5  6  4  0  0  0  0
  5 11  4  0  0  0  0
  6  7  4  0  0  0  0
  7  8  4  0  0  0  0
  8  9  4  0  0  0  0
  9 10  1  0  0  0  0
  9 11  4  0  0  0  0
 11 12  1  0  0  0  0
 12 13  4  0  0  0  0
 12 29  4  0  0  0  0
 13 14  4  0  0  0  0
 14 15  4  0  0  0  0
 14 19  4  0  0  0  0
 15 16  4  0  0  0  0
 15 28  4  0  0  0  0
 16 17  4  0  0  0  0
 17 18  4  0  0  0  0
 17 20  1  0  0  0  0
 18 19  4  0  0  0  0
 20 21  1  0  0  0  0
 21 22  1  0  0  0  0
 22 23  1  0  0  0  0
 22 26  1  0  0  0  0
 23 24  1  0  0  0  0
 24 25  1  0  0  0  0
 25 26  1  0  0  0  0
 26 27  1  0  0  0  0
 28 29  4  0  0  0  0
M  END
>  <Name_Molregno>
632265

>  <HISTAMINE H3>
6.64

$$$$
632266
  Marvin  02231216192D 0   1.00000     0.00000     0

 24 27  0  0  1  0  0  0  0  0999 V2000
    0.1910   -0.7442    0.0000 N   0  0  0  0  0  0  0  0  0
    0.9055   -0.3317    0.0000 C   0  0  0  0  0  0  0  0  0
    0.9055    0.4933    0.0000 C   0  0  0  0  0  0  0  0  0
    1.6199    0.9058    0.0000 C   0  0  0  0  0  0  0  0  0
    2.3344    0.4933    0.0000 C   0  0  0  0  0  0  0  0  0
    2.3344   -0.3317    0.0000 C   0  0  0  0  0  0  0  0  0
    1.6199   -0.7442    0.0000 C   0  0  0  0  0  0  0  0  0
    3.0489    0.9058    0.0000 C   0  0  0  0  0  0  0  0  0
    3.7633    0.4933    0.0000 C   0  0  0  0  0  0  0  0  0
    4.4778    0.9058    0.0000 N   0  0  0  0  0  0  0  0  0
    4.5641    1.7263    0.0000 C   0  0  0  0  0  0  0  0  0
    5.3710    1.8978    0.0000 C   0  0  0  0  0  0  0  0  0
    5.7835    1.1833    0.0000 C   0  0  0  0  0  0  0  0  0
    5.2315    0.5702    0.0000 C   0  0  0  0  0  0  0  0  0
    5.4030   -0.2368    0.0000 C   0  0  0  0  0  0  0  0  0
    0.1910    0.9058    0.0000 C   0  0  0  0  0  0  0  0  0
   -0.5235    0.4933    0.0000 C   0  0  0  0  0  0  0  0  0
   -0.5235   -0.3317    0.0000 C   0  0  0  0  0  0  0  0  0
   -1.2380   -0.7442    0.0000 C   0  0  0  0  0  0  0  0  0
   -1.2380   -1.5692    0.0000 N   0  0  0  0  0  0  0  0  0
   -1.9524   -1.9817    0.0000 C   0  0  0  0  0  0  0  0  0
   -2.6669   -1.5692    0.0000 C   0  0  0  0  0  0  0  0  0
   -2.6669   -0.7442    0.0000 N   0  0  0  0  0  0  0  0  0
   -1.9524   -0.3317    0.0000 C   0  0  0  0  0  0  0  0  0
  1  2  4  0  0  0  0
  1 18  4  0  0  0  0
  2  3  4  0  0  0  0
  2  7  4  0  0  0  0
  3  4  4  0  0  0  0
  3 16  4  0  0  0  0
  4  5  4  0  0  0  0
  5  6  4  0  0  0  0
  5  8  1  0  0  0  0
  6  7  4  0  0  0  0
  8  9  1  0  0  0  0
  9 10  1  0  0  0  0
 10 11  1  0  0  0  0
 10 14  1  0  0  0  0
 11 12  1  0  0  0  0
 12 13  1  0  0  0  0
 13 14  1  0  0  0  0
 14 15  1  0  0  0  0
 16 17  4  0  0  0  0
 17 18  4  0  0  0  0
 18 19  1  0  0  0  0
 19 20  4  0  0  0  0
 19 24  4  0  0  0  0
 20 21  4  0  0  0  0
 21 22  4  0  0  0  0
 22 23  4  0  0  0  0
 23 24  4  0  0  0  0
M  END
>  <Name_Molregno>
632266

>  <HISTAMINE H3>
9.96

$$$$
632335
  Marvin  02231216192D 0   1.00000     0.00000     0

 31 35  0  0  1  0  0  0  0  0999 V2000
    1.9491   -6.7026    0.0000 Cl  0  0  0  0  0  0  0  0  0
    1.4642   -6.0351    0.0000 C   0  0  0  0  0  0  0  0  0
    0.6437   -6.1214    0.0000 N   0  0  0  0  0  0  0  0  0
    0.1588   -5.4539    0.0000 C   0  0  0  0  0  0  0  0  0
   -0.6617   -5.5402    0.0000 Cl  0  0  0  0  0  0  0  0  0
    0.4944   -4.7003    0.0000 C   0  0  0  0  0  0  0  0  0
    1.3149   -4.6140    0.0000 C   0  0  0  0  0  0  0  0  0
    1.7998   -5.2815    0.0000 C   0  0  0  0  0  0  0  0  0
    1.6504   -3.8604    0.0000 C   0  0  0  0  0  0  0  0  0
    1.2379   -3.1459    0.0000 S   0  0  0  0  0  0  0  0  0
    1.7900   -2.5328    0.0000 C   0  0  0  0  0  0  0  0  0
    2.5436   -2.8683    0.0000 C   0  0  0  0  0  0  0  0  0
    2.4574   -3.6888    0.0000 N   0  0  0  0  0  0  0  0  0
    3.2581   -2.4558    0.0000 C   0  0  0  0  0  0  0  0  0
    3.9726   -2.8683    0.0000 N   0  0  0  0  0  0  0  0  0
    4.6870   -2.4558    0.0000 C   0  0  0  0  0  0  0  0  0
    4.6870   -1.6308    0.0000 C   0  0  0  0  0  0  0  0  0
    5.4015   -1.2183    0.0000 C   0  0  0  0  0  0  0  0  0
    6.1160   -1.6308    0.0000 C   0  0  0  0  0  0  0  0  0
    6.1160   -2.4558    0.0000 C   0  0  0  0  0  0  0  0  0
    5.4015   -2.8683    0.0000 C   0  0  0  0  0  0  0  0  0
    6.8305   -1.2183    0.0000 C   0  0  0  0  0  0  0  0  0
    6.8305   -0.3933    0.0000 C   0  0  0  0  0  0  0  0  0
    7.5449    0.0192    0.0000 N   0  0  0  0  0  0  0  0  0
    7.6312    0.8396    0.0000 C   0  0  0  0  0  0  0  0  0
    8.4381    1.0112    0.0000 C   0  0  0  0  0  0  0  0  0
    8.8506    0.2967    0.0000 C   0  0  0  0  0  0  0  0  0
    8.2986   -0.3164    0.0000 C   0  0  0  0  0  0  0  0  0
    8.4701   -1.1234    0.0000 C   0  0  0  0  0  0  0  0  0
    3.9726   -1.2183    0.0000 C   0  0  0  0  0  0  0  0  0
    3.2581   -1.6308    0.0000 C   0  0  0  0  0  0  0  0  0
  1  2  1  0  0  0  0
  2  3  4  0  0  0  0
  2  8  4  0  0  0  0
  3  4  4  0  0  0  0
  4  5  1  0  0  0  0
  4  6  4  0  0  0  0
  6  7  4  0  0  0  0
  7  8  4  0  0  0  0
  7  9  1  0  0  0  0
  9 10  4  0  0  0  0
  9 13  4  0  0  0  0
 10 11  4  0  0  0  0
 11 12  4  0  0  0  0
 12 13  4  0  0  0  0
 12 14  1  0  0  0  0
 14 15  4  0  0  0  0
 14 31  4  0  0  0  0
 15 16  4  0  0  0  0
 16 17  4  0  0  0  0
 16 21  4  0  0  0  0
 17 18  4  0  0  0  0
 17 30  4  0  0  0  0
 18 19  4  0  0  0  0
 19 20  4  0  0  0  0
 19 22  1  0  0  0  0
 20 21  4  0  0  0  0
 22 23  1  0  0  0  0
 23 24  1  0  0  0  0
 24 25  1  0  0  0  0
 24 28  1  0  0  0  0
 25 26  1  0  0  0  0
 26 27  1  0  0  0  0
 27 28  1  0  0  0  0
 28 29  1  0  0  0  0
 30 31  4  0  0  0  0
M  END
>  <Name_Molregno>
632335

>  <HISTAMINE H3>
7.55

$$$$
632336
  Marvin  02231216192D 0   1.00000     0.00000     0

 25 28  0  0  1  0  0  0  0  0999 V2000
   -0.3281   -0.2945    0.0000 S   0  0  0  0  0  0  0  0  0
    0.4255   -0.6300    0.0000 C   0  0  0  0  0  0  0  0  0
    1.1400   -0.2175    0.0000 C   0  0  0  0  0  0  0  0  0
    1.8545   -0.6300    0.0000 N   0  0  0  0  0  0  0  0  0
    2.5690   -0.2175    0.0000 C   0  0  0  0  0  0  0  0  0
    2.5690    0.6075    0.0000 C   0  0  0  0  0  0  0  0  0
    3.2834    1.0200    0.0000 C   0  0  0  0  0  0  0  0  0
    3.9979    0.6075    0.0000 C   0  0  0  0  0  0  0  0  0
    3.9979   -0.2175    0.0000 C   0  0  0  0  0  0  0  0  0
    3.2834   -0.6300    0.0000 C   0  0  0  0  0  0  0  0  0
    4.7124    1.0200    0.0000 C   0  0  0  0  0  0  0  0  0
    5.4268    0.6075    0.0000 C   0  0  0  0  0  0  0  0  0
    6.1413    1.0200    0.0000 N   0  0  0  0  0  0  0  0  0
    6.2275    1.8404    0.0000 C   0  0  0  0  0  0  0  0  0
    7.0345    2.0120    0.0000 C   0  0  0  0  0  0  0  0  0
    7.4470    1.2975    0.0000 C   0  0  0  0  0  0  0  0  0
    6.8950    0.6844    0.0000 C   0  0  0  0  0  0  0  0  0
    7.0665   -0.1226    0.0000 C   0  0  0  0  0  0  0  0  0
    1.8545    1.0200    0.0000 C   0  0  0  0  0  0  0  0  0
    1.1400    0.6075    0.0000 C   0  0  0  0  0  0  0  0  0
    0.3393   -1.4505    0.0000 C   0  0  0  0  0  0  0  0  0
   -0.4677   -1.6221    0.0000 N   0  0  0  0  0  0  0  0  0
   -0.8802   -0.9076    0.0000 C   0  0  0  0  0  0  0  0  0
   -1.7006   -0.8213    0.0000 C   0  0  0  0  0  0  0  0  0
    0.9524   -2.0026    0.0000 C   0  0  0  0  0  0  0  0  0
  1  2  4  0  0  0  0
  1 23  4  0  0  0  0
  2  3  1  0  0  0  0
  2 21  4  0  0  0  0
  3  4  4  0  0  0  0
  3 20  4  0  0  0  0
  4  5  4  0  0  0  0
  5  6  4  0  0  0  0
  5 10  4  0  0  0  0
  6  7  4  0  0  0  0
  6 19  4  0  0  0  0
  7  8  4  0  0  0  0
  8  9  4  0  0  0  0
  8 11  1  0  0  0  0
  9 10  4  0  0  0  0
 11 12  1  0  0  0  0
 12 13  1  0  0  0  0
 13 14  1  0  0  0  0
 13 17  1  0  0  0  0
 14 15  1  0  0  0  0
 15 16  1  0  0  0  0
 16 17  1  0  0  0  0
 17 18  1  0  0  0  0
 19 20  4  0  0  0  0
 21 22  4  0  0  0  0
 21 25  1  0  0  0  0
 22 23  4  0  0  0  0
 23 24  1  0  0  0  0
M  END
>  <Name_Molregno>
632336

>  <HISTAMINE H3>
9.72

$$$$
632337
  Marvin  02231216192D 0   1.00000     0.00000     0

 24 27  0  0  1  0  0  0  0  0999 V2000
    0.1910   -0.7442    0.0000 N   0  0  0  0  0  0  0  0  0
    0.9055   -0.3317    0.0000 C   0  0  0  0  0  0  0  0  0
    0.9055    0.4933    0.0000 C   0  0  0  0  0  0  0  0  0
    1.6199    0.9058    0.0000 C   0  0  0  0  0  0  0  0  0
    2.3344    0.4933    0.0000 C   0  0  0  0  0  0  0  0  0
    2.3344   -0.3317    0.0000 C   0  0  0  0  0  0  0  0  0
    1.6199   -0.7442    0.0000 C   0  0  0  0  0  0  0  0  0
    3.0489    0.9058    0.0000 C   0  0  0  0  0  0  0  0  0
    3.7633    0.4933    0.0000 C   0  0  0  0  0  0  0  0  0
    4.4778    0.9058    0.0000 N   0  0  0  0  0  0  0  0  0
    4.5641    1.7263    0.0000 C   0  0  0  0  0  0  0  0  0
    5.3710    1.8978    0.0000 C   0  0  0  0  0  0  0  0  0
    5.7835    1.1833    0.0000 C   0  0  0  0  0  0  0  0  0
    5.2315    0.5702    0.0000 C   0  0  0  0  0  0  0  0  0
    5.4030   -0.2368    0.0000 C   0  0  0  0  0  0  0  0  0
    0.1910    0.9058    0.0000 C   0  0  0  0  0  0  0  0  0
   -0.5235    0.4933    0.0000 C   0  0  0  0  0  0  0  0  0
   -0.5235   -0.3317    0.0000 C   0  0  0  0  0  0  0  0  0
   -1.2380   -0.7442    0.0000 C   0  0  0  0  0  0  0  0  0
   -1.2380   -1.5692    0.0000 C   0  0  0  0  0  0  0  0  0
   -1.9524   -1.9817    0.0000 C   0  0  0  0  0  0  0  0  0
   -2.6669   -1.5692    0.0000 C   0  0  0  0  0  0  0  0  0
   -2.6669   -0.7442    0.0000 N   0  0  0  0  0  0  0  0  0
   -1.9524   -0.3317    0.0000 C   0  0  0  0  0  0  0  0  0
  1  2  4  0  0  0  0
  1 18  4  0  0  0  0
  2  3  4  0  0  0  0
  2  7  4  0  0  0  0
  3  4  4  0  0  0  0
  3 16  4  0  0  0  0
  4  5  4  0  0  0  0
  5  6  4  0  0  0  0
  5  8  1  0  0  0  0
  6  7  4  0  0  0  0
  8  9  1  0  0  0  0
  9 10  1  0  0  0  0
 10 11  1  0  0  0  0
 10 14  1  0  0  0  0
 11 12  1  0  0  0  0
 12 13  1  0  0  0  0
 13 14  1  0  0  0  0
 14 15  1  0  0  0  0
 16 17  4  0  0  0  0
 17 18  4  0  0  0  0
 18 19  1  0  0  0  0
 19 20  4  0  0  0  0
 19 24  4  0  0  0  0
 20 21  4  0  0  0  0
 21 22  4  0  0  0  0
 22 23  4  0  0  0  0
 23 24  4  0  0  0  0
M  END
>  <Name_Molregno>
632337

>  <HISTAMINE H3>
9.96

$$$$
632338
  Marvin  02231216192D 0   1.00000     0.00000     0

 24 27  0  0  1  0  0  0  0  0999 V2000
    0.1910   -0.7442    0.0000 N   0  0  0  0  0  0  0  0  0
    0.9055   -0.3317    0.0000 C   0  0  0  0  0  0  0  0  0
    0.9055    0.4933    0.0000 C   0  0  0  0  0  0  0  0  0
    1.6199    0.9058    0.0000 C   0  0  0  0  0  0  0  0  0
    2.3344    0.4933    0.0000 C   0  0  0  0  0  0  0  0  0
    2.3344   -0.3317    0.0000 C   0  0  0  0  0  0  0  0  0
    1.6199   -0.7442    0.0000 C   0  0  0  0  0  0  0  0  0
    3.0489    0.9058    0.0000 C   0  0  0  0  0  0  0  0  0
    3.7633    0.4933    0.0000 C   0  0  0  0  0  0  0  0  0
    4.4778    0.9058    0.0000 N   0  0  0  0  0  0  0  0  0
    4.5641    1.7263    0.0000 C   0  0  0  0  0  0  0  0  0
    5.3710    1.8978    0.0000 C   0  0  0  0  0  0  0  0  0
    5.7835    1.1833    0.0000 C   0  0  0  0  0  0  0  0  0
    5.2315    0.5702    0.0000 C   0  0  0  0  0  0  0  0  0
    5.4030   -0.2368    0.0000 C   0  0  0  0  0  0  0  0  0
    0.1910    0.9058    0.0000 C   0  0  0  0  0  0  0  0  0
   -0.5235    0.4933    0.0000 C   0  0  0  0  0  0  0  0  0
   -0.5235   -0.3317    0.0000 C   0  0  0  0  0  0  0  0  0
   -1.2380   -0.7442    0.0000 C   0  0  0  0  0  0  0  0  0
   -1.2380   -1.5692    0.0000 C   0  0  0  0  0  0  0  0  0
   -1.9524   -1.9817    0.0000 C   0  0  0  0  0  0  0  0  0
   -2.6669   -1.5692    0.0000 N   0  0  0  0  0  0  0  0  0
   -2.6669   -0.7442    0.0000 C   0  0  0  0  0  0  0  0  0
   -1.9524   -0.3317    0.0000 C   0  0  0  0  0  0  0  0  0
  1  2  4  0  0  0  0
  1 18  4  0  0  0  0
  2  3  4  0  0  0  0
  2  7  4  0  0  0  0
  3  4  4  0  0  0  0
  3 16  4  0  0  0  0
  4  5  4  0  0  0  0
  5  6  4  0  0  0  0
  5  8  1  0  0  0  0
  6  7  4  0  0  0  0
  8  9  1  0  0  0  0
  9 10  1  0  0  0  0
 10 11  1  0  0  0  0
 10 14  1  0  0  0  0
 11 12  1  0  0  0  0
 12 13  1  0  0  0  0
 13 14  1  0  0  0  0
 14 15  1  0  0  0  0
 16 17  4  0  0  0  0
 17 18  4  0  0  0  0
 18 19  1  0  0  0  0
 19 20  4  0  0  0  0
 19 24  4  0  0  0  0
 20 21  4  0  0  0  0
 21 22  4  0  0  0  0
 22 23  4  0  0  0  0
 23 24  4  0  0  0  0
M  END
>  <Name_Molregno>
632338

>  <HISTAMINE H3>
9.66

$$$$
632339
  Marvin  02231216192D 0   1.00000     0.00000     0

 25 28  0  0  1  0  0  0  0  0999 V2000
    0.4258   -1.6921    0.0000 Cl  0  0  0  0  0  0  0  0  0
    1.1402   -1.2796    0.0000 C   0  0  0  0  0  0  0  0  0
    1.1402   -0.4546    0.0000 N   0  0  0  0  0  0  0  0  0
    1.8547   -0.0421    0.0000 C   0  0  0  0  0  0  0  0  0
    2.5692   -0.4546    0.0000 C   0  0  0  0  0  0  0  0  0
    2.5692   -1.2796    0.0000 C   0  0  0  0  0  0  0  0  0
    1.8547   -1.6921    0.0000 C   0  0  0  0  0  0  0  0  0
    3.2837   -0.0421    0.0000 C   0  0  0  0  0  0  0  0  0
    3.9981   -0.4546    0.0000 N   0  0  0  0  0  0  0  0  0
    4.7126   -0.0421    0.0000 C   0  0  0  0  0  0  0  0  0
    4.7126    0.7829    0.0000 C   0  0  0  0  0  0  0  0  0
    5.4271    1.1954    0.0000 C   0  0  0  0  0  0  0  0  0
    6.1415    0.7829    0.0000 C   0  0  0  0  0  0  0  0  0
    6.1415   -0.0421    0.0000 C   0  0  0  0  0  0  0  0  0
    5.4271   -0.4546    0.0000 C   0  0  0  0  0  0  0  0  0
    6.8560    1.1954    0.0000 C   0  0  0  0  0  0  0  0  0
    6.8560    2.0204    0.0000 C   0  0  0  0  0  0  0  0  0
    7.5705    2.4329    0.0000 N   0  0  0  0  0  0  0  0  0
    7.6567    3.2533    0.0000 C   0  0  0  0  0  0  0  0  0
    8.4637    3.4249    0.0000 C   0  0  0  0  0  0  0  0  0
    8.8762    2.7104    0.0000 C   0  0  0  0  0  0  0  0  0
    8.3242    2.0973    0.0000 C   0  0  0  0  0  0  0  0  0
    8.4957    1.2903    0.0000 C   0  0  0  0  0  0  0  0  0
    3.9981    1.1954    0.0000 C   0  0  0  0  0  0  0  0  0
    3.2837    0.7829    0.0000 C   0  0  0  0  0  0  0  0  0
  1  2  1  0  0  0  0
  2  3  4  0  0  0  0
  2  7  4  0  0  0  0
  3  4  4  0  0  0  0
  4  5  4  0  0  0  0
  5  6  4  0  0  0  0
  5  8  1  0  0  0  0
  6  7  4  0  0  0  0
  8  9  4  0  0  0  0
  8 25  4  0  0  0  0
  9 10  4  0  0  0  0
 10 11  4  0  0  0  0
 10 15  4  0  0  0  0
 11 12  4  0  0  0  0
 11 24  4  0  0  0  0
 12 13  4  0  0  0  0
 13 14  4  0  0  0  0
 13 16  1  0  0  0  0
 14 15  4  0  0  0  0
 16 17  1  0  0  0  0
 17 18  1  0  0  0  0
 18 19  1  0  0  0  0
 18 22  1  0  0  0  0
 19 20  1  0  0  0  0
 20 21  1  0  0  0  0
 21 22  1  0  0  0  0
 22 23  1  0  0  0  0
 24 25  4  0  0  0  0
M  END
>  <Name_Molregno>
632339

>  <HISTAMINE H3>
9.6

$$$$
632401
  Marvin  02231216192D 0   1.00000     0.00000     0

 25 28  0  0  1  0  0  0  0  0999 V2000
    0.1815   -0.6338    0.0000 N   0  0  0  0  0  0  0  0  0
    0.8959   -0.2213    0.0000 C   0  0  0  0  0  0  0  0  0
    0.8959    0.6037    0.0000 C   0  0  0  0  0  0  0  0  0
    1.6104    1.0162    0.0000 C   0  0  0  0  0  0  0  0  0
    2.3249    0.6037    0.0000 C   0  0  0  0  0  0  0  0  0
    2.3249   -0.2213    0.0000 C   0  0  0  0  0  0  0  0  0
    1.6104   -0.6338    0.0000 C   0  0  0  0  0  0  0  0  0
    3.0394    1.0162    0.0000 C   0  0  0  0  0  0  0  0  0
    3.7538    0.6037    0.0000 C   0  0  0  0  0  0  0  0  0
    4.4683    1.0162    0.0000 N   0  0  0  0  0  0  0  0  0
    4.5545    1.8367    0.0000 C   0  0  0  0  0  0  0  0  0
    5.3615    2.0082    0.0000 C   0  0  0  0  0  0  0  0  0
    5.7740    1.2937    0.0000 C   0  0  0  0  0  0  0  0  0
    5.2220    0.6806    0.0000 C   0  0  0  0  0  0  0  0  0
    5.3935   -0.1263    0.0000 C   0  0  0  0  0  0  0  0  0
    0.1815    1.0162    0.0000 C   0  0  0  0  0  0  0  0  0
   -0.5330    0.6037    0.0000 C   0  0  0  0  0  0  0  0  0
   -0.5330   -0.2213    0.0000 C   0  0  0  0  0  0  0  0  0
   -1.2475   -0.6338    0.0000 C   0  0  0  0  0  0  0  0  0
   -1.2475   -1.4588    0.0000 C   0  0  0  0  0  0  0  0  0
   -1.9619   -1.8713    0.0000 C   0  0  0  0  0  0  0  0  0
   -2.6764   -1.4588    0.0000 C   0  0  0  0  0  0  0  0  0
   -2.6764   -0.6338    0.0000 N   0  0  0  0  0  0  0  0  0
   -1.9619   -0.2213    0.0000 C   0  0  0  0  0  0  0  0  0
   -3.3909   -1.8713    0.0000 C   0  0  0  0  0  0  0  0  0
  1  2  4  0  0  0  0
  1 18  4  0  0  0  0
  2  3  4  0  0  0  0
  2  7  4  0  0  0  0
  3  4  4  0  0  0  0
  3 16  4  0  0  0  0
  4  5  4  0  0  0  0
  5  6  4  0  0  0  0
  5  8  1  0  0  0  0
  6  7  4  0  0  0  0
  8  9  1  0  0  0  0
  9 10  1  0  0  0  0
 10 11  1  0  0  0  0
 10 14  1  0  0  0  0
 11 12  1  0  0  0  0
 12 13  1  0  0  0  0
 13 14  1  0  0  0  0
 14 15  1  0  0  0  0
 16 17  4  0  0  0  0
 17 18  4  0  0  0  0
 18 19  1  0  0  0  0
 19 20  4  0  0  0  0
 19 24  4  0  0  0  0
 20 21  4  0  0  0  0
 21 22  4  0  0  0  0
 22 23  4  0  0  0  0
 22 25  1  0  0  0  0
 23 24  4  0  0  0  0
M  END
>  <Name_Molregno>
632401

>  <HISTAMINE H3>
9.82

$$$$
632402
  Marvin  02231216192D 0   1.00000     0.00000     0

 26 29  0  0  1  0  0  0  0  0999 V2000
    0.1693   -0.5185    0.0000 N   0  0  0  0  0  0  0  0  0
    0.8838   -0.1060    0.0000 C   0  0  0  0  0  0  0  0  0
    0.8838    0.7190    0.0000 C   0  0  0  0  0  0  0  0  0
    1.5982    1.1315    0.0000 C   0  0  0  0  0  0  0  0  0
    2.3127    0.7190    0.0000 C   0  0  0  0  0  0  0  0  0
    2.3127   -0.1060    0.0000 C   0  0  0  0  0  0  0  0  0
    1.5982   -0.5185    0.0000 C   0  0  0  0  0  0  0  0  0
    3.0272    1.1315    0.0000 C   0  0  0  0  0  0  0  0  0
    3.7417    0.7190    0.0000 C   0  0  0  0  0  0  0  0  0
    4.4561    1.1315    0.0000 N   0  0  0  0  0  0  0  0  0
    4.5424    1.9520    0.0000 C   0  0  0  0  0  0  0  0  0
    5.3493    2.1236    0.0000 C   0  0  0  0  0  0  0  0  0
    5.7618    1.4091    0.0000 C   0  0  0  0  0  0  0  0  0
    5.2098    0.7960    0.0000 C   0  0  0  0  0  0  0  0  0
    5.3813   -0.0110    0.0000 C   0  0  0  0  0  0  0  0  0
    0.1693    1.1315    0.0000 C   0  0  0  0  0  0  0  0  0
   -0.5452    0.7190    0.0000 C   0  0  0  0  0  0  0  0  0
   -0.5452   -0.1060    0.0000 C   0  0  0  0  0  0  0  0  0
   -1.2596   -0.5185    0.0000 C   0  0  0  0  0  0  0  0  0
   -1.2596   -1.3435    0.0000 C   0  0  0  0  0  0  0  0  0
   -1.9741   -1.7560    0.0000 C   0  0  0  0  0  0  0  0  0
   -2.6886   -1.3435    0.0000 C   0  0  0  0  0  0  0  0  0
   -2.6886   -0.5185    0.0000 C   0  0  0  0  0  0  0  0  0
   -1.9741   -0.1060    0.0000 C   0  0  0  0  0  0  0  0  0
   -3.4031   -1.7560    0.0000 C   0  0  0  0  0  0  0  0  0
   -4.1175   -2.1685    0.0000 N   0  0  0  0  0  0  0  0  0
  1  2  4  0  0  0  0
  1 18  4  0  0  0  0
  2  3  4  0  0  0  0
  2  7  4  0  0  0  0
  3  4  4  0  0  0  0
  3 16  4  0  0  0  0
  4  5  4  0  0  0  0
  5  6  4  0  0  0  0
  5  8  1  0  0  0  0
  6  7  4  0  0  0  0
  8  9  1  0  0  0  0
  9 10  1  0  0  0  0
 10 11  1  0  0  0  0
 10 14  1  0  0  0  0
 11 12  1  0  0  0  0
 12 13  1  0  0  0  0
 13 14  1  0  0  0  0
 14 15  1  0  0  0  0
 16 17  4  0  0  0  0
 17 18  4  0  0  0  0
 18 19  1  0  0  0  0
 19 20  4  0  0  0  0
 19 24  4  0  0  0  0
 20 21  4  0  0  0  0
 21 22  4  0  0  0  0
 22 23  4  0  0  0  0
 22 25  1  0  0  0  0
 23 24  4  0  0  0  0
 25 26  3  0  0  0  0
M  END
>  <Name_Molregno>
632402

>  <HISTAMINE H3>
9.16

$$$$
632403
  Marvin  02231216192D 0   1.00000     0.00000     0

 18 20  0  0  1  0  0  0  0  0999 V2000
    0.2088   -1.3725    0.0000 N   0  0  0  0  0  0  0  0  0
    0.9233   -0.9600    0.0000 C   0  0  0  0  0  0  0  0  0
    0.9233   -0.1350    0.0000 C   0  0  0  0  0  0  0  0  0
    1.6378    0.2775    0.0000 C   0  0  0  0  0  0  0  0  0
    2.3523   -0.1350    0.0000 C   0  0  0  0  0  0  0  0  0
    2.3523   -0.9600    0.0000 C   0  0  0  0  0  0  0  0  0
    1.6378   -1.3725    0.0000 C   0  0  0  0  0  0  0  0  0
    3.0667    0.2775    0.0000 C   0  0  0  0  0  0  0  0  0
    3.7812   -0.1350    0.0000 C   0  0  0  0  0  0  0  0  0
    4.4957    0.2775    0.0000 N   0  0  0  0  0  0  0  0  0
    4.5819    1.0979    0.0000 C   0  0  0  0  0  0  0  0  0
    5.3889    1.2695    0.0000 C   0  0  0  0  0  0  0  0  0
    5.8014    0.5550    0.0000 C   0  0  0  0  0  0  0  0  0
    5.2493   -0.0581    0.0000 C   0  0  0  0  0  0  0  0  0
    5.4209   -0.8651    0.0000 C   0  0  0  0  0  0  0  0  0
    0.2088    0.2775    0.0000 C   0  0  0  0  0  0  0  0  0
   -0.5056   -0.1350    0.0000 C   0  0  0  0  0  0  0  0  0
   -0.5056   -0.9600    0.0000 C   0  0  0  0  0  0  0  0  0
  1  2  4  0  0  0  0
  1 18  4  0  0  0  0
  2  3  4  0  0  0  0
  2  7  4  0  0  0  0
  3  4  4  0  0  0  0
  3 16  4  0  0  0  0
  4  5  4  0  0  0  0
  5  6  4  0  0  0  0
  5  8  1  0  0  0  0
  6  7  4  0  0  0  0
  8  9  1  0  0  0  0
  9 10  1  0  0  0  0
 10 11  1  0  0  0  0
 10 14  1  0  0  0  0
 11 12  1  0  0  0  0
 12 13  1  0  0  0  0
 13 14  1  0  0  0  0
 14 15  1  0  0  0  0
 16 17  4  0  0  0  0
 17 18  4  0  0  0  0
M  END
>  <Name_Molregno>
632403

>  <HISTAMINE H3>
8.13

$$$$
632404
  Marvin  02231216192D 0   1.00000     0.00000     0

 19 21  0  0  1  0  0  0  0  0999 V2000
    0.2098   -1.2641    0.0000 N   0  0  0  0  0  0  0  0  0
    0.9243   -0.8516    0.0000 C   0  0  0  0  0  0  0  0  0
    0.9243   -0.0266    0.0000 C   0  0  0  0  0  0  0  0  0
    1.6388    0.3859    0.0000 C   0  0  0  0  0  0  0  0  0
    2.3532   -0.0266    0.0000 C   0  0  0  0  0  0  0  0  0
    2.3532   -0.8516    0.0000 C   0  0  0  0  0  0  0  0  0
    1.6388   -1.2641    0.0000 C   0  0  0  0  0  0  0  0  0
    3.0677    0.3859    0.0000 C   0  0  0  0  0  0  0  0  0
    3.7822   -0.0266    0.0000 C   0  0  0  0  0  0  0  0  0
    4.4966    0.3859    0.0000 N   0  0  0  0  0  0  0  0  0
    4.5829    1.2064    0.0000 C   0  0  0  0  0  0  0  0  0
    5.3898    1.3779    0.0000 C   0  0  0  0  0  0  0  0  0
    5.8023    0.6634    0.0000 C   0  0  0  0  0  0  0  0  0
    5.2503    0.0503    0.0000 C   0  0  0  0  0  0  0  0  0
    5.4218   -0.7567    0.0000 C   0  0  0  0  0  0  0  0  0
    0.2098    0.3859    0.0000 C   0  0  0  0  0  0  0  0  0
   -0.5047   -0.0266    0.0000 C   0  0  0  0  0  0  0  0  0
   -0.5047   -0.8516    0.0000 C   0  0  0  0  0  0  0  0  0
   -1.2191   -1.2641    0.0000 C   0  0  0  0  0  0  0  0  0
  1  2  4  0  0  0  0
  1 18  4  0  0  0  0
  2  3  4  0  0  0  0
  2  7  4  0  0  0  0
  3  4  4  0  0  0  0
  3 16  4  0  0  0  0
  4  5  4  0  0  0  0
  5  6  4  0  0  0  0
  5  8  1  0  0  0  0
  6  7  4  0  0  0  0
  8  9  1  0  0  0  0
  9 10  1  0  0  0  0
 10 11  1  0  0  0  0
 10 14  1  0  0  0  0
 11 12  1  0  0  0  0
 12 13  1  0  0  0  0
 13 14  1  0  0  0  0
 14 15  1  0  0  0  0
 16 17  4  0  0  0  0
 17 18  4  0  0  0  0
 18 19  1  0  0  0  0
M  END
>  <Name_Molregno>
632404

>  <HISTAMINE H3>
7.92

$$$$
632405
  Marvin  02231216192D 0   1.00000     0.00000     0

 21 24  0  0  1  0  0  0  0  0999 V2000
   -0.0415   -0.0354    0.0000 N   0  0  0  0  0  0  0  0  0
    0.6729    0.3771    0.0000 C   0  0  0  0  0  0  0  0  0
    0.6729    1.2021    0.0000 C   0  0  0  0  0  0  0  0  0
    1.3874    1.6146    0.0000 C   0  0  0  0  0  0  0  0  0
    2.1019    1.2021    0.0000 C   0  0  0  0  0  0  0  0  0
    2.1019    0.3771    0.0000 C   0  0  0  0  0  0  0  0  0
    1.3874   -0.0354    0.0000 C   0  0  0  0  0  0  0  0  0
    2.8164    1.6146    0.0000 C   0  0  0  0  0  0  0  0  0
    3.5308    1.2021    0.0000 C   0  0  0  0  0  0  0  0  0
    4.2453    1.6146    0.0000 N   0  0  0  0  0  0  0  0  0
    4.3315    2.4350    0.0000 C   0  0  0  0  0  0  0  0  0
    5.1385    2.6066    0.0000 C   0  0  0  0  0  0  0  0  0
    5.5510    1.8921    0.0000 C   0  0  0  0  0  0  0  0  0
    4.9990    1.2790    0.0000 C   0  0  0  0  0  0  0  0  0
    5.1705    0.4720    0.0000 C   0  0  0  0  0  0  0  0  0
   -0.0415    1.6146    0.0000 C   0  0  0  0  0  0  0  0  0
   -0.7560    1.2021    0.0000 C   0  0  0  0  0  0  0  0  0
   -0.7560    0.3771    0.0000 C   0  0  0  0  0  0  0  0  0
   -1.4705   -0.0354    0.0000 C   0  0  0  0  0  0  0  0  0
   -1.8830   -0.7499    0.0000 C   0  0  0  0  0  0  0  0  0
   -2.2955   -0.0354    0.0000 C   0  0  0  0  0  0  0  0  0
  1  2  4  0  0  0  0
  1 18  4  0  0  0  0
  2  3  4  0  0  0  0
  2  7  4  0  0  0  0
  3  4  4  0  0  0  0
  3 16  4  0  0  0  0
  4  5  4  0  0  0  0
  5  6  4  0  0  0  0
  5  8  1  0  0  0  0
  6  7  4  0  0  0  0
  8  9  1  0  0  0  0
  9 10  1  0  0  0  0
 10 11  1  0  0  0  0
 10 14  1  0  0  0  0
 11 12  1  0  0  0  0
 12 13  1  0  0  0  0
 13 14  1  0  0  0  0
 14 15  1  0  0  0  0
 16 17  4  0  0  0  0
 17 18  4  0  0  0  0
 18 19  1  0  0  0  0
 19 20  1  0  0  0  0
 19 21  1  0  0  0  0
 20 21  1  0  0  0  0
M  END
>  <Name_Molregno>
632405

>  <HISTAMINE H3>
8.13

$$$$
632468
  Marvin  02231216192D 0   1.00000     0.00000     0

 22 24  0  0  1  0  0  0  0  0999 V2000
    0.1716   -0.9521    0.0000 N   0  0  0  0  0  0  0  0  0
    0.8861   -0.5396    0.0000 C   0  0  0  0  0  0  0  0  0
    0.8861    0.2854    0.0000 C   0  0  0  0  0  0  0  0  0
    1.6006    0.6979    0.0000 C   0  0  0  0  0  0  0  0  0
    2.3150    0.2854    0.0000 C   0  0  0  0  0  0  0  0  0
    2.3150   -0.5396    0.0000 C   0  0  0  0  0  0  0  0  0
    1.6006   -0.9521    0.0000 C   0  0  0  0  0  0  0  0  0
    3.0295    0.6979    0.0000 C   0  0  0  0  0  0  0  0  0
    3.7440    0.2854    0.0000 C   0  0  0  0  0  0  0  0  0
    4.4585    0.6979    0.0000 N   0  0  0  0  0  0  0  0  0
    4.5447    1.5184    0.0000 C   0  0  0  0  0  0  0  0  0
    5.3517    1.6899    0.0000 C   0  0  0  0  0  0  0  0  0
    5.7642    0.9755    0.0000 C   0  0  0  0  0  0  0  0  0
    5.2121    0.3624    0.0000 C   0  0  0  0  0  0  0  0  0
    5.3837   -0.4446    0.0000 C   0  0  0  0  0  0  0  0  0
    0.1716    0.6979    0.0000 C   0  0  0  0  0  0  0  0  0
   -0.5428    0.2854    0.0000 C   0  0  0  0  0  0  0  0  0
   -0.5428   -0.5396    0.0000 C   0  0  0  0  0  0  0  0  0
   -1.2573   -0.9521    0.0000 C   0  0  0  0  0  0  0  0  0
   -1.9718   -1.3646    0.0000 C   0  0  0  0  0  0  0  0  0
   -1.6698   -0.2376    0.0000 C   0  0  0  0  0  0  0  0  0
   -0.8448   -1.6665    0.0000 C   0  0  0  0  0  0  0  0  0
  1  2  4  0  0  0  0
  1 18  4  0  0  0  0
  2  3  4  0  0  0  0
  2  7  4  0  0  0  0
  3  4  4  0  0  0  0
  3 16  4  0  0  0  0
  4  5  4  0  0  0  0
  5  6  4  0  0  0  0
  5  8  1  0  0  0  0
  6  7  4  0  0  0  0
  8  9  1  0  0  0  0
  9 10  1  0  0  0  0
 10 11  1  0  0  0  0
 10 14  1  0  0  0  0
 11 12  1  0  0  0  0
 12 13  1  0  0  0  0
 13 14  1  0  0  0  0
 14 15  1  0  0  0  0
 16 17  4  0  0  0  0
 17 18  4  0  0  0  0
 18 19  1  0  0  0  0
 19 20  1  0  0  0  0
 19 21  1  0  0  0  0
 19 22  1  0  0  0  0
M  END
>  <Name_Molregno>
632468

>  <HISTAMINE H3>
7.96

$$$$
632469
  Marvin  02231216192D 0   1.00000     0.00000     0

 23 26  0  0  1  0  0  0  0  0999 V2000
    0.2497   -1.2430    0.0000 O   0  0  0  0  0  0  0  0  0
    0.8017   -0.6299    0.0000 C   0  0  0  0  0  0  0  0  0
    1.5554   -0.9655    0.0000 C   0  0  0  0  0  0  0  0  0
    1.4691   -1.7860    0.0000 C   0  0  0  0  0  0  0  0  0
    0.6622   -1.9575    0.0000 C   0  0  0  0  0  0  0  0  0
    2.2698   -0.5530    0.0000 C   0  0  0  0  0  0  0  0  0
    2.9843   -0.9655    0.0000 N   0  0  0  0  0  0  0  0  0
    3.6988   -0.5530    0.0000 C   0  0  0  0  0  0  0  0  0
    3.6988    0.2720    0.0000 C   0  0  0  0  0  0  0  0  0
    4.4132    0.6845    0.0000 C   0  0  0  0  0  0  0  0  0
    5.1277    0.2720    0.0000 C   0  0  0  0  0  0  0  0  0
    5.1277   -0.5530    0.0000 C   0  0  0  0  0  0  0  0  0
    4.4132   -0.9655    0.0000 C   0  0  0  0  0  0  0  0  0
    5.8422    0.6845    0.0000 C   0  0  0  0  0  0  0  0  0
    5.8422    1.5095    0.0000 C   0  0  0  0  0  0  0  0  0
    6.5567    1.9220    0.0000 N   0  0  0  0  0  0  0  0  0
    6.6429    2.7425    0.0000 C   0  0  0  0  0  0  0  0  0
    7.4499    2.9140    0.0000 C   0  0  0  0  0  0  0  0  0
    7.8624    2.1996    0.0000 C   0  0  0  0  0  0  0  0  0
    7.3103    1.5865    0.0000 C   0  0  0  0  0  0  0  0  0
    7.4819    0.7795    0.0000 C   0  0  0  0  0  0  0  0  0
    2.9843    0.6845    0.0000 C   0  0  0  0  0  0  0  0  0
    2.2698    0.2720    0.0000 C   0  0  0  0  0  0  0  0  0
  1  2  4  0  0  0  0
  1  5  4  0  0  0  0
  2  3  4  0  0  0  0
  3  4  4  0  0  0  0
  3  6  1  0  0  0  0
  4  5  4  0  0  0  0
  6  7  4  0  0  0  0
  6 23  4  0  0  0  0
  7  8  4  0  0  0  0
  8  9  4  0  0  0  0
  8 13  4  0  0  0  0
  9 10  4  0  0  0  0
  9 22  4  0  0  0  0
 10 11  4  0  0  0  0
 11 12  4  0  0  0  0
 11 14  1  0  0  0  0
 12 13  4  0  0  0  0
 14 15  1  0  0  0  0
 15 16  1  0  0  0  0
 16 17  1  0  0  0  0
 16 20  1  0  0  0  0
 17 18  1  0  0  0  0
 18 19  1  0  0  0  0
 19 20  1  0  0  0  0
 20 21  1  0  0  0  0
 22 23  4  0  0  0  0
M  END
>  <Name_Molregno>
632469

>  <HISTAMINE H3>
8.29

$$$$
632470
  Marvin  02231216192D 0   1.00000     0.00000     0

 23 26  0  0  1  0  0  0  0  0999 V2000
    0.2497   -1.2430    0.0000 S   0  0  0  0  0  0  0  0  0
    0.8017   -0.6299    0.0000 C   0  0  0  0  0  0  0  0  0
    1.5554   -0.9655    0.0000 C   0  0  0  0  0  0  0  0  0
    1.4691   -1.7860    0.0000 C   0  0  0  0  0  0  0  0  0
    0.6622   -1.9575    0.0000 C   0  0  0  0  0  0  0  0  0
    2.2698   -0.5530    0.0000 C   0  0  0  0  0  0  0  0  0
    2.9843   -0.9655    0.0000 N   0  0  0  0  0  0  0  0  0
    3.6988   -0.5530    0.0000 C   0  0  0  0  0  0  0  0  0
    3.6988    0.2720    0.0000 C   0  0  0  0  0  0  0  0  0
    4.4132    0.6845    0.0000 C   0  0  0  0  0  0  0  0  0
    5.1277    0.2720    0.0000 C   0  0  0  0  0  0  0  0  0
    5.1277   -0.5530    0.0000 C   0  0  0  0  0  0  0  0  0
    4.4132   -0.9655    0.0000 C   0  0  0  0  0  0  0  0  0
    5.8422    0.6845    0.0000 C   0  0  0  0  0  0  0  0  0
    5.8422    1.5095    0.0000 C   0  0  0  0  0  0  0  0  0
    6.5567    1.9220    0.0000 N   0  0  0  0  0  0  0  0  0
    6.6429    2.7425    0.0000 C   0  0  0  0  0  0  0  0  0
    7.4499    2.9140    0.0000 C   0  0  0  0  0  0  0  0  0
    7.8624    2.1996    0.0000 C   0  0  0  0  0  0  0  0  0
    7.3103    1.5865    0.0000 C   0  0  0  0  0  0  0  0  0
    7.4819    0.7795    0.0000 C   0  0  0  0  0  0  0  0  0
    2.9843    0.6845    0.0000 C   0  0  0  0  0  0  0  0  0
    2.2698    0.2720    0.0000 C   0  0  0  0  0  0  0  0  0
  1  2  4  0  0  0  0
  1  5  4  0  0  0  0
  2  3  4  0  0  0  0
  3  4  4  0  0  0  0
  3  6  1  0  0  0  0
  4  5  4  0  0  0  0
  6  7  4  0  0  0  0
  6 23  4  0  0  0  0
  7  8  4  0  0  0  0
  8  9  4  0  0  0  0
  8 13  4  0  0  0  0
  9 10  4  0  0  0  0
  9 22  4  0  0  0  0
 10 11  4  0  0  0  0
 11 12  4  0  0  0  0
 11 14  1  0  0  0  0
 12 13  4  0  0  0  0
 14 15  1  0  0  0  0
 15 16  1  0  0  0  0
 16 17  1  0  0  0  0
 16 20  1  0  0  0  0
 17 18  1  0  0  0  0
 18 19  1  0  0  0  0
 19 20  1  0  0  0  0
 20 21  1  0  0  0  0
 22 23  4  0  0  0  0
M  END
>  <Name_Molregno>
632470

>  <HISTAMINE H3>
8.6

$$$$
632471
  Marvin  02231216192D 0   1.00000     0.00000     0

 25 28  0  0  1  0  0  0  0  0999 V2000
    0.4708   -1.4997    0.0000 N   0  0  0  0  0  0  0  0  0
    0.0583   -0.7852    0.0000 N   0  0  0  0  0  0  0  0  0
    0.6103   -0.1721    0.0000 C   0  0  0  0  0  0  0  0  0
    0.4388    0.6348    0.0000 C   0  0  0  0  0  0  0  0  0
    1.3640   -0.5077    0.0000 C   0  0  0  0  0  0  0  0  0
    2.0785   -0.0952    0.0000 C   0  0  0  0  0  0  0  0  0
    2.7929   -0.5077    0.0000 N   0  0  0  0  0  0  0  0  0
    3.5074   -0.0952    0.0000 C   0  0  0  0  0  0  0  0  0
    3.5074    0.7298    0.0000 C   0  0  0  0  0  0  0  0  0
    4.2219    1.1423    0.0000 C   0  0  0  0  0  0  0  0  0
    4.9363    0.7298    0.0000 C   0  0  0  0  0  0  0  0  0
    4.9363   -0.0952    0.0000 C   0  0  0  0  0  0  0  0  0
    4.2219   -0.5077    0.0000 C   0  0  0  0  0  0  0  0  0
    5.6508    1.1423    0.0000 C   0  0  0  0  0  0  0  0  0
    5.6508    1.9673    0.0000 C   0  0  0  0  0  0  0  0  0
    6.3653    2.3798    0.0000 N   0  0  0  0  0  0  0  0  0
    6.4515    3.2003    0.0000 C   0  0  0  0  0  0  0  0  0
    7.2585    3.3718    0.0000 C   0  0  0  0  0  0  0  0  0
    7.6710    2.6574    0.0000 C   0  0  0  0  0  0  0  0  0
    7.1190    2.0443    0.0000 C   0  0  0  0  0  0  0  0  0
    7.2905    1.2373    0.0000 C   0  0  0  0  0  0  0  0  0
    2.7929    1.1423    0.0000 C   0  0  0  0  0  0  0  0  0
    2.0785    0.7298    0.0000 C   0  0  0  0  0  0  0  0  0
    1.2777   -1.3282    0.0000 C   0  0  0  0  0  0  0  0  0
    1.8908   -1.8802    0.0000 C   0  0  0  0  0  0  0  0  0
  1  2  4  0  0  0  0
  1 24  4  0  0  0  0
  2  3  4  0  0  0  0
  3  4  1  0  0  0  0
  3  5  4  0  0  0  0
  5  6  1  0  0  0  0
  5 24  4  0  0  0  0
  6  7  4  0  0  0  0
  6 23  4  0  0  0  0
  7  8  4  0  0  0  0
  8  9  4  0  0  0  0
  8 13  4  0  0  0  0
  9 10  4  0  0  0  0
  9 22  4  0  0  0  0
 10 11  4  0  0  0  0
 11 12  4  0  0  0  0
 11 14  1  0  0  0  0
 12 13  4  0  0  0  0
 14 15  1  0  0  0  0
 15 16  1  0  0  0  0
 16 17  1  0  0  0  0
 16 20  1  0  0  0  0
 17 18  1  0  0  0  0
 18 19  1  0  0  0  0
 19 20  1  0  0  0  0
 20 21  1  0  0  0  0
 22 23  4  0  0  0  0
 24 25  1  0  0  0  0
M  STY  1   1 DAT
M  SAL   1  1   1
M  SDT   1 MRV_IMPLICIT_H                                        
M  SDD   1     0.0000    0.0000    DR    ALL  0       0  
M  SED   1 IMPL_H1
M  END
>  <Name_Molregno>
632471

>  <HISTAMINE H3>
9.03

$$$$
632472
  Marvin  02231216192D 0   1.00000     0.00000     0

 25 28  0  0  1  0  0  0  0  0999 V2000
    0.2357   -0.6572    0.0000 N   0  0  0  0  0  0  0  0  0
    0.9502   -0.2447    0.0000 C   0  0  0  0  0  0  0  0  0
    0.9502    0.5803    0.0000 C   0  0  0  0  0  0  0  0  0
    1.6647    0.9928    0.0000 C   0  0  0  0  0  0  0  0  0
    2.3791    0.5803    0.0000 C   0  0  0  0  0  0  0  0  0
    2.3791   -0.2447    0.0000 C   0  0  0  0  0  0  0  0  0
    1.6647   -0.6572    0.0000 C   0  0  0  0  0  0  0  0  0
    3.0936    0.9928    0.0000 C   0  0  0  0  0  0  0  0  0
    3.8081    0.5803    0.0000 C   0  0  0  0  0  0  0  0  0
    4.5226    0.9928    0.0000 N   0  0  0  0  0  0  0  0  0
    4.6088    1.8133    0.0000 C   0  0  0  0  0  0  0  0  0
    5.4158    1.9848    0.0000 C   0  0  0  0  0  0  0  0  0
    5.8283    1.2704    0.0000 C   0  0  0  0  0  0  0  0  0
    5.2762    0.6573    0.0000 C   0  0  0  0  0  0  0  0  0
    5.4478   -0.1497    0.0000 C   0  0  0  0  0  0  0  0  0
    0.2357    0.9928    0.0000 C   0  0  0  0  0  0  0  0  0
   -0.4787    0.5803    0.0000 C   0  0  0  0  0  0  0  0  0
   -0.4787   -0.2447    0.0000 C   0  0  0  0  0  0  0  0  0
   -1.1932   -0.6572    0.0000 C   0  0  0  0  0  0  0  0  0
   -1.2794   -1.4776    0.0000 C   0  0  0  0  0  0  0  0  0
   -2.0864   -1.6492    0.0000 N   0  0  0  0  0  0  0  0  0
   -2.4989   -0.9347    0.0000 N   0  0  0  0  0  0  0  0  0
   -3.3194   -0.8485    0.0000 C   0  0  0  0  0  0  0  0  0
   -1.9469   -0.3216    0.0000 C   0  0  0  0  0  0  0  0  0
   -2.1184    0.4854    0.0000 C   0  0  0  0  0  0  0  0  0
  1  2  4  0  0  0  0
  1 18  4  0  0  0  0
  2  3  4  0  0  0  0
  2  7  4  0  0  0  0
  3  4  4  0  0  0  0
  3 16  4  0  0  0  0
  4  5  4  0  0  0  0
  5  6  4  0  0  0  0
  5  8  1  0  0  0  0
  6  7  4  0  0  0  0
  8  9  1  0  0  0  0
  9 10  1  0  0  0  0
 10 11  1  0  0  0  0
 10 14  1  0  0  0  0
 11 12  1  0  0  0  0
 12 13  1  0  0  0  0
 13 14  1  0  0  0  0
 14 15  1  0  0  0  0
 16 17  4  0  0  0  0
 17 18  4  0  0  0  0
 18 19  1  0  0  0  0
 19 20  4  0  0  0  0
 19 24  4  0  0  0  0
 20 21  4  0  0  0  0
 21 22  4  0  0  0  0
 22 23  1  0  0  0  0
 22 24  4  0  0  0  0
 24 25  1  0  0  0  0
M  END
>  <Name_Molregno>
632472

>  <HISTAMINE H3>
9.8

$$$$
632525
  Marvin  02231216192D 0   1.00000     0.00000     0

 24 27  0  0  1  0  0  0  0  0999 V2000
    0.4947   -1.5207    0.0000 N   0  0  0  0  0  0  0  0  0
    0.0822   -0.8063    0.0000 N   0  0  0  0  0  0  0  0  0
    0.6343   -0.1932    0.0000 C   0  0  0  0  0  0  0  0  0
    0.4627    0.6138    0.0000 C   0  0  0  0  0  0  0  0  0
    1.3879   -0.5287    0.0000 C   0  0  0  0  0  0  0  0  0
    1.3017   -1.3492    0.0000 C   0  0  0  0  0  0  0  0  0
    2.1024   -0.1162    0.0000 C   0  0  0  0  0  0  0  0  0
    2.8169   -0.5287    0.0000 N   0  0  0  0  0  0  0  0  0
    3.5314   -0.1162    0.0000 C   0  0  0  0  0  0  0  0  0
    3.5314    0.7088    0.0000 C   0  0  0  0  0  0  0  0  0
    4.2458    1.1213    0.0000 C   0  0  0  0  0  0  0  0  0
    4.9603    0.7088    0.0000 C   0  0  0  0  0  0  0  0  0
    4.9603   -0.1162    0.0000 C   0  0  0  0  0  0  0  0  0
    4.2458   -0.5287    0.0000 C   0  0  0  0  0  0  0  0  0
    5.6748    1.1213    0.0000 C   0  0  0  0  0  0  0  0  0
    5.6748    1.9463    0.0000 C   0  0  0  0  0  0  0  0  0
    6.3892    2.3588    0.0000 N   0  0  0  0  0  0  0  0  0
    6.4755    3.1793    0.0000 C   0  0  0  0  0  0  0  0  0
    7.2824    3.3508    0.0000 C   0  0  0  0  0  0  0  0  0
    7.6949    2.6363    0.0000 C   0  0  0  0  0  0  0  0  0
    7.1429    2.0232    0.0000 C   0  0  0  0  0  0  0  0  0
    7.3144    1.2162    0.0000 C   0  0  0  0  0  0  0  0  0
    2.8169    1.1213    0.0000 C   0  0  0  0  0  0  0  0  0
    2.1024    0.7088    0.0000 C   0  0  0  0  0  0  0  0  0
  1  2  4  0  0  0  0
  1  6  4  0  0  0  0
  2  3  4  0  0  0  0
  3  4  1  0  0  0  0
  3  5  4  0  0  0  0
  5  6  4  0  0  0  0
  5  7  1  0  0  0  0
  7  8  4  0  0  0  0
  7 24  4  0  0  0  0
  8  9  4  0  0  0  0
  9 10  4  0  0  0  0
  9 14  4  0  0  0  0
 10 11  4  0  0  0  0
 10 23  4  0  0  0  0
 11 12  4  0  0  0  0
 12 13  4  0  0  0  0
 12 15  1  0  0  0  0
 13 14  4  0  0  0  0
 15 16  1  0  0  0  0
 16 17  1  0  0  0  0
 17 18  1  0  0  0  0
 17 21  1  0  0  0  0
 18 19  1  0  0  0  0
 19 20  1  0  0  0  0
 20 21  1  0  0  0  0
 21 22  1  0  0  0  0
 23 24  4  0  0  0  0
M  STY  1   1 DAT
M  SAL   1  1   1
M  SDT   1 MRV_IMPLICIT_H                                        
M  SDD   1     0.0000    0.0000    DR    ALL  0       0  
M  SED   1 IMPL_H1
M  END
>  <Name_Molregno>
632525

>  <HISTAMINE H3>
9.7

$$$$
632526
  Marvin  02231216192D 0   1.00000     0.00000     0

 23 26  0  0  1  0  0  0  0  0999 V2000
    0.5762   -2.0712    0.0000 N   0  0  0  0  0  0  0  0  0
   -0.2308   -2.2428    0.0000 N   0  0  0  0  0  0  0  0  0
   -0.6433   -1.5283    0.0000 C   0  0  0  0  0  0  0  0  0
   -0.0913   -0.9152    0.0000 C   0  0  0  0  0  0  0  0  0
    0.6624   -1.2508    0.0000 C   0  0  0  0  0  0  0  0  0
    1.3769   -0.8383    0.0000 C   0  0  0  0  0  0  0  0  0
    2.0913   -1.2508    0.0000 N   0  0  0  0  0  0  0  0  0
    2.8058   -0.8383    0.0000 C   0  0  0  0  0  0  0  0  0
    2.8058   -0.0133    0.0000 C   0  0  0  0  0  0  0  0  0
    3.5203    0.3992    0.0000 C   0  0  0  0  0  0  0  0  0
    4.2348   -0.0133    0.0000 C   0  0  0  0  0  0  0  0  0
    4.2348   -0.8383    0.0000 C   0  0  0  0  0  0  0  0  0
    3.5203   -1.2508    0.0000 C   0  0  0  0  0  0  0  0  0
    4.9492    0.3992    0.0000 C   0  0  0  0  0  0  0  0  0
    4.9492    1.2242    0.0000 C   0  0  0  0  0  0  0  0  0
    5.6637    1.6367    0.0000 N   0  0  0  0  0  0  0  0  0
    5.7499    2.4572    0.0000 C   0  0  0  0  0  0  0  0  0
    6.5569    2.6287    0.0000 C   0  0  0  0  0  0  0  0  0
    6.9694    1.9143    0.0000 C   0  0  0  0  0  0  0  0  0
    6.4174    1.3012    0.0000 C   0  0  0  0  0  0  0  0  0
    6.5889    0.4942    0.0000 C   0  0  0  0  0  0  0  0  0
    2.0913    0.3992    0.0000 C   0  0  0  0  0  0  0  0  0
    1.3769   -0.0133    0.0000 C   0  0  0  0  0  0  0  0  0
  1  2  4  0  0  0  0
  1  5  4  0  0  0  0
  2  3  4  0  0  0  0
  3  4  4  0  0  0  0
  4  5  4  0  0  0  0
  5  6  1  0  0  0  0
  6  7  4  0  0  0  0
  6 23  4  0  0  0  0
  7  8  4  0  0  0  0
  8  9  4  0  0  0  0
  8 13  4  0  0  0  0
  9 10  4  0  0  0  0
  9 22  4  0  0  0  0
 10 11  4  0  0  0  0
 11 12  4  0  0  0  0
 11 14  1  0  0  0  0
 12 13  4  0  0  0  0
 14 15  1  0  0  0  0
 15 16  1  0  0  0  0
 16 17  1  0  0  0  0
 16 20  1  0  0  0  0
 17 18  1  0  0  0  0
 18 19  1  0  0  0  0
 19 20  1  0  0  0  0
 20 21  1  0  0  0  0
 22 23  4  0  0  0  0
M  STY  1   1 DAT
M  SAL   1  1   1
M  SDT   1 MRV_IMPLICIT_H                                        
M  SDD   1     0.0000    0.0000    DR    ALL  0       0  
M  SED   1 IMPL_H1
M  END
>  <Name_Molregno>
632526

>  <HISTAMINE H3>
8.49

$$$$
632527
  Marvin  02231216192D 0   1.00000     0.00000     0

 23 26  0  0  1  0  0  0  0  0999 V2000
    0.4948   -1.6139    0.0000 N   0  0  0  0  0  0  0  0  0
    0.0823   -0.8994    0.0000 N   0  0  0  0  0  0  0  0  0
    0.6343   -0.2863    0.0000 C   0  0  0  0  0  0  0  0  0
    1.3880   -0.6219    0.0000 C   0  0  0  0  0  0  0  0  0
    1.3018   -1.4424    0.0000 C   0  0  0  0  0  0  0  0  0
    2.1025   -0.2094    0.0000 C   0  0  0  0  0  0  0  0  0
    2.8169   -0.6219    0.0000 N   0  0  0  0  0  0  0  0  0
    3.5314   -0.2094    0.0000 C   0  0  0  0  0  0  0  0  0
    3.5314    0.6156    0.0000 C   0  0  0  0  0  0  0  0  0
    4.2459    1.0281    0.0000 C   0  0  0  0  0  0  0  0  0
    4.9603    0.6156    0.0000 C   0  0  0  0  0  0  0  0  0
    4.9603   -0.2094    0.0000 C   0  0  0  0  0  0  0  0  0
    4.2459   -0.6219    0.0000 C   0  0  0  0  0  0  0  0  0
    5.6748    1.0281    0.0000 C   0  0  0  0  0  0  0  0  0
    5.6748    1.8531    0.0000 C   0  0  0  0  0  0  0  0  0
    6.3893    2.2656    0.0000 N   0  0  0  0  0  0  0  0  0
    6.4755    3.0861    0.0000 C   0  0  0  0  0  0  0  0  0
    7.2825    3.2576    0.0000 C   0  0  0  0  0  0  0  0  0
    7.6950    2.5431    0.0000 C   0  0  0  0  0  0  0  0  0
    7.1430    1.9300    0.0000 C   0  0  0  0  0  0  0  0  0
    7.3145    1.1231    0.0000 C   0  0  0  0  0  0  0  0  0
    2.8169    1.0281    0.0000 C   0  0  0  0  0  0  0  0  0
    2.1025    0.6156    0.0000 C   0  0  0  0  0  0  0  0  0
  1  2  4  0  0  0  0
  1  5  4  0  0  0  0
  2  3  4  0  0  0  0
  3  4  4  0  0  0  0
  4  5  4  0  0  0  0
  4  6  1  0  0  0  0
  6  7  4  0  0  0  0
  6 23  4  0  0  0  0
  7  8  4  0  0  0  0
  8  9  4  0  0  0  0
  8 13  4  0  0  0  0
  9 10  4  0  0  0  0
  9 22  4  0  0  0  0
 10 11  4  0  0  0  0
 11 12  4  0  0  0  0
 11 14  1  0  0  0  0
 12 13  4  0  0  0  0
 14 15  1  0  0  0  0
 15 16  1  0  0  0  0
 16 17  1  0  0  0  0
 16 20  1  0  0  0  0
 17 18  1  0  0  0  0
 18 19  1  0  0  0  0
 19 20  1  0  0  0  0
 20 21  1  0  0  0  0
 22 23  4  0  0  0  0
M  STY  1   1 DAT
M  SAL   1  1   1
M  SDT   1 MRV_IMPLICIT_H                                        
M  SDD   1     0.0000    0.0000    DR    ALL  0       0  
M  SED   1 IMPL_H1
M  END
>  <Name_Molregno>
632527

>  <HISTAMINE H3>
9.05

$$$$
632528
  Marvin  02231216192D 0   1.00000     0.00000     0

 28 31  0  0  1  0  0  0  0  0999 V2000
    0.3925   -1.7516    0.0000 O   0  0  0  0  0  0  0  0  0
   -0.4145   -1.9231    0.0000 N   0  0  0  0  0  0  0  0  0
   -0.8270   -1.2086    0.0000 C   0  0  0  0  0  0  0  0  0
   -0.2750   -0.5955    0.0000 C   0  0  0  0  0  0  0  0  0
    0.4787   -0.9311    0.0000 C   0  0  0  0  0  0  0  0  0
    1.1932   -0.5186    0.0000 C   0  0  0  0  0  0  0  0  0
    1.9077   -0.9311    0.0000 N   0  0  0  0  0  0  0  0  0
    2.6221   -0.5186    0.0000 C   0  0  0  0  0  0  0  0  0
    2.6221    0.3064    0.0000 C   0  0  0  0  0  0  0  0  0
    3.3366    0.7189    0.0000 C   0  0  0  0  0  0  0  0  0
    4.0511    0.3064    0.0000 C   0  0  0  0  0  0  0  0  0
    4.0511   -0.5186    0.0000 C   0  0  0  0  0  0  0  0  0
    3.3366   -0.9311    0.0000 C   0  0  0  0  0  0  0  0  0
    4.7655    0.7189    0.0000 C   0  0  0  0  0  0  0  0  0
    5.4800    0.3064    0.0000 C   0  0  0  0  0  0  0  0  0
    6.1945    0.7189    0.0000 N   0  0  0  0  0  0  0  0  0
    6.2807    1.5394    0.0000 C   0  0  0  0  0  0  0  0  0
    7.0877    1.7109    0.0000 C   0  0  0  0  0  0  0  0  0
    7.5002    0.9965    0.0000 C   0  0  0  0  0  0  0  0  0
    6.9482    0.3834    0.0000 C   0  0  0  0  0  0  0  0  0
    7.1197   -0.4236    0.0000 C   0  0  0  0  0  0  0  0  0
    1.9077    0.7189    0.0000 C   0  0  0  0  0  0  0  0  0
    1.1932    0.3064    0.0000 C   0  0  0  0  0  0  0  0  0
   -1.6475   -1.1224    0.0000 C   0  0  0  0  0  0  0  0  0
   -2.1324   -1.7898    0.0000 O   0  0  0  0  0  0  0  0  0
   -2.9529   -1.7036    0.0000 C   0  0  0  0  0  0  0  0  0
   -3.4378   -2.3710    0.0000 C   0  0  0  0  0  0  0  0  0
   -1.9830   -0.3687    0.0000 O   0  0  0  0  0  0  0  0  0
  1  2  4  0  0  0  0
  1  5  4  0  0  0  0
  2  3  4  0  0  0  0
  3  4  4  0  0  0  0
  3 24  1  0  0  0  0
  4  5  4  0  0  0  0
  5  6  1  0  0  0  0
  6  7  4  0  0  0  0
  6 23  4  0  0  0  0
  7  8  4  0  0  0  0
  8  9  4  0  0  0  0
  8 13  4  0  0  0  0
  9 10  4  0  0  0  0
  9 22  4  0  0  0  0
 10 11  4  0  0  0  0
 11 12  4  0  0  0  0
 11 14  1  0  0  0  0
 12 13  4  0  0  0  0
 14 15  1  0  0  0  0
 15 16  1  0  0  0  0
 16 17  1  0  0  0  0
 16 20  1  0  0  0  0
 17 18  1  0  0  0  0
 18 19  1  0  0  0  0
 19 20  1  0  0  0  0
 20 21  1  0  0  0  0
 22 23  4  0  0  0  0
 24 25  1  0  0  0  0
 24 28  2  0  0  0  0
 25 26  1  0  0  0  0
 26 27  1  0  0  0  0
M  END
>  <Name_Molregno>
632528

>  <HISTAMINE H3>
8.46

$$$$
632529
  Marvin  02231216192D 0   1.00000     0.00000     0

 29 32  0  0  1  0  0  0  0  0999 V2000
    0.7255   -1.5250    0.0000 O   0  0  0  0  0  0  0  0  0
   -0.0815   -1.6965    0.0000 N   0  0  0  0  0  0  0  0  0
   -0.4940   -0.9820    0.0000 C   0  0  0  0  0  0  0  0  0
   -1.3145   -0.8958    0.0000 C   0  0  0  0  0  0  0  0  0
    0.0580   -0.3690    0.0000 C   0  0  0  0  0  0  0  0  0
   -0.1135    0.4380    0.0000 C   0  0  0  0  0  0  0  0  0
   -0.8981    0.6930    0.0000 O   0  0  0  0  0  0  0  0  0
   -1.0697    1.4999    0.0000 C   0  0  0  0  0  0  0  0  0
   -1.8543    1.7549    0.0000 C   0  0  0  0  0  0  0  0  0
    0.4996    0.9901    0.0000 O   0  0  0  0  0  0  0  0  0
    0.8117   -0.7045    0.0000 C   0  0  0  0  0  0  0  0  0
    1.5262   -0.2920    0.0000 C   0  0  0  0  0  0  0  0  0
    2.2406   -0.7045    0.0000 N   0  0  0  0  0  0  0  0  0
    2.9551   -0.2920    0.0000 C   0  0  0  0  0  0  0  0  0
    2.9551    0.5330    0.0000 C   0  0  0  0  0  0  0  0  0
    3.6696    0.9455    0.0000 C   0  0  0  0  0  0  0  0  0
    4.3840    0.5330    0.0000 C   0  0  0  0  0  0  0  0  0
    4.3840   -0.2920    0.0000 C   0  0  0  0  0  0  0  0  0
    3.6696   -0.7045    0.0000 C   0  0  0  0  0  0  0  0  0
    5.0985    0.9455    0.0000 C   0  0  0  0  0  0  0  0  0
    5.0985    1.7705    0.0000 C   0  0  0  0  0  0  0  0  0
    5.8130    2.1830    0.0000 N   0  0  0  0  0  0  0  0  0
    5.8992    3.0035    0.0000 C   0  0  0  0  0  0  0  0  0
    6.7062    3.1750    0.0000 C   0  0  0  0  0  0  0  0  0
    7.1187    2.4605    0.0000 C   0  0  0  0  0  0  0  0  0
    6.5667    1.8474    0.0000 C   0  0  0  0  0  0  0  0  0
    6.7382    1.0405    0.0000 C   0  0  0  0  0  0  0  0  0
    2.2406    0.9455    0.0000 C   0  0  0  0  0  0  0  0  0
    1.5262    0.5330    0.0000 C   0  0  0  0  0  0  0  0  0
  1  2  4  0  0  0  0
  1 11  4  0  0  0  0
  2  3  4  0  0  0  0
  3  4  1  0  0  0  0
  3  5  4  0  0  0  0
  5  6  1  0  0  0  0
  5 11  4  0  0  0  0
  6  7  1  0  0  0  0
  6 10  2  0  0  0  0
  7  8  1  0  0  0  0
  8  9  1  0  0  0  0
 11 12  1  0  0  0  0
 12 13  4  0  0  0  0
 12 29  4  0  0  0  0
 13 14  4  0  0  0  0
 14 15  4  0  0  0  0
 14 19  4  0  0  0  0
 15 16  4  0  0  0  0
 15 28  4  0  0  0  0
 16 17  4  0  0  0  0
 17 18  4  0  0  0  0
 17 20  1  0  0  0  0
 18 19  4  0  0  0  0
 20 21  1  0  0  0  0
 21 22  1  0  0  0  0
 22 23  1  0  0  0  0
 22 26  1  0  0  0  0
 23 24  1  0  0  0  0
 24 25  1  0  0  0  0
 25 26  1  0  0  0  0
 26 27  1  0  0  0  0
 28 29  4  0  0  0  0
M  END
>  <Name_Molregno>
632529

>  <HISTAMINE H3>
9.15

$$$$
632618
  Marvin  02231216192D 0   1.00000     0.00000     0

 25 28  0  0  1  0  0  0  0  0999 V2000
   -0.3281   -0.2945    0.0000 O   0  0  0  0  0  0  0  0  0
    0.4255   -0.6300    0.0000 C   0  0  0  0  0  0  0  0  0
    1.1400   -0.2175    0.0000 C   0  0  0  0  0  0  0  0  0
    1.8545   -0.6300    0.0000 N   0  0  0  0  0  0  0  0  0
    2.5690   -0.2175    0.0000 C   0  0  0  0  0  0  0  0  0
    2.5690    0.6075    0.0000 C   0  0  0  0  0  0  0  0  0
    3.2834    1.0200    0.0000 C   0  0  0  0  0  0  0  0  0
    3.9979    0.6075    0.0000 C   0  0  0  0  0  0  0  0  0
    3.9979   -0.2175    0.0000 C   0  0  0  0  0  0  0  0  0
    3.2834   -0.6300    0.0000 C   0  0  0  0  0  0  0  0  0
    4.7124    1.0200    0.0000 C   0  0  0  0  0  0  0  0  0
    5.4268    0.6075    0.0000 C   0  0  0  0  0  0  0  0  0
    6.1413    1.0200    0.0000 N   0  0  0  0  0  0  0  0  0
    6.2275    1.8404    0.0000 C   0  0  0  0  0  0  0  0  0
    7.0345    2.0120    0.0000 C   0  0  0  0  0  0  0  0  0
    7.4470    1.2975    0.0000 C   0  0  0  0  0  0  0  0  0
    6.8950    0.6844    0.0000 C   0  0  0  0  0  0  0  0  0
    7.0665   -0.1226    0.0000 C   0  0  0  0  0  0  0  0  0
    1.8545    1.0200    0.0000 C   0  0  0  0  0  0  0  0  0
    1.1400    0.6075    0.0000 C   0  0  0  0  0  0  0  0  0
    0.3393   -1.4505    0.0000 C   0  0  0  0  0  0  0  0  0
   -0.4677   -1.6221    0.0000 N   0  0  0  0  0  0  0  0  0
   -0.8802   -0.9076    0.0000 C   0  0  0  0  0  0  0  0  0
   -1.7006   -0.8213    0.0000 C   0  0  0  0  0  0  0  0  0
    0.9524   -2.0026    0.0000 C   0  0  0  0  0  0  0  0  0
  1  2  4  0  0  0  0
  1 23  4  0  0  0  0
  2  3  1  0  0  0  0
  2 21  4  0  0  0  0
  3  4  4  0  0  0  0
  3 20  4  0  0  0  0
  4  5  4  0  0  0  0
  5  6  4  0  0  0  0
  5 10  4  0  0  0  0
  6  7  4  0  0  0  0
  6 19  4  0  0  0  0
  7  8  4  0  0  0  0
  8  9  4  0  0  0  0
  8 11  1  0  0  0  0
  9 10  4  0  0  0  0
 11 12  1  0  0  0  0
 12 13  1  0  0  0  0
 13 14  1  0  0  0  0
 13 17  1  0  0  0  0
 14 15  1  0  0  0  0
 15 16  1  0  0  0  0
 16 17  1  0  0  0  0
 17 18  1  0  0  0  0
 19 20  4  0  0  0  0
 21 22  4  0  0  0  0
 21 25  1  0  0  0  0
 22 23  4  0  0  0  0
 23 24  1  0  0  0  0
M  END
>  <Name_Molregno>
632618

>  <HISTAMINE H3>
9.25

$$$$
632619
  Marvin  02231216192D 0   1.00000     0.00000     0

 24 27  0  0  1  0  0  0  0  0999 V2000
    1.0201   -3.3712    0.0000 Br  0  0  0  0  0  0  0  0  0
    1.3557   -2.6175    0.0000 C   0  0  0  0  0  0  0  0  0
    0.9432   -1.9031    0.0000 N   0  0  0  0  0  0  0  0  0
    1.4952   -1.2900    0.0000 O   0  0  0  0  0  0  0  0  0
    2.2489   -1.6255    0.0000 C   0  0  0  0  0  0  0  0  0
    2.1627   -2.4460    0.0000 C   0  0  0  0  0  0  0  0  0
    2.9634   -1.2130    0.0000 C   0  0  0  0  0  0  0  0  0
    3.6778   -1.6255    0.0000 N   0  0  0  0  0  0  0  0  0
    4.3923   -1.2130    0.0000 C   0  0  0  0  0  0  0  0  0
    4.3923   -0.3880    0.0000 C   0  0  0  0  0  0  0  0  0
    5.1068    0.0245    0.0000 C   0  0  0  0  0  0  0  0  0
    5.8213   -0.3880    0.0000 C   0  0  0  0  0  0  0  0  0
    5.8213   -1.2130    0.0000 C   0  0  0  0  0  0  0  0  0
    5.1068   -1.6255    0.0000 C   0  0  0  0  0  0  0  0  0
    6.5357    0.0245    0.0000 C   0  0  0  0  0  0  0  0  0
    6.5357    0.8495    0.0000 C   0  0  0  0  0  0  0  0  0
    7.2502    1.2620    0.0000 N   0  0  0  0  0  0  0  0  0
    7.3364    2.0825    0.0000 C   0  0  0  0  0  0  0  0  0
    8.1434    2.2540    0.0000 C   0  0  0  0  0  0  0  0  0
    8.5559    1.5395    0.0000 C   0  0  0  0  0  0  0  0  0
    8.0039    0.9264    0.0000 C   0  0  0  0  0  0  0  0  0
    8.1754    0.1194    0.0000 C   0  0  0  0  0  0  0  0  0
    3.6778    0.0245    0.0000 C   0  0  0  0  0  0  0  0  0
    2.9634   -0.3880    0.0000 C   0  0  0  0  0  0  0  0  0
  1  2  1  0  0  0  0
  2  3  4  0  0  0  0
  2  6  4  0  0  0  0
  3  4  4  0  0  0  0
  4  5  4  0  0  0  0
  5  6  4  0  0  0  0
  5  7  1  0  0  0  0
  7  8  4  0  0  0  0
  7 24  4  0  0  0  0
  8  9  4  0  0  0  0
  9 10  4  0  0  0  0
  9 14  4  0  0  0  0
 10 11  4  0  0  0  0
 10 23  4  0  0  0  0
 11 12  4  0  0  0  0
 12 13  4  0  0  0  0
 12 15  1  0  0  0  0
 13 14  4  0  0  0  0
 15 16  1  0  0  0  0
 16 17  1  0  0  0  0
 17 18  1  0  0  0  0
 17 21  1  0  0  0  0
 18 19  1  0  0  0  0
 19 20  1  0  0  0  0
 20 21  1  0  0  0  0
 21 22  1  0  0  0  0
 23 24  4  0  0  0  0
M  END
>  <Name_Molregno>
632619

>  <HISTAMINE H3>
8.74

$$$$
632620
  Marvin  02231216192D 0   1.00000     0.00000     0

 23 26  0  0  1  0  0  0  0  0999 V2000
    0.5762   -2.0712    0.0000 S   0  0  0  0  0  0  0  0  0
   -0.2308   -2.2428    0.0000 C   0  0  0  0  0  0  0  0  0
   -0.6433   -1.5283    0.0000 C   0  0  0  0  0  0  0  0  0
   -0.0913   -0.9152    0.0000 N   0  0  0  0  0  0  0  0  0
    0.6624   -1.2508    0.0000 C   0  0  0  0  0  0  0  0  0
    1.3769   -0.8383    0.0000 C   0  0  0  0  0  0  0  0  0
    2.0913   -1.2508    0.0000 N   0  0  0  0  0  0  0  0  0
    2.8058   -0.8383    0.0000 C   0  0  0  0  0  0  0  0  0
    2.8058   -0.0133    0.0000 C   0  0  0  0  0  0  0  0  0
    3.5203    0.3992    0.0000 C   0  0  0  0  0  0  0  0  0
    4.2348   -0.0133    0.0000 C   0  0  0  0  0  0  0  0  0
    4.2348   -0.8383    0.0000 C   0  0  0  0  0  0  0  0  0
    3.5203   -1.2508    0.0000 C   0  0  0  0  0  0  0  0  0
    4.9492    0.3992    0.0000 C   0  0  0  0  0  0  0  0  0
    4.9492    1.2242    0.0000 C   0  0  0  0  0  0  0  0  0
    5.6637    1.6367    0.0000 N   0  0  0  0  0  0  0  0  0
    5.7499    2.4572    0.0000 C   0  0  0  0  0  0  0  0  0
    6.5569    2.6287    0.0000 C   0  0  0  0  0  0  0  0  0
    6.9694    1.9143    0.0000 C   0  0  0  0  0  0  0  0  0
    6.4174    1.3012    0.0000 C   0  0  0  0  0  0  0  0  0
    6.5889    0.4942    0.0000 C   0  0  0  0  0  0  0  0  0
    2.0913    0.3992    0.0000 C   0  0  0  0  0  0  0  0  0
    1.3769   -0.0133    0.0000 C   0  0  0  0  0  0  0  0  0
  1  2  4  0  0  0  0
  1  5  4  0  0  0  0
  2  3  4  0  0  0  0
  3  4  4  0  0  0  0
  4  5  4  0  0  0  0
  5  6  1  0  0  0  0
  6  7  4  0  0  0  0
  6 23  4  0  0  0  0
  7  8  4  0  0  0  0
  8  9  4  0  0  0  0
  8 13  4  0  0  0  0
  9 10  4  0  0  0  0
  9 22  4  0  0  0  0
 10 11  4  0  0  0  0
 11 12  4  0  0  0  0
 11 14  1  0  0  0  0
 12 13  4  0  0  0  0
 14 15  1  0  0  0  0
 15 16  1  0  0  0  0
 16 17  1  0  0  0  0
 16 20  1  0  0  0  0
 17 18  1  0  0  0  0
 18 19  1  0  0  0  0
 19 20  1  0  0  0  0
 20 21  1  0  0  0  0
 22 23  4  0  0  0  0
M  END
>  <Name_Molregno>
632620

>  <HISTAMINE H3>
9.36

$$$$
632621
  Marvin  02231216192D 0   1.00000     0.00000     0

 23 26  0  0  1  0  0  0  0  0999 V2000
    0.5762   -2.0712    0.0000 S   0  0  0  0  0  0  0  0  0
   -0.2308   -2.2428    0.0000 C   0  0  0  0  0  0  0  0  0
   -0.6433   -1.5283    0.0000 C   0  0  0  0  0  0  0  0  0
   -0.0913   -0.9152    0.0000 N   0  0  0  0  0  0  0  0  0
    0.6624   -1.2508    0.0000 C   0  0  0  0  0  0  0  0  0
    1.3769   -0.8383    0.0000 C   0  0  0  0  0  0  0  0  0
    2.0913   -1.2508    0.0000 N   0  0  0  0  0  0  0  0  0
    2.8058   -0.8383    0.0000 C   0  0  0  0  0  0  0  0  0
    2.8058   -0.0133    0.0000 C   0  0  0  0  0  0  0  0  0
    3.5203    0.3992    0.0000 C   0  0  0  0  0  0  0  0  0
    4.2348   -0.0133    0.0000 C   0  0  0  0  0  0  0  0  0
    4.2348   -0.8383    0.0000 C   0  0  0  0  0  0  0  0  0
    3.5203   -1.2508    0.0000 C   0  0  0  0  0  0  0  0  0
    4.9492    0.3992    0.0000 C   0  0  0  0  0  0  0  0  0
    4.9492    1.2242    0.0000 C   0  0  0  0  0  0  0  0  0
    5.6637    1.6367    0.0000 N   0  0  0  0  0  0  0  0  0
    5.7499    2.4572    0.0000 C   0  0  0  0  0  0  0  0  0
    6.5569    2.6287    0.0000 C   0  0  0  0  0  0  0  0  0
    6.9694    1.9143    0.0000 C   0  0  0  0  0  0  0  0  0
    6.4174    1.3012    0.0000 C   0  0  0  0  0  0  0  0  0
    6.5889    0.4942    0.0000 C   0  0  0  0  0  0  0  0  0
    2.0913    0.3992    0.0000 C   0  0  0  0  0  0  0  0  0
    1.3769   -0.0133    0.0000 C   0  0  0  0  0  0  0  0  0
  1  2  1  0  0  0  0
  1  5  1  0  0  0  0
  2  3  1  0  0  0  0
  3  4  1  0  0  0  0
  4  5  2  0  0  0  0
  5  6  1  0  0  0  0
  6  7  4  0  0  0  0
  6 23  4  0  0  0  0
  7  8  4  0  0  0  0
  8  9  4  0  0  0  0
  8 13  4  0  0  0  0
  9 10  4  0  0  0  0
  9 22  4  0  0  0  0
 10 11  4  0  0  0  0
 11 12  4  0  0  0  0
 11 14  1  0  0  0  0
 12 13  4  0  0  0  0
 14 15  1  0  0  0  0
 15 16  1  0  0  0  0
 16 17  1  0  0  0  0
 16 20  1  0  0  0  0
 17 18  1  0  0  0  0
 18 19  1  0  0  0  0
 19 20  1  0  0  0  0
 20 21  1  0  0  0  0
 22 23  4  0  0  0  0
M  END
>  <Name_Molregno>
632621

>  <HISTAMINE H3>
8.42

$$$$
632622
  Marvin  02231216192D 0   1.00000     0.00000     0

 30 34  0  0  1  0  0  0  0  0999 V2000
   -4.7006   -0.4917    0.0000 S   0  0  0  0  0  0  0  0  0
   -3.9470   -0.8273    0.0000 C   0  0  0  0  0  0  0  0  0
   -3.2325   -0.4148    0.0000 C   0  0  0  0  0  0  0  0  0
   -2.5180   -0.8273    0.0000 N   0  0  0  0  0  0  0  0  0
   -1.8035   -0.4148    0.0000 C   0  0  0  0  0  0  0  0  0
   -1.8035    0.4102    0.0000 C   0  0  0  0  0  0  0  0  0
   -1.0891    0.8227    0.0000 C   0  0  0  0  0  0  0  0  0
   -0.3746    0.4102    0.0000 C   0  0  0  0  0  0  0  0  0
   -0.3746   -0.4148    0.0000 C   0  0  0  0  0  0  0  0  0
   -1.0891   -0.8273    0.0000 C   0  0  0  0  0  0  0  0  0
    0.3399    0.8227    0.0000 C   0  0  0  0  0  0  0  0  0
    1.0543    0.4102    0.0000 C   0  0  0  0  0  0  0  0  0
    1.7688    0.8227    0.0000 N   0  0  0  0  0  0  0  0  0
    1.8550    1.6432    0.0000 C   0  0  0  0  0  0  0  0  0
    2.6620    1.8147    0.0000 C   0  0  0  0  0  0  0  0  0
    3.0745    1.1003    0.0000 C   0  0  0  0  0  0  0  0  0
    2.5225    0.4872    0.0000 C   0  0  0  0  0  0  0  0  0
    2.6940   -0.3198    0.0000 C   0  0  0  0  0  0  0  0  0
   -2.5180    0.8227    0.0000 C   0  0  0  0  0  0  0  0  0
   -3.2325    0.4102    0.0000 C   0  0  0  0  0  0  0  0  0
   -4.0332   -1.6478    0.0000 C   0  0  0  0  0  0  0  0  0
   -4.8402   -1.8193    0.0000 N   0  0  0  0  0  0  0  0  0
   -5.2527   -1.1048    0.0000 C   0  0  0  0  0  0  0  0  0
   -6.0731   -1.0186    0.0000 C   0  0  0  0  0  0  0  0  0
   -6.5581   -1.6860    0.0000 N   0  0  0  0  0  0  0  0  0
   -7.3785   -1.5998    0.0000 C   0  0  0  0  0  0  0  0  0
   -7.7141   -0.8461    0.0000 C   0  0  0  0  0  0  0  0  0
   -7.2292   -0.1787    0.0000 N   0  0  0  0  0  0  0  0  0
   -6.4087   -0.2649    0.0000 C   0  0  0  0  0  0  0  0  0
   -3.4201   -2.1998    0.0000 C   0  0  0  0  0  0  0  0  0
  1  2  4  0  0  0  0
  1 23  4  0  0  0  0
  2  3  1  0  0  0  0
  2 21  4  0  0  0  0
  3  4  4  0  0  0  0
  3 20  4  0  0  0  0
  4  5  4  0  0  0  0
  5  6  4  0  0  0  0
  5 10  4  0  0  0  0
  6  7  4  0  0  0  0
  6 19  4  0  0  0  0
  7  8  4  0  0  0  0
  8  9  4  0  0  0  0
  8 11  1  0  0  0  0
  9 10  4  0  0  0  0
 11 12  1  0  0  0  0
 12 13  1  0  0  0  0
 13 14  1  0  0  0  0
 13 17  1  0  0  0  0
 14 15  1  0  0  0  0
 15 16  1  0  0  0  0
 16 17  1  0  0  0  0
 17 18  1  0  0  0  0
 19 20  4  0  0  0  0
 21 22  4  0  0  0  0
 21 30  1  0  0  0  0
 22 23  4  0  0  0  0
 23 24  1  0  0  0  0
 24 25  4  0  0  0  0
 24 29  4  0  0  0  0
 25 26  4  0  0  0  0
 26 27  4  0  0  0  0
 27 28  4  0  0  0  0
 28 29  4  0  0  0  0
M  END
>  <Name_Molregno>
632622

>  <HISTAMINE H3>
9.46

$$$$
647352
  Marvin  02231216192D 0   1.00000     0.00000     0

 27 30  0  0  0  0  0  0  0  0999 V2000
    4.5628    5.9518    0.0000 Cl  0  0  0  0  0  0  0  0  0
    4.9208    5.2085    0.0000 C   0  0  0  0  0  0  0  0  0
    5.7435    5.1468    0.0000 C   0  0  0  0  0  0  0  0  0
    6.1014    4.4035    0.0000 C   0  0  0  0  0  0  0  0  0
    5.6367    3.7219    0.0000 C   0  0  0  0  0  0  0  0  0
    5.9946    2.9786    0.0000 O   0  0  0  0  0  0  0  0  0
    5.5299    2.2969    0.0000 C   0  0  0  0  0  0  0  0  0
    5.8878    1.5536    0.0000 N   0  0  0  0  0  0  0  0  0
    5.4231    0.8720    0.0000 C   0  0  0  0  0  0  0  0  0
    4.6004    0.9336    0.0000 C   0  0  0  0  0  0  0  0  0
    4.2425    1.6769    0.0000 C   0  0  0  0  0  0  0  0  0
    4.7072    2.3586    0.0000 C   0  0  0  0  0  0  0  0  0
    4.1357    0.2520    0.0000 C   0  0  0  0  0  0  0  0  0
    3.3130    0.3136    0.0000 O   0  0  0  0  0  0  0  0  0
    4.4936   -0.4913    0.0000 N   0  0  0  0  0  0  0  0  0
    5.3186   -0.4913    0.0000 C   0  0  0  0  0  0  0  0  0
    5.8330   -1.1363    0.0000 C   0  0  0  0  0  0  0  0  0
    5.6494   -1.9406    0.0000 C   0  0  0  0  0  0  0  0  0
    4.9061   -2.2986    0.0000 N   0  0  0  0  0  0  0  0  0
    4.1628   -1.9406    0.0000 C   0  0  0  0  0  0  0  0  0
    3.9793   -1.1363    0.0000 C   0  0  0  0  0  0  0  0  0
    4.9061   -3.1236    0.0000 C   0  0  0  0  0  0  0  0  0
    5.4895   -3.7070    0.0000 C   0  0  0  0  0  0  0  0  0
    4.9061   -4.2903    0.0000 C   0  0  0  0  0  0  0  0  0
    4.3228   -3.7070    0.0000 C   0  0  0  0  0  0  0  0  0
    4.8140    3.7835    0.0000 C   0  0  0  0  0  0  0  0  0
    4.4560    4.5268    0.0000 C   0  0  0  0  0  0  0  0  0
  1  2  1  0  0  0  0
  2  3  4  0  0  0  0
  2 27  4  0  0  0  0
  3  4  4  0  0  0  0
  4  5  4  0  0  0  0
  5  6  1  0  0  0  0
  5 26  4  0  0  0  0
  6  7  1  0  0  0  0
  7  8  4  0  0  0  0
  7 12  4  0  0  0  0
  8  9  4  0  0  0  0
  9 10  4  0  0  0  0
 10 11  4  0  0  0  0
 10 13  1  0  0  0  0
 11 12  4  0  0  0  0
 13 14  2  0  0  0  0
 13 15  1  0  0  0  0
 15 16  1  0  0  0  0
 15 21  1  0  0  0  0
 16 17  1  0  0  0  0
 17 18  1  0  0  0  0
 18 19  1  0  0  0  0
 19 20  1  0  0  0  0
 19 22  1  0  0  0  0
 20 21  1  0  0  0  0
 22 23  1  0  0  0  0
 22 25  1  0  0  0  0
 23 24  1  0  0  0  0
 24 25  1  0  0  0  0
 26 27  4  0  0  0  0
M  END
>  <Name_Molregno>
647352

>  <HISTAMINE H3>
7.23

$$$$
647353
  Marvin  02231216192D 0   1.00000     0.00000     0

 27 30  0  0  0  0  0  0  0  0999 V2000
   -4.5284    2.8812    0.0000 Cl  0  0  0  0  0  0  0  0  0
   -4.0636    3.5628    0.0000 C   0  0  0  0  0  0  0  0  0
   -4.4216    4.3061    0.0000 C   0  0  0  0  0  0  0  0  0
   -3.9568    4.9878    0.0000 C   0  0  0  0  0  0  0  0  0
   -3.1341    4.9261    0.0000 C   0  0  0  0  0  0  0  0  0
   -2.7762    4.1828    0.0000 C   0  0  0  0  0  0  0  0  0
   -3.2409    3.5012    0.0000 C   0  0  0  0  0  0  0  0  0
   -2.8830    2.7579    0.0000 O   0  0  0  0  0  0  0  0  0
   -3.3477    2.0762    0.0000 C   0  0  0  0  0  0  0  0  0
   -2.9898    1.3329    0.0000 N   0  0  0  0  0  0  0  0  0
   -3.4545    0.6513    0.0000 C   0  0  0  0  0  0  0  0  0
   -4.2772    0.7129    0.0000 C   0  0  0  0  0  0  0  0  0
   -4.6351    1.4562    0.0000 C   0  0  0  0  0  0  0  0  0
   -4.1704    2.1379    0.0000 C   0  0  0  0  0  0  0  0  0
   -4.7419    0.0313    0.0000 C   0  0  0  0  0  0  0  0  0
   -5.5646    0.0929    0.0000 O   0  0  0  0  0  0  0  0  0
   -4.3840   -0.7120    0.0000 N   0  0  0  0  0  0  0  0  0
   -3.5590   -0.7120    0.0000 C   0  0  0  0  0  0  0  0  0
   -3.0446   -1.3570    0.0000 C   0  0  0  0  0  0  0  0  0
   -3.2282   -2.1614    0.0000 C   0  0  0  0  0  0  0  0  0
   -3.9715   -2.5193    0.0000 N   0  0  0  0  0  0  0  0  0
   -4.7148   -2.1614    0.0000 C   0  0  0  0  0  0  0  0  0
   -4.8984   -1.3570    0.0000 C   0  0  0  0  0  0  0  0  0
   -3.9715   -3.3443    0.0000 C   0  0  0  0  0  0  0  0  0
   -3.3881   -3.9277    0.0000 C   0  0  0  0  0  0  0  0  0
   -3.9715   -4.5110    0.0000 C   0  0  0  0  0  0  0  0  0
   -4.5548   -3.9277    0.0000 C   0  0  0  0  0  0  0  0  0
  1  2  1  0  0  0  0
  2  3  4  0  0  0  0
  2  7  4  0  0  0  0
  3  4  4  0  0  0  0
  4  5  4  0  0  0  0
  5  6  4  0  0  0  0
  6  7  4  0  0  0  0
  7  8  1  0  0  0  0
  8  9  1  0  0  0  0
  9 10  4  0  0  0  0
  9 14  4  0  0  0  0
 10 11  4  0  0  0  0
 11 12  4  0  0  0  0
 12 13  4  0  0  0  0
 12 15  1  0  0  0  0
 13 14  4  0  0  0  0
 15 16  2  0  0  0  0
 15 17  1  0  0  0  0
 17 18  1  0  0  0  0
 17 23  1  0  0  0  0
 18 19  1  0  0  0  0
 19 20  1  0  0  0  0
 20 21  1  0  0  0  0
 21 22  1  0  0  0  0
 21 24  1  0  0  0  0
 22 23  1  0  0  0  0
 24 25  1  0  0  0  0
 24 27  1  0  0  0  0
 25 26  1  0  0  0  0
 26 27  1  0  0  0  0
M  END
>  <Name_Molregno>
647353

>  <HISTAMINE H3>
7.77

$$$$
647354
  Marvin  02231216192D 0   1.00000     0.00000     0

 27 29  0  0  0  0  0  0  0  0999 V2000
    4.4085    5.1571    0.0000 Cl  0  0  0  0  0  0  0  0  0
    4.4085    4.3321    0.0000 C   0  0  0  0  0  0  0  0  0
    5.1230    3.9196    0.0000 C   0  0  0  0  0  0  0  0  0
    5.1230    3.0946    0.0000 C   0  0  0  0  0  0  0  0  0
    5.8375    2.6821    0.0000 O   0  0  0  0  0  0  0  0  0
    5.8375    1.8571    0.0000 C   0  0  0  0  0  0  0  0  0
    6.5519    1.4446    0.0000 C   0  0  0  0  0  0  0  0  0
    6.5519    0.6196    0.0000 C   0  0  0  0  0  0  0  0  0
    5.8375    0.2071    0.0000 C   0  0  0  0  0  0  0  0  0
    5.1230    0.6196    0.0000 N   0  0  0  0  0  0  0  0  0
    5.1230    1.4446    0.0000 C   0  0  0  0  0  0  0  0  0
    5.8375   -0.6179    0.0000 C   0  0  0  0  0  0  0  0  0
    6.5519   -1.0304    0.0000 O   0  0  0  0  0  0  0  0  0
    5.1230   -1.0304    0.0000 N   0  0  0  0  0  0  0  0  0
    5.1846   -1.8531    0.0000 C   0  0  0  0  0  0  0  0  0
    4.5799   -2.4143    0.0000 C   0  0  0  0  0  0  0  0  0
    3.7641   -2.2913    0.0000 C   0  0  0  0  0  0  0  0  0
    3.3516   -1.5769    0.0000 N   0  0  0  0  0  0  0  0  0
    3.6530   -0.8089    0.0000 C   0  0  0  0  0  0  0  0  0
    4.4413   -0.5657    0.0000 C   0  0  0  0  0  0  0  0  0
    2.5289   -1.6385    0.0000 C   0  0  0  0  0  0  0  0  0
    2.1709   -2.3818    0.0000 C   0  0  0  0  0  0  0  0  0
    2.0642   -0.9569    0.0000 C   0  0  0  0  0  0  0  0  0
    4.4085    2.6821    0.0000 C   0  0  0  0  0  0  0  0  0
    3.6941    3.0946    0.0000 C   0  0  0  0  0  0  0  0  0
    3.6941    3.9196    0.0000 C   0  0  0  0  0  0  0  0  0
    2.9796    4.3321    0.0000 Cl  0  0  0  0  0  0  0  0  0
  1  2  1  0  0  0  0
  2  3  4  0  0  0  0
  2 26  4  0  0  0  0
  3  4  4  0  0  0  0
  4  5  1  0  0  0  0
  4 24  4  0  0  0  0
  5  6  1  0  0  0  0
  6  7  4  0  0  0  0
  6 11  4  0  0  0  0
  7  8  4  0  0  0  0
  8  9  4  0  0  0  0
  9 10  4  0  0  0  0
  9 12  1  0  0  0  0
 10 11  4  0  0  0  0
 12 13  2  0  0  0  0
 12 14  1  0  0  0  0
 14 15  1  0  0  0  0
 14 20  1  0  0  0  0
 15 16  1  0  0  0  0
 16 17  1  0  0  0  0
 17 18  1  0  0  0  0
 18 19  1  0  0  0  0
 18 21  1  0  0  0  0
 19 20  1  0  0  0  0
 21 22  1  0  0  0  0
 21 23  1  0  0  0  0
 24 25  4  0  0  0  0
 25 26  4  0  0  0  0
 26 27  1  0  0  0  0
M  END
>  <Name_Molregno>
647354

>  <HISTAMINE H3>
8.82

$$$$
647355
  Marvin  02231216192D 0   1.00000     0.00000     0

 27 30  0  0  0  0  0  0  0  0999 V2000
    0.2762    0.9952    0.0000 Cl  0  0  0  0  0  0  0  0  0
    1.0989    0.9336    0.0000 C   0  0  0  0  0  0  0  0  0
    1.5636    1.6152    0.0000 C   0  0  0  0  0  0  0  0  0
    2.3863    1.5536    0.0000 C   0  0  0  0  0  0  0  0  0
    2.8510    2.2352    0.0000 O   0  0  0  0  0  0  0  0  0
    3.6737    2.1736    0.0000 C   0  0  0  0  0  0  0  0  0
    4.1385    2.8552    0.0000 C   0  0  0  0  0  0  0  0  0
    4.9612    2.7936    0.0000 C   0  0  0  0  0  0  0  0  0
    5.3191    2.0503    0.0000 C   0  0  0  0  0  0  0  0  0
    4.8544    1.3686    0.0000 N   0  0  0  0  0  0  0  0  0
    4.0317    1.4303    0.0000 C   0  0  0  0  0  0  0  0  0
    6.1418    1.9886    0.0000 C   0  0  0  0  0  0  0  0  0
    6.6065    2.6703    0.0000 O   0  0  0  0  0  0  0  0  0
    6.4998    1.2453    0.0000 N   0  0  0  0  0  0  0  0  0
    7.3248    1.2453    0.0000 C   0  0  0  0  0  0  0  0  0
    7.8391    0.6003    0.0000 C   0  0  0  0  0  0  0  0  0
    7.6556   -0.2040    0.0000 C   0  0  0  0  0  0  0  0  0
    6.9123   -0.5620    0.0000 N   0  0  0  0  0  0  0  0  0
    6.1690   -0.2040    0.0000 C   0  0  0  0  0  0  0  0  0
    5.9854    0.6003    0.0000 C   0  0  0  0  0  0  0  0  0
    6.9123   -1.3870    0.0000 C   0  0  0  0  0  0  0  0  0
    7.3248   -2.1014    0.0000 C   0  0  0  0  0  0  0  0  0
    6.4998   -2.1014    0.0000 C   0  0  0  0  0  0  0  0  0
    2.7442    0.8103    0.0000 C   0  0  0  0  0  0  0  0  0
    2.2795    0.1286    0.0000 C   0  0  0  0  0  0  0  0  0
    1.4568    0.1903    0.0000 C   0  0  0  0  0  0  0  0  0
    0.9921   -0.4914    0.0000 Cl  0  0  0  0  0  0  0  0  0
  1  2  1  0  0  0  0
  2  3  4  0  0  0  0
  2 26  4  0  0  0  0
  3  4  4  0  0  0  0
  4  5  1  0  0  0  0
  4 24  4  0  0  0  0
  5  6  1  0  0  0  0
  6  7  4  0  0  0  0
  6 11  4  0  0  0  0
  7  8  4  0  0  0  0
  8  9  4  0  0  0  0
  9 10  4  0  0  0  0
  9 12  1  0  0  0  0
 10 11  4  0  0  0  0
 12 13  2  0  0  0  0
 12 14  1  0  0  0  0
 14 15  1  0  0  0  0
 14 20  1  0  0  0  0
 15 16  1  0  0  0  0
 16 17  1  0  0  0  0
 17 18  1  0  0  0  0
 18 19  1  0  0  0  0
 18 21  1  0  0  0  0
 19 20  1  0  0  0  0
 21 22  1  0  0  0  0
 21 23  1  0  0  0  0
 22 23  1  0  0  0  0
 24 25  4  0  0  0  0
 25 26  4  0  0  0  0
 26 27  1  0  0  0  0
M  END
>  <Name_Molregno>
647355

>  <HISTAMINE H3>
8

$$$$
647356
  Marvin  02231216192D 0   1.00000     0.00000     0

 27 30  0  0  0  0  0  0  0  0999 V2000
    4.5628    5.9518    0.0000 Cl  0  0  0  0  0  0  0  0  0
    4.9208    5.2085    0.0000 C   0  0  0  0  0  0  0  0  0
    5.7435    5.1468    0.0000 C   0  0  0  0  0  0  0  0  0
    6.1014    4.4035    0.0000 C   0  0  0  0  0  0  0  0  0
    5.6367    3.7219    0.0000 C   0  0  0  0  0  0  0  0  0
    5.9946    2.9786    0.0000 O   0  0  0  0  0  0  0  0  0
    5.5299    2.2969    0.0000 C   0  0  0  0  0  0  0  0  0
    5.8878    1.5536    0.0000 C   0  0  0  0  0  0  0  0  0
    5.4231    0.8720    0.0000 C   0  0  0  0  0  0  0  0  0
    4.6004    0.9336    0.0000 C   0  0  0  0  0  0  0  0  0
    4.2425    1.6769    0.0000 N   0  0  0  0  0  0  0  0  0
    4.7072    2.3586    0.0000 C   0  0  0  0  0  0  0  0  0
    4.1357    0.2520    0.0000 C   0  0  0  0  0  0  0  0  0
    3.3130    0.3136    0.0000 O   0  0  0  0  0  0  0  0  0
    4.4936   -0.4913    0.0000 N   0  0  0  0  0  0  0  0  0
    5.3186   -0.4913    0.0000 C   0  0  0  0  0  0  0  0  0
    5.8330   -1.1363    0.0000 C   0  0  0  0  0  0  0  0  0
    5.6494   -1.9406    0.0000 C   0  0  0  0  0  0  0  0  0
    4.9061   -2.2986    0.0000 N   0  0  0  0  0  0  0  0  0
    4.1628   -1.9406    0.0000 C   0  0  0  0  0  0  0  0  0
    3.9793   -1.1363    0.0000 C   0  0  0  0  0  0  0  0  0
    4.9061   -3.1236    0.0000 C   0  0  0  0  0  0  0  0  0
    5.4895   -3.7070    0.0000 C   0  0  0  0  0  0  0  0  0
    4.9061   -4.2903    0.0000 C   0  0  0  0  0  0  0  0  0
    4.3228   -3.7070    0.0000 C   0  0  0  0  0  0  0  0  0
    4.8140    3.7835    0.0000 C   0  0  0  0  0  0  0  0  0
    4.4560    4.5268    0.0000 C   0  0  0  0  0  0  0  0  0
  1  2  1  0  0  0  0
  2  3  4  0  0  0  0
  2 27  4  0  0  0  0
  3  4  4  0  0  0  0
  4  5  4  0  0  0  0
  5  6  1  0  0  0  0
  5 26  4  0  0  0  0
  6  7  1  0  0  0  0
  7  8  4  0  0  0  0
  7 12  4  0  0  0  0
  8  9  4  0  0  0  0
  9 10  4  0  0  0  0
 10 11  4  0  0  0  0
 10 13  1  0  0  0  0
 11 12  4  0  0  0  0
 13 14  2  0  0  0  0
 13 15  1  0  0  0  0
 15 16  1  0  0  0  0
 15 21  1  0  0  0  0
 16 17  1  0  0  0  0
 17 18  1  0  0  0  0
 18 19  1  0  0  0  0
 19 20  1  0  0  0  0
 19 22  1  0  0  0  0
 20 21  1  0  0  0  0
 22 23  1  0  0  0  0
 22 25  1  0  0  0  0
 23 24  1  0  0  0  0
 24 25  1  0  0  0  0
 26 27  4  0  0  0  0
M  END
>  <Name_Molregno>
647356

>  <HISTAMINE H3>
8.26

$$$$
647409
  Marvin  02231216192D 0   1.00000     0.00000     0

 27 30  0  0  0  0  0  0  0  0999 V2000
    6.1480    5.8466    0.0000 Cl  0  0  0  0  0  0  0  0  0
    5.6832    5.1650    0.0000 C   0  0  0  0  0  0  0  0  0
    6.0412    4.4217    0.0000 C   0  0  0  0  0  0  0  0  0
    5.5765    3.7400    0.0000 C   0  0  0  0  0  0  0  0  0
    5.9344    2.9967    0.0000 O   0  0  0  0  0  0  0  0  0
    5.4697    2.3151    0.0000 C   0  0  0  0  0  0  0  0  0
    5.8276    1.5718    0.0000 C   0  0  0  0  0  0  0  0  0
    5.3629    0.8901    0.0000 C   0  0  0  0  0  0  0  0  0
    4.5402    0.9518    0.0000 C   0  0  0  0  0  0  0  0  0
    4.1822    1.6951    0.0000 N   0  0  0  0  0  0  0  0  0
    4.6470    2.3767    0.0000 C   0  0  0  0  0  0  0  0  0
    4.0754    0.2701    0.0000 C   0  0  0  0  0  0  0  0  0
    3.2528    0.3318    0.0000 O   0  0  0  0  0  0  0  0  0
    4.4334   -0.4732    0.0000 N   0  0  0  0  0  0  0  0  0
    5.2584   -0.4732    0.0000 C   0  0  0  0  0  0  0  0  0
    5.7728   -1.1182    0.0000 C   0  0  0  0  0  0  0  0  0
    5.5892   -1.9225    0.0000 C   0  0  0  0  0  0  0  0  0
    4.8459   -2.2805    0.0000 N   0  0  0  0  0  0  0  0  0
    4.1026   -1.9225    0.0000 C   0  0  0  0  0  0  0  0  0
    3.9190   -1.1182    0.0000 C   0  0  0  0  0  0  0  0  0
    4.8459   -3.1055    0.0000 C   0  0  0  0  0  0  0  0  0
    5.4293   -3.6888    0.0000 C   0  0  0  0  0  0  0  0  0
    4.8459   -4.2722    0.0000 C   0  0  0  0  0  0  0  0  0
    4.2625   -3.6888    0.0000 C   0  0  0  0  0  0  0  0  0
    4.7538    3.8017    0.0000 C   0  0  0  0  0  0  0  0  0
    4.3958    4.5450    0.0000 C   0  0  0  0  0  0  0  0  0
    4.8605    5.2266    0.0000 C   0  0  0  0  0  0  0  0  0
  1  2  1  0  0  0  0
  2  3  4  0  0  0  0
  2 27  4  0  0  0  0
  3  4  4  0  0  0  0
  4  5  1  0  0  0  0
  4 25  4  0  0  0  0
  5  6  1  0  0  0  0
  6  7  4  0  0  0  0
  6 11  4  0  0  0  0
  7  8  4  0  0  0  0
  8  9  4  0  0  0  0
  9 10  4  0  0  0  0
  9 12  1  0  0  0  0
 10 11  4  0  0  0  0
 12 13  2  0  0  0  0
 12 14  1  0  0  0  0
 14 15  1  0  0  0  0
 14 20  1  0  0  0  0
 15 16  1  0  0  0  0
 16 17  1  0  0  0  0
 17 18  1  0  0  0  0
 18 19  1  0  0  0  0
 18 21  1  0  0  0  0
 19 20  1  0  0  0  0
 21 22  1  0  0  0  0
 21 24  1  0  0  0  0
 22 23  1  0  0  0  0
 23 24  1  0  0  0  0
 25 26  4  0  0  0  0
 26 27  4  0  0  0  0
M  END
>  <Name_Molregno>
647409

>  <HISTAMINE H3>
8.33

$$$$
647410
  Marvin  02231216192D 0   1.00000     0.00000     0

 27 30  0  0  0  0  0  0  0  0999 V2000
    4.5628    5.9518    0.0000 F   0  0  0  0  0  0  0  0  0
    4.9208    5.2085    0.0000 C   0  0  0  0  0  0  0  0  0
    5.7435    5.1468    0.0000 C   0  0  0  0  0  0  0  0  0
    6.1014    4.4035    0.0000 C   0  0  0  0  0  0  0  0  0
    5.6367    3.7219    0.0000 C   0  0  0  0  0  0  0  0  0
    5.9946    2.9786    0.0000 O   0  0  0  0  0  0  0  0  0
    5.5299    2.2969    0.0000 C   0  0  0  0  0  0  0  0  0
    5.8878    1.5536    0.0000 C   0  0  0  0  0  0  0  0  0
    5.4231    0.8720    0.0000 C   0  0  0  0  0  0  0  0  0
    4.6004    0.9336    0.0000 C   0  0  0  0  0  0  0  0  0
    4.2425    1.6769    0.0000 N   0  0  0  0  0  0  0  0  0
    4.7072    2.3586    0.0000 C   0  0  0  0  0  0  0  0  0
    4.1357    0.2520    0.0000 C   0  0  0  0  0  0  0  0  0
    3.3130    0.3136    0.0000 O   0  0  0  0  0  0  0  0  0
    4.4936   -0.4913    0.0000 N   0  0  0  0  0  0  0  0  0
    5.3186   -0.4913    0.0000 C   0  0  0  0  0  0  0  0  0
    5.8330   -1.1363    0.0000 C   0  0  0  0  0  0  0  0  0
    5.6494   -1.9406    0.0000 C   0  0  0  0  0  0  0  0  0
    4.9061   -2.2986    0.0000 N   0  0  0  0  0  0  0  0  0
    4.1628   -1.9406    0.0000 C   0  0  0  0  0  0  0  0  0
    3.9793   -1.1363    0.0000 C   0  0  0  0  0  0  0  0  0
    4.9061   -3.1236    0.0000 C   0  0  0  0  0  0  0  0  0
    5.4895   -3.7070    0.0000 C   0  0  0  0  0  0  0  0  0
    4.9061   -4.2903    0.0000 C   0  0  0  0  0  0  0  0  0
    4.3228   -3.7070    0.0000 C   0  0  0  0  0  0  0  0  0
    4.8140    3.7835    0.0000 C   0  0  0  0  0  0  0  0  0
    4.4560    4.5268    0.0000 C   0  0  0  0  0  0  0  0  0
  1  2  1  0  0  0  0
  2  3  4  0  0  0  0
  2 27  4  0  0  0  0
  3  4  4  0  0  0  0
  4  5  4  0  0  0  0
  5  6  1  0  0  0  0
  5 26  4  0  0  0  0
  6  7  1  0  0  0  0
  7  8  4  0  0  0  0
  7 12  4  0  0  0  0
  8  9  4  0  0  0  0
  9 10  4  0  0  0  0
 10 11  4  0  0  0  0
 10 13  1  0  0  0  0
 11 12  4  0  0  0  0
 13 14  2  0  0  0  0
 13 15  1  0  0  0  0
 15 16  1  0  0  0  0
 15 21  1  0  0  0  0
 16 17  1  0  0  0  0
 17 18  1  0  0  0  0
 18 19  1  0  0  0  0
 19 20  1  0  0  0  0
 19 22  1  0  0  0  0
 20 21  1  0  0  0  0
 22 23  1  0  0  0  0
 22 25  1  0  0  0  0
 23 24  1  0  0  0  0
 24 25  1  0  0  0  0
 26 27  4  0  0  0  0
M  END
>  <Name_Molregno>
647410

>  <HISTAMINE H3>
8.54

$$$$
647411
  Marvin  02231216192D 0   1.00000     0.00000     0

 27 30  0  0  0  0  0  0  0  0999 V2000
    6.1480    5.8466    0.0000 F   0  0  0  0  0  0  0  0  0
    5.6832    5.1650    0.0000 C   0  0  0  0  0  0  0  0  0
    6.0412    4.4217    0.0000 C   0  0  0  0  0  0  0  0  0
    5.5765    3.7400    0.0000 C   0  0  0  0  0  0  0  0  0
    5.9344    2.9967    0.0000 O   0  0  0  0  0  0  0  0  0
    5.4697    2.3151    0.0000 C   0  0  0  0  0  0  0  0  0
    5.8276    1.5718    0.0000 C   0  0  0  0  0  0  0  0  0
    5.3629    0.8901    0.0000 C   0  0  0  0  0  0  0  0  0
    4.5402    0.9518    0.0000 C   0  0  0  0  0  0  0  0  0
    4.1822    1.6951    0.0000 N   0  0  0  0  0  0  0  0  0
    4.6470    2.3767    0.0000 C   0  0  0  0  0  0  0  0  0
    4.0754    0.2701    0.0000 C   0  0  0  0  0  0  0  0  0
    3.2528    0.3318    0.0000 O   0  0  0  0  0  0  0  0  0
    4.4334   -0.4732    0.0000 N   0  0  0  0  0  0  0  0  0
    5.2584   -0.4732    0.0000 C   0  0  0  0  0  0  0  0  0
    5.7728   -1.1182    0.0000 C   0  0  0  0  0  0  0  0  0
    5.5892   -1.9225    0.0000 C   0  0  0  0  0  0  0  0  0
    4.8459   -2.2805    0.0000 N   0  0  0  0  0  0  0  0  0
    4.1026   -1.9225    0.0000 C   0  0  0  0  0  0  0  0  0
    3.9190   -1.1182    0.0000 C   0  0  0  0  0  0  0  0  0
    4.8459   -3.1055    0.0000 C   0  0  0  0  0  0  0  0  0
    5.4293   -3.6888    0.0000 C   0  0  0  0  0  0  0  0  0
    4.8459   -4.2722    0.0000 C   0  0  0  0  0  0  0  0  0
    4.2625   -3.6888    0.0000 C   0  0  0  0  0  0  0  0  0
    4.7538    3.8017    0.0000 C   0  0  0  0  0  0  0  0  0
    4.3958    4.5450    0.0000 C   0  0  0  0  0  0  0  0  0
    4.8605    5.2266    0.0000 C   0  0  0  0  0  0  0  0  0
  1  2  1  0  0  0  0
  2  3  4  0  0  0  0
  2 27  4  0  0  0  0
  3  4  4  0  0  0  0
  4  5  1  0  0  0  0
  4 25  4  0  0  0  0
  5  6  1  0  0  0  0
  6  7  4  0  0  0  0
  6 11  4  0  0  0  0
  7  8  4  0  0  0  0
  8  9  4  0  0  0  0
  9 10  4  0  0  0  0
  9 12  1  0  0  0  0
 10 11  4  0  0  0  0
 12 13  2  0  0  0  0
 12 14  1  0  0  0  0
 14 15  1  0  0  0  0
 14 20  1  0  0  0  0
 15 16  1  0  0  0  0
 16 17  1  0  0  0  0
 17 18  1  0  0  0  0
 18 19  1  0  0  0  0
 18 21  1  0  0  0  0
 19 20  1  0  0  0  0
 21 22  1  0  0  0  0
 21 24  1  0  0  0  0
 22 23  1  0  0  0  0
 23 24  1  0  0  0  0
 25 26  4  0  0  0  0
 26 27  4  0  0  0  0
M  END
>  <Name_Molregno>
647411

>  <HISTAMINE H3>
8.26

$$$$
647412
  Marvin  02231216192D 0   1.00000     0.00000     0

 27 30  0  0  0  0  0  0  0  0999 V2000
   -4.5284    2.8812    0.0000 F   0  0  0  0  0  0  0  0  0
   -4.0636    3.5628    0.0000 C   0  0  0  0  0  0  0  0  0
   -4.4216    4.3061    0.0000 C   0  0  0  0  0  0  0  0  0
   -3.9568    4.9878    0.0000 C   0  0  0  0  0  0  0  0  0
   -3.1341    4.9261    0.0000 C   0  0  0  0  0  0  0  0  0
   -2.7762    4.1828    0.0000 C   0  0  0  0  0  0  0  0  0
   -3.2409    3.5012    0.0000 C   0  0  0  0  0  0  0  0  0
   -2.8830    2.7579    0.0000 O   0  0  0  0  0  0  0  0  0
   -3.3477    2.0762    0.0000 C   0  0  0  0  0  0  0  0  0
   -2.9898    1.3329    0.0000 C   0  0  0  0  0  0  0  0  0
   -3.4545    0.6513    0.0000 C   0  0  0  0  0  0  0  0  0
   -4.2772    0.7129    0.0000 C   0  0  0  0  0  0  0  0  0
   -4.6351    1.4562    0.0000 N   0  0  0  0  0  0  0  0  0
   -4.1704    2.1379    0.0000 C   0  0  0  0  0  0  0  0  0
   -4.7419    0.0313    0.0000 C   0  0  0  0  0  0  0  0  0
   -5.5646    0.0929    0.0000 O   0  0  0  0  0  0  0  0  0
   -4.3840   -0.7120    0.0000 N   0  0  0  0  0  0  0  0  0
   -3.5590   -0.7120    0.0000 C   0  0  0  0  0  0  0  0  0
   -3.0446   -1.3570    0.0000 C   0  0  0  0  0  0  0  0  0
   -3.2282   -2.1614    0.0000 C   0  0  0  0  0  0  0  0  0
   -3.9715   -2.5193    0.0000 N   0  0  0  0  0  0  0  0  0
   -4.7148   -2.1614    0.0000 C   0  0  0  0  0  0  0  0  0
   -4.8984   -1.3570    0.0000 C   0  0  0  0  0  0  0  0  0
   -3.9715   -3.3443    0.0000 C   0  0  0  0  0  0  0  0  0
   -3.3881   -3.9277    0.0000 C   0  0  0  0  0  0  0  0  0
   -3.9715   -4.5110    0.0000 C   0  0  0  0  0  0  0  0  0
   -4.5548   -3.9277    0.0000 C   0  0  0  0  0  0  0  0  0
  1  2  1  0  0  0  0
  2  3  4  0  0  0  0
  2  7  4  0  0  0  0
  3  4  4  0  0  0  0
  4  5  4  0  0  0  0
  5  6  4  0  0  0  0
  6  7  4  0  0  0  0
  7  8  1  0  0  0  0
  8  9  1  0  0  0  0
  9 10  4  0  0  0  0
  9 14  4  0  0  0  0
 10 11  4  0  0  0  0
 11 12  4  0  0  0  0
 12 13  4  0  0  0  0
 12 15  1  0  0  0  0
 13 14  4  0  0  0  0
 15 16  2  0  0  0  0
 15 17  1  0  0  0  0
 17 18  1  0  0  0  0
 17 23  1  0  0  0  0
 18 19  1  0  0  0  0
 19 20  1  0  0  0  0
 20 21  1  0  0  0  0
 21 22  1  0  0  0  0
 21 24  1  0  0  0  0
 22 23  1  0  0  0  0
 24 25  1  0  0  0  0
 24 27  1  0  0  0  0
 25 26  1  0  0  0  0
 26 27  1  0  0  0  0
M  END
>  <Name_Molregno>
647412

>  <HISTAMINE H3>
8.37

$$$$
647413
  Marvin  02231216192D 0   1.00000     0.00000     0

 26 29  0  0  0  0  0  0  0  0999 V2000
   -1.3697    3.1669    0.0000 S   0  0  0  0  0  0  0  0  0
   -1.7277    3.9102    0.0000 C   0  0  0  0  0  0  0  0  0
   -2.5504    3.9718    0.0000 C   0  0  0  0  0  0  0  0  0
   -2.9083    4.7151    0.0000 C   0  0  0  0  0  0  0  0  0
   -2.4436    5.3968    0.0000 C   0  0  0  0  0  0  0  0  0
   -1.6209    5.3351    0.0000 C   0  0  0  0  0  0  0  0  0
   -1.2629    4.5918    0.0000 C   0  0  0  0  0  0  0  0  0
   -1.8344    2.4852    0.0000 C   0  0  0  0  0  0  0  0  0
   -1.4765    1.7419    0.0000 C   0  0  0  0  0  0  0  0  0
   -1.9412    1.0603    0.0000 C   0  0  0  0  0  0  0  0  0
   -2.7639    1.1219    0.0000 C   0  0  0  0  0  0  0  0  0
   -3.1219    1.8652    0.0000 N   0  0  0  0  0  0  0  0  0
   -2.6571    2.5469    0.0000 C   0  0  0  0  0  0  0  0  0
   -3.2287    0.4403    0.0000 C   0  0  0  0  0  0  0  0  0
   -4.0514    0.5019    0.0000 O   0  0  0  0  0  0  0  0  0
   -2.8707   -0.3030    0.0000 N   0  0  0  0  0  0  0  0  0
   -2.0457   -0.3030    0.0000 C   0  0  0  0  0  0  0  0  0
   -1.5313   -0.9480    0.0000 C   0  0  0  0  0  0  0  0  0
   -1.7149   -1.7524    0.0000 C   0  0  0  0  0  0  0  0  0
   -2.4582   -2.1103    0.0000 N   0  0  0  0  0  0  0  0  0
   -3.2015   -1.7524    0.0000 C   0  0  0  0  0  0  0  0  0
   -3.3851   -0.9480    0.0000 C   0  0  0  0  0  0  0  0  0
   -2.4582   -2.9353    0.0000 C   0  0  0  0  0  0  0  0  0
   -1.8748   -3.5187    0.0000 C   0  0  0  0  0  0  0  0  0
   -2.4582   -4.1020    0.0000 C   0  0  0  0  0  0  0  0  0
   -3.0416   -3.5187    0.0000 C   0  0  0  0  0  0  0  0  0
  1  2  1  0  0  0  0
  1  8  1  0  0  0  0
  2  3  4  0  0  0  0
  2  7  4  0  0  0  0
  3  4  4  0  0  0  0
  4  5  4  0  0  0  0
  5  6  4  0  0  0  0
  6  7  4  0  0  0  0
  8  9  4  0  0  0  0
  8 13  4  0  0  0  0
  9 10  4  0  0  0  0
 10 11  4  0  0  0  0
 11 12  4  0  0  0  0
 11 14  1  0  0  0  0
 12 13  4  0  0  0  0
 14 15  2  0  0  0  0
 14 16  1  0  0  0  0
 16 17  1  0  0  0  0
 16 22  1  0  0  0  0
 17 18  1  0  0  0  0
 18 19  1  0  0  0  0
 19 20  1  0  0  0  0
 20 21  1  0  0  0  0
 20 23  1  0  0  0  0
 21 22  1  0  0  0  0
 23 24  1  0  0  0  0
 23 26  1  0  0  0  0
 24 25  1  0  0  0  0
 25 26  1  0  0  0  0
M  END
>  <Name_Molregno>
647413

>  <HISTAMINE H3>
8.43

$$$$
647456
  Marvin  02231216192D 0   1.00000     0.00000     0

 27 30  0  0  0  0  0  0  0  0999 V2000
   -0.4569    3.9858    0.0000 S   0  0  0  0  0  0  0  0  0
   -0.8148    4.7291    0.0000 C   0  0  0  0  0  0  0  0  0
   -1.6375    4.7907    0.0000 C   0  0  0  0  0  0  0  0  0
   -1.9955    5.5340    0.0000 C   0  0  0  0  0  0  0  0  0
   -1.5307    6.2157    0.0000 C   0  0  0  0  0  0  0  0  0
   -1.8887    6.9590    0.0000 F   0  0  0  0  0  0  0  0  0
   -0.7080    6.1540    0.0000 C   0  0  0  0  0  0  0  0  0
   -0.3501    5.4107    0.0000 C   0  0  0  0  0  0  0  0  0
   -0.9216    3.3041    0.0000 C   0  0  0  0  0  0  0  0  0
   -0.5637    2.5609    0.0000 C   0  0  0  0  0  0  0  0  0
   -1.0284    1.8792    0.0000 C   0  0  0  0  0  0  0  0  0
   -1.8511    1.9409    0.0000 C   0  0  0  0  0  0  0  0  0
   -2.2090    2.6842    0.0000 N   0  0  0  0  0  0  0  0  0
   -1.7443    3.3658    0.0000 C   0  0  0  0  0  0  0  0  0
   -2.3158    1.2592    0.0000 C   0  0  0  0  0  0  0  0  0
   -3.1385    1.3209    0.0000 O   0  0  0  0  0  0  0  0  0
   -1.9579    0.5159    0.0000 N   0  0  0  0  0  0  0  0  0
   -1.1329    0.5159    0.0000 C   0  0  0  0  0  0  0  0  0
   -0.6185   -0.1291    0.0000 C   0  0  0  0  0  0  0  0  0
   -0.8021   -0.9334    0.0000 C   0  0  0  0  0  0  0  0  0
   -1.5454   -1.2914    0.0000 N   0  0  0  0  0  0  0  0  0
   -2.2887   -0.9334    0.0000 C   0  0  0  0  0  0  0  0  0
   -2.4723   -0.1291    0.0000 C   0  0  0  0  0  0  0  0  0
   -1.5454   -2.1164    0.0000 C   0  0  0  0  0  0  0  0  0
   -0.9620   -2.6997    0.0000 C   0  0  0  0  0  0  0  0  0
   -1.5454   -3.2831    0.0000 C   0  0  0  0  0  0  0  0  0
   -2.1287   -2.6997    0.0000 C   0  0  0  0  0  0  0  0  0
  1  2  1  0  0  0  0
  1  9  1  0  0  0  0
  2  3  4  0  0  0  0
  2  8  4  0  0  0  0
  3  4  4  0  0  0  0
  4  5  4  0  0  0  0
  5  6  1  0  0  0  0
  5  7  4  0  0  0  0
  7  8  4  0  0  0  0
  9 10  4  0  0  0  0
  9 14  4  0  0  0  0
 10 11  4  0  0  0  0
 11 12  4  0  0  0  0
 12 13  4  0  0  0  0
 12 15  1  0  0  0  0
 13 14  4  0  0  0  0
 15 16  2  0  0  0  0
 15 17  1  0  0  0  0
 17 18  1  0  0  0  0
 17 23  1  0  0  0  0
 18 19  1  0  0  0  0
 19 20  1  0  0  0  0
 20 21  1  0  0  0  0
 21 22  1  0  0  0  0
 21 24  1  0  0  0  0
 22 23  1  0  0  0  0
 24 25  1  0  0  0  0
 24 27  1  0  0  0  0
 25 26  1  0  0  0  0
 26 27  1  0  0  0  0
M  END
>  <Name_Molregno>
647456

>  <HISTAMINE H3>
8.34

$$$$
647457
  Marvin  02231216192D 0   1.00000     0.00000     0

 26 29  0  0  0  0  0  0  0  0999 V2000
   -1.3697    3.1669    0.0000 S   0  0  0  0  0  0  0  0  0
   -1.7277    3.9102    0.0000 C   0  0  0  0  0  0  0  0  0
   -2.5504    3.9718    0.0000 C   0  0  0  0  0  0  0  0  0
   -2.9083    4.7151    0.0000 C   0  0  0  0  0  0  0  0  0
   -2.4436    5.3968    0.0000 C   0  0  0  0  0  0  0  0  0
   -1.6209    5.3351    0.0000 C   0  0  0  0  0  0  0  0  0
   -1.2629    4.5918    0.0000 C   0  0  0  0  0  0  0  0  0
   -1.8344    2.4852    0.0000 C   0  0  0  0  0  0  0  0  0
   -1.4765    1.7419    0.0000 N   0  0  0  0  0  0  0  0  0
   -1.9412    1.0603    0.0000 C   0  0  0  0  0  0  0  0  0
   -2.7639    1.1219    0.0000 C   0  0  0  0  0  0  0  0  0
   -3.1219    1.8652    0.0000 C   0  0  0  0  0  0  0  0  0
   -2.6571    2.5469    0.0000 C   0  0  0  0  0  0  0  0  0
   -3.2287    0.4403    0.0000 C   0  0  0  0  0  0  0  0  0
   -4.0514    0.5019    0.0000 O   0  0  0  0  0  0  0  0  0
   -2.8707   -0.3030    0.0000 N   0  0  0  0  0  0  0  0  0
   -2.0457   -0.3030    0.0000 C   0  0  0  0  0  0  0  0  0
   -1.5313   -0.9480    0.0000 C   0  0  0  0  0  0  0  0  0
   -1.7149   -1.7524    0.0000 C   0  0  0  0  0  0  0  0  0
   -2.4582   -2.1103    0.0000 N   0  0  0  0  0  0  0  0  0
   -3.2015   -1.7524    0.0000 C   0  0  0  0  0  0  0  0  0
   -3.3851   -0.9480    0.0000 C   0  0  0  0  0  0  0  0  0
   -2.4582   -2.9353    0.0000 C   0  0  0  0  0  0  0  0  0
   -1.8748   -3.5187    0.0000 C   0  0  0  0  0  0  0  0  0
   -2.4582   -4.1020    0.0000 C   0  0  0  0  0  0  0  0  0
   -3.0416   -3.5187    0.0000 C   0  0  0  0  0  0  0  0  0
  1  2  1  0  0  0  0
  1  8  1  0  0  0  0
  2  3  4  0  0  0  0
  2  7  4  0  0  0  0
  3  4  4  0  0  0  0
  4  5  4  0  0  0  0
  5  6  4  0  0  0  0
  6  7  4  0  0  0  0
  8  9  4  0  0  0  0
  8 13  4  0  0  0  0
  9 10  4  0  0  0  0
 10 11  4  0  0  0  0
 11 12  4  0  0  0  0
 11 14  1  0  0  0  0
 12 13  4  0  0  0  0
 14 15  2  0  0  0  0
 14 16  1  0  0  0  0
 16 17  1  0  0  0  0
 16 22  1  0  0  0  0
 17 18  1  0  0  0  0
 18 19  1  0  0  0  0
 19 20  1  0  0  0  0
 20 21  1  0  0  0  0
 20 23  1  0  0  0  0
 21 22  1  0  0  0  0
 23 24  1  0  0  0  0
 23 26  1  0  0  0  0
 24 25  1  0  0  0  0
 25 26  1  0  0  0  0
M  END
>  <Name_Molregno>
647457

>  <HISTAMINE H3>
8.64

$$$$
647458
  Marvin  02231216192D 0   1.00000     0.00000     0

 27 30  0  0  0  0  0  0  0  0999 V2000
   -0.4569    3.9858    0.0000 S   0  0  0  0  0  0  0  0  0
   -0.8148    4.7291    0.0000 C   0  0  0  0  0  0  0  0  0
   -1.6375    4.7907    0.0000 C   0  0  0  0  0  0  0  0  0
   -1.9955    5.5340    0.0000 C   0  0  0  0  0  0  0  0  0
   -1.5307    6.2157    0.0000 C   0  0  0  0  0  0  0  0  0
   -1.8887    6.9590    0.0000 F   0  0  0  0  0  0  0  0  0
   -0.7080    6.1540    0.0000 C   0  0  0  0  0  0  0  0  0
   -0.3501    5.4107    0.0000 C   0  0  0  0  0  0  0  0  0
   -0.9216    3.3041    0.0000 C   0  0  0  0  0  0  0  0  0
   -0.5637    2.5609    0.0000 N   0  0  0  0  0  0  0  0  0
   -1.0284    1.8792    0.0000 C   0  0  0  0  0  0  0  0  0
   -1.8511    1.9409    0.0000 C   0  0  0  0  0  0  0  0  0
   -2.2090    2.6842    0.0000 C   0  0  0  0  0  0  0  0  0
   -1.7443    3.3658    0.0000 C   0  0  0  0  0  0  0  0  0
   -2.3158    1.2592    0.0000 C   0  0  0  0  0  0  0  0  0
   -3.1385    1.3209    0.0000 O   0  0  0  0  0  0  0  0  0
   -1.9579    0.5159    0.0000 N   0  0  0  0  0  0  0  0  0
   -1.1329    0.5159    0.0000 C   0  0  0  0  0  0  0  0  0
   -0.6185   -0.1291    0.0000 C   0  0  0  0  0  0  0  0  0
   -0.8021   -0.9334    0.0000 C   0  0  0  0  0  0  0  0  0
   -1.5454   -1.2914    0.0000 N   0  0  0  0  0  0  0  0  0
   -2.2887   -0.9334    0.0000 C   0  0  0  0  0  0  0  0  0
   -2.4723   -0.1291    0.0000 C   0  0  0  0  0  0  0  0  0
   -1.5454   -2.1164    0.0000 C   0  0  0  0  0  0  0  0  0
   -0.9620   -2.6997    0.0000 C   0  0  0  0  0  0  0  0  0
   -1.5454   -3.2831    0.0000 C   0  0  0  0  0  0  0  0  0
   -2.1287   -2.6997    0.0000 C   0  0  0  0  0  0  0  0  0
  1  2  1  0  0  0  0
  1  9  1  0  0  0  0
  2  3  4  0  0  0  0
  2  8  4  0  0  0  0
  3  4  4  0  0  0  0
  4  5  4  0  0  0  0
  5  6  1  0  0  0  0
  5  7  4  0  0  0  0
  7  8  4  0  0  0  0
  9 10  4  0  0  0  0
  9 14  4  0  0  0  0
 10 11  4  0  0  0  0
 11 12  4  0  0  0  0
 12 13  4  0  0  0  0
 12 15  1  0  0  0  0
 13 14  4  0  0  0  0
 15 16  2  0  0  0  0
 15 17  1  0  0  0  0
 17 18  1  0  0  0  0
 17 23  1  0  0  0  0
 18 19  1  0  0  0  0
 19 20  1  0  0  0  0
 20 21  1  0  0  0  0
 21 22  1  0  0  0  0
 21 24  1  0  0  0  0
 22 23  1  0  0  0  0
 24 25  1  0  0  0  0
 24 27  1  0  0  0  0
 25 26  1  0  0  0  0
 26 27  1  0  0  0  0
M  END
>  <Name_Molregno>
647458

>  <HISTAMINE H3>
7.54

$$$$
647459
  Marvin  02231216192D 0   1.00000     0.00000     0

 27 29  0  0  0  0  0  0  0  0999 V2000
    3.0729    5.1928    0.0000 Cl  0  0  0  0  0  0  0  0  0
    3.0729    4.3678    0.0000 C   0  0  0  0  0  0  0  0  0
    3.7874    3.9553    0.0000 C   0  0  0  0  0  0  0  0  0
    3.7874    3.1303    0.0000 C   0  0  0  0  0  0  0  0  0
    4.5018    2.7178    0.0000 O   0  0  0  0  0  0  0  0  0
    4.5018    1.8928    0.0000 C   0  0  0  0  0  0  0  0  0
    5.2163    1.4803    0.0000 N   0  0  0  0  0  0  0  0  0
    5.2163    0.6553    0.0000 C   0  0  0  0  0  0  0  0  0
    4.5018    0.2428    0.0000 C   0  0  0  0  0  0  0  0  0
    3.7874    0.6553    0.0000 C   0  0  0  0  0  0  0  0  0
    3.7874    1.4803    0.0000 C   0  0  0  0  0  0  0  0  0
    5.9308    0.2428    0.0000 C   0  0  0  0  0  0  0  0  0
    6.6453    0.6553    0.0000 O   0  0  0  0  0  0  0  0  0
    5.9308   -0.5822    0.0000 N   0  0  0  0  0  0  0  0  0
    6.6741   -0.9402    0.0000 C   0  0  0  0  0  0  0  0  0
    6.8577   -1.7445    0.0000 C   0  0  0  0  0  0  0  0  0
    6.3433   -2.3895    0.0000 C   0  0  0  0  0  0  0  0  0
    5.5183   -2.3895    0.0000 N   0  0  0  0  0  0  0  0  0
    5.0039   -1.7445    0.0000 C   0  0  0  0  0  0  0  0  0
    5.1875   -0.9402    0.0000 C   0  0  0  0  0  0  0  0  0
    5.1603   -3.1328    0.0000 C   0  0  0  0  0  0  0  0  0
    5.6251   -3.8145    0.0000 C   0  0  0  0  0  0  0  0  0
    4.3376   -3.1945    0.0000 C   0  0  0  0  0  0  0  0  0
    3.0729    2.7178    0.0000 C   0  0  0  0  0  0  0  0  0
    2.3584    3.1303    0.0000 C   0  0  0  0  0  0  0  0  0
    2.3584    3.9553    0.0000 C   0  0  0  0  0  0  0  0  0
    1.6440    4.3678    0.0000 Cl  0  0  0  0  0  0  0  0  0
  1  2  1  0  0  0  0
  2  3  4  0  0  0  0
  2 26  4  0  0  0  0
  3  4  4  0  0  0  0
  4  5  1  0  0  0  0
  4 24  4  0  0  0  0
  5  6  1  0  0  0  0
  6  7  4  0  0  0  0
  6 11  4  0  0  0  0
  7  8  4  0  0  0  0
  8  9  4  0  0  0  0
  8 12  1  0  0  0  0
  9 10  4  0  0  0  0
 10 11  4  0  0  0  0
 12 13  2  0  0  0  0
 12 14  1  0  0  0  0
 14 15  1  0  0  0  0
 14 20  1  0  0  0  0
 15 16  1  0  0  0  0
 16 17  1  0  0  0  0
 17 18  1  0  0  0  0
 18 19  1  0  0  0  0
 18 21  1  0  0  0  0
 19 20  1  0  0  0  0
 21 22  1  0  0  0  0
 21 23  1  0  0  0  0
 24 25  4  0  0  0  0
 25 26  4  0  0  0  0
 26 27  1  0  0  0  0
M  END
>  <Name_Molregno>
647459

>  <HISTAMINE H3>
6.37

$$$$
647460
  Marvin  02231216192D 0   1.00000     0.00000     0

 27 30  0  0  0  0  0  0  0  0999 V2000
    1.3137    2.6435    0.0000 Cl  0  0  0  0  0  0  0  0  0
    1.6717    1.9002    0.0000 C   0  0  0  0  0  0  0  0  0
    2.4944    1.8386    0.0000 C   0  0  0  0  0  0  0  0  0
    2.8523    1.0953    0.0000 C   0  0  0  0  0  0  0  0  0
    3.6750    1.0336    0.0000 O   0  0  0  0  0  0  0  0  0
    4.0330    0.2903    0.0000 C   0  0  0  0  0  0  0  0  0
    4.8557    0.2287    0.0000 N   0  0  0  0  0  0  0  0  0
    5.2136   -0.5146    0.0000 C   0  0  0  0  0  0  0  0  0
    4.7489   -1.1963    0.0000 C   0  0  0  0  0  0  0  0  0
    3.9262   -1.1346    0.0000 C   0  0  0  0  0  0  0  0  0
    3.5682   -0.3913    0.0000 C   0  0  0  0  0  0  0  0  0
    6.0363   -0.5763    0.0000 C   0  0  0  0  0  0  0  0  0
    6.5011    0.1054    0.0000 O   0  0  0  0  0  0  0  0  0
    6.3943   -1.3196    0.0000 N   0  0  0  0  0  0  0  0  0
    7.2193   -1.3196    0.0000 C   0  0  0  0  0  0  0  0  0
    7.7337   -1.9646    0.0000 C   0  0  0  0  0  0  0  0  0
    7.5501   -2.7689    0.0000 C   0  0  0  0  0  0  0  0  0
    6.8068   -3.1268    0.0000 N   0  0  0  0  0  0  0  0  0
    6.0635   -2.7689    0.0000 C   0  0  0  0  0  0  0  0  0
    5.8799   -1.9646    0.0000 C   0  0  0  0  0  0  0  0  0
    6.8068   -3.9518    0.0000 C   0  0  0  0  0  0  0  0  0
    7.2193   -4.6663    0.0000 C   0  0  0  0  0  0  0  0  0
    6.3943   -4.6663    0.0000 C   0  0  0  0  0  0  0  0  0
    2.3876    0.4136    0.0000 C   0  0  0  0  0  0  0  0  0
    1.5649    0.4753    0.0000 C   0  0  0  0  0  0  0  0  0
    1.2069    1.2186    0.0000 C   0  0  0  0  0  0  0  0  0
    0.3843    1.2802    0.0000 Cl  0  0  0  0  0  0  0  0  0
  1  2  1  0  0  0  0
  2  3  4  0  0  0  0
  2 26  4  0  0  0  0
  3  4  4  0  0  0  0
  4  5  1  0  0  0  0
  4 24  4  0  0  0  0
  5  6  1  0  0  0  0
  6  7  4  0  0  0  0
  6 11  4  0  0  0  0
  7  8  4  0  0  0  0
  8  9  4  0  0  0  0
  8 12  1  0  0  0  0
  9 10  4  0  0  0  0
 10 11  4  0  0  0  0
 12 13  2  0  0  0  0
 12 14  1  0  0  0  0
 14 15  1  0  0  0  0
 14 20  1  0  0  0  0
 15 16  1  0  0  0  0
 16 17  1  0  0  0  0
 17 18  1  0  0  0  0
 18 19  1  0  0  0  0
 18 21  1  0  0  0  0
 19 20  1  0  0  0  0
 21 22  1  0  0  0  0
 21 23  1  0  0  0  0
 22 23  1  0  0  0  0
 24 25  4  0  0  0  0
 25 26  4  0  0  0  0
 26 27  1  0  0  0  0
M  END
>  <Name_Molregno>
647460

>  <HISTAMINE H3>
5.98

$$$$
647509
  Marvin  02231216192D 0   1.00000     0.00000     0

 28 31  0  0  0  0  0  0  0  0999 V2000
    1.4197    4.2453    0.0000 Cl  0  0  0  0  0  0  0  0  0
    1.7777    3.5021    0.0000 C   0  0  0  0  0  0  0  0  0
    2.6004    3.4404    0.0000 C   0  0  0  0  0  0  0  0  0
    2.9583    2.6971    0.0000 C   0  0  0  0  0  0  0  0  0
    3.7810    2.6354    0.0000 O   0  0  0  0  0  0  0  0  0
    4.1390    1.8921    0.0000 C   0  0  0  0  0  0  0  0  0
    4.9617    1.8305    0.0000 N   0  0  0  0  0  0  0  0  0
    5.3196    1.0872    0.0000 C   0  0  0  0  0  0  0  0  0
    4.8549    0.4055    0.0000 C   0  0  0  0  0  0  0  0  0
    4.0322    0.4672    0.0000 C   0  0  0  0  0  0  0  0  0
    3.6742    1.2105    0.0000 C   0  0  0  0  0  0  0  0  0
    6.1423    1.0255    0.0000 C   0  0  0  0  0  0  0  0  0
    6.6070    1.7072    0.0000 O   0  0  0  0  0  0  0  0  0
    6.5003    0.2822    0.0000 N   0  0  0  0  0  0  0  0  0
    7.3253    0.2822    0.0000 C   0  0  0  0  0  0  0  0  0
    7.8396   -0.3628    0.0000 C   0  0  0  0  0  0  0  0  0
    7.6561   -1.1671    0.0000 C   0  0  0  0  0  0  0  0  0
    6.9128   -1.5250    0.0000 N   0  0  0  0  0  0  0  0  0
    6.1695   -1.1671    0.0000 C   0  0  0  0  0  0  0  0  0
    5.9859   -0.3628    0.0000 C   0  0  0  0  0  0  0  0  0
    6.9128   -2.3500    0.0000 C   0  0  0  0  0  0  0  0  0
    7.4961   -2.9334    0.0000 C   0  0  0  0  0  0  0  0  0
    6.9128   -3.5168    0.0000 C   0  0  0  0  0  0  0  0  0
    6.3294   -2.9334    0.0000 C   0  0  0  0  0  0  0  0  0
    2.4936    2.0155    0.0000 C   0  0  0  0  0  0  0  0  0
    1.6709    2.0771    0.0000 C   0  0  0  0  0  0  0  0  0
    1.3129    2.8204    0.0000 C   0  0  0  0  0  0  0  0  0
    0.4902    2.8821    0.0000 Cl  0  0  0  0  0  0  0  0  0
  1  2  1  0  0  0  0
  2  3  4  0  0  0  0
  2 27  4  0  0  0  0
  3  4  4  0  0  0  0
  4  5  1  0  0  0  0
  4 25  4  0  0  0  0
  5  6  1  0  0  0  0
  6  7  4  0  0  0  0
  6 11  4  0  0  0  0
  7  8  4  0  0  0  0
  8  9  4  0  0  0  0
  8 12  1  0  0  0  0
  9 10  4  0  0  0  0
 10 11  4  0  0  0  0
 12 13  2  0  0  0  0
 12 14  1  0  0  0  0
 14 15  1  0  0  0  0
 14 20  1  0  0  0  0
 15 16  1  0  0  0  0
 16 17  1  0  0  0  0
 17 18  1  0  0  0  0
 18 19  1  0  0  0  0
 18 21  1  0  0  0  0
 19 20  1  0  0  0  0
 21 22  1  0  0  0  0
 21 24  1  0  0  0  0
 22 23  1  0  0  0  0
 23 24  1  0  0  0  0
 25 26  4  0  0  0  0
 26 27  4  0  0  0  0
 27 28  1  0  0  0  0
M  END
>  <Name_Molregno>
647509

>  <HISTAMINE H3>
6.8

$$$$
647510
  Marvin  02231216192D 0   1.00000     0.00000     0

 26 29  0  0  0  0  0  0  0  0999 V2000
   -1.2159    0.5702    0.0000 O   0  0  0  0  0  0  0  0  0
   -0.7512    1.2518    0.0000 C   0  0  0  0  0  0  0  0  0
   -1.1092    1.9951    0.0000 C   0  0  0  0  0  0  0  0  0
   -0.6444    2.6768    0.0000 C   0  0  0  0  0  0  0  0  0
    0.1783    2.6151    0.0000 C   0  0  0  0  0  0  0  0  0
    0.5362    1.8718    0.0000 C   0  0  0  0  0  0  0  0  0
    0.0715    1.1902    0.0000 C   0  0  0  0  0  0  0  0  0
   -2.0386    0.6318    0.0000 C   0  0  0  0  0  0  0  0  0
   -2.5034   -0.0498    0.0000 C   0  0  0  0  0  0  0  0  0
   -3.3261    0.0119    0.0000 C   0  0  0  0  0  0  0  0  0
   -3.6840    0.7552    0.0000 C   0  0  0  0  0  0  0  0  0
   -3.2193    1.4368    0.0000 N   0  0  0  0  0  0  0  0  0
   -2.3966    1.3751    0.0000 C   0  0  0  0  0  0  0  0  0
   -3.7908   -0.6698    0.0000 C   0  0  0  0  0  0  0  0  0
   -4.6135   -0.6081    0.0000 O   0  0  0  0  0  0  0  0  0
   -3.4329   -1.4131    0.0000 N   0  0  0  0  0  0  0  0  0
   -2.6079   -1.4131    0.0000 C   0  0  0  0  0  0  0  0  0
   -2.0935   -2.0581    0.0000 C   0  0  0  0  0  0  0  0  0
   -2.2771   -2.8624    0.0000 C   0  0  0  0  0  0  0  0  0
   -3.0204   -3.2204    0.0000 N   0  0  0  0  0  0  0  0  0
   -3.7637   -2.8624    0.0000 C   0  0  0  0  0  0  0  0  0
   -3.9472   -2.0581    0.0000 C   0  0  0  0  0  0  0  0  0
   -3.0204   -4.0454    0.0000 C   0  0  0  0  0  0  0  0  0
   -2.4370   -4.6287    0.0000 C   0  0  0  0  0  0  0  0  0
   -3.0204   -5.2121    0.0000 C   0  0  0  0  0  0  0  0  0
   -3.6037   -4.6287    0.0000 C   0  0  0  0  0  0  0  0  0
  1  2  1  0  0  0  0
  1  8  1  0  0  0  0
  2  3  4  0  0  0  0
  2  7  4  0  0  0  0
  3  4  4  0  0  0  0
  4  5  4  0  0  0  0
  5  6  4  0  0  0  0
  6  7  4  0  0  0  0
  8  9  4  0  0  0  0
  8 13  4  0  0  0  0
  9 10  4  0  0  0  0
 10 11  4  0  0  0  0
 10 14  1  0  0  0  0
 11 12  4  0  0  0  0
 12 13  4  0  0  0  0
 14 15  2  0  0  0  0
 14 16  1  0  0  0  0
 16 17  1  0  0  0  0
 16 22  1  0  0  0  0
 17 18  1  0  0  0  0
 18 19  1  0  0  0  0
 19 20  1  0  0  0  0
 20 21  1  0  0  0  0
 20 23  1  0  0  0  0
 21 22  1  0  0  0  0
 23 24  1  0  0  0  0
 23 26  1  0  0  0  0
 24 25  1  0  0  0  0
 25 26  1  0  0  0  0
M  END
>  <Name_Molregno>
647510

>  <HISTAMINE H3>
7.96

$$$$
647511
  Marvin  02231216192D 0   1.00000     0.00000     0

 27 30  0  0  0  0  0  0  0  0999 V2000
    7.8711    4.7636    0.0000 F   0  0  0  0  0  0  0  0  0
    7.4063    4.0820    0.0000 C   0  0  0  0  0  0  0  0  0
    7.7643    3.3387    0.0000 C   0  0  0  0  0  0  0  0  0
    7.2996    2.6570    0.0000 C   0  0  0  0  0  0  0  0  0
    6.4769    2.7187    0.0000 C   0  0  0  0  0  0  0  0  0
    6.0121    2.0370    0.0000 O   0  0  0  0  0  0  0  0  0
    5.1894    2.0987    0.0000 C   0  0  0  0  0  0  0  0  0
    4.7247    1.4170    0.0000 C   0  0  0  0  0  0  0  0  0
    3.9020    1.4787    0.0000 C   0  0  0  0  0  0  0  0  0
    3.5440    2.2220    0.0000 C   0  0  0  0  0  0  0  0  0
    4.0088    2.9036    0.0000 N   0  0  0  0  0  0  0  0  0
    4.8315    2.8420    0.0000 C   0  0  0  0  0  0  0  0  0
    3.4373    0.7971    0.0000 C   0  0  0  0  0  0  0  0  0
    2.6146    0.8587    0.0000 O   0  0  0  0  0  0  0  0  0
    3.7952    0.0538    0.0000 N   0  0  0  0  0  0  0  0  0
    4.6202    0.0538    0.0000 C   0  0  0  0  0  0  0  0  0
    5.1346   -0.5913    0.0000 C   0  0  0  0  0  0  0  0  0
    4.9510   -1.3956    0.0000 C   0  0  0  0  0  0  0  0  0
    4.2077   -1.7535    0.0000 N   0  0  0  0  0  0  0  0  0
    3.4644   -1.3956    0.0000 C   0  0  0  0  0  0  0  0  0
    3.2808   -0.5913    0.0000 C   0  0  0  0  0  0  0  0  0
    4.2077   -2.5785    0.0000 C   0  0  0  0  0  0  0  0  0
    4.7911   -3.1619    0.0000 C   0  0  0  0  0  0  0  0  0
    4.2077   -3.7453    0.0000 C   0  0  0  0  0  0  0  0  0
    3.6244   -3.1619    0.0000 C   0  0  0  0  0  0  0  0  0
    6.1189    3.4620    0.0000 C   0  0  0  0  0  0  0  0  0
    6.5837    4.1436    0.0000 C   0  0  0  0  0  0  0  0  0
  1  2  1  0  0  0  0
  2  3  4  0  0  0  0
  2 27  4  0  0  0  0
  3  4  4  0  0  0  0
  4  5  4  0  0  0  0
  5  6  1  0  0  0  0
  5 26  4  0  0  0  0
  6  7  1  0  0  0  0
  7  8  4  0  0  0  0
  7 12  4  0  0  0  0
  8  9  4  0  0  0  0
  9 10  4  0  0  0  0
  9 13  1  0  0  0  0
 10 11  4  0  0  0  0
 11 12  4  0  0  0  0
 13 14  2  0  0  0  0
 13 15  1  0  0  0  0
 15 16  1  0  0  0  0
 15 21  1  0  0  0  0
 16 17  1  0  0  0  0
 17 18  1  0  0  0  0
 18 19  1  0  0  0  0
 19 20  1  0  0  0  0
 19 22  1  0  0  0  0
 20 21  1  0  0  0  0
 22 23  1  0  0  0  0
 22 25  1  0  0  0  0
 23 24  1  0  0  0  0
 24 25  1  0  0  0  0
 26 27  4  0  0  0  0
M  END
>  <Name_Molregno>
647511

>  <HISTAMINE H3>
7.77

$$$$
647512
  Marvin  02231216192D 0   1.00000     0.00000     0

 26 29  0  0  0  0  0  0  0  0999 V2000
    0.4701    1.1028    0.0000 O   0  0  0  0  0  0  0  0  0
    0.8280    0.3595    0.0000 C   0  0  0  0  0  0  0  0  0
    1.6507    0.2979    0.0000 C   0  0  0  0  0  0  0  0  0
    2.0087   -0.4454    0.0000 C   0  0  0  0  0  0  0  0  0
    1.5439   -1.1271    0.0000 N   0  0  0  0  0  0  0  0  0
    0.7212   -1.0654    0.0000 C   0  0  0  0  0  0  0  0  0
    0.3633   -0.3221    0.0000 C   0  0  0  0  0  0  0  0  0
    2.8314   -0.5071    0.0000 C   0  0  0  0  0  0  0  0  0
    3.2961    0.1746    0.0000 O   0  0  0  0  0  0  0  0  0
    3.1893   -1.2504    0.0000 N   0  0  0  0  0  0  0  0  0
    4.0143   -1.2504    0.0000 C   0  0  0  0  0  0  0  0  0
    4.5287   -1.8954    0.0000 C   0  0  0  0  0  0  0  0  0
    4.3451   -2.6997    0.0000 C   0  0  0  0  0  0  0  0  0
    3.6018   -3.0577    0.0000 N   0  0  0  0  0  0  0  0  0
    2.8585   -2.6997    0.0000 C   0  0  0  0  0  0  0  0  0
    2.6749   -1.8954    0.0000 C   0  0  0  0  0  0  0  0  0
    3.6018   -3.8827    0.0000 C   0  0  0  0  0  0  0  0  0
    4.1852   -4.4660    0.0000 C   0  0  0  0  0  0  0  0  0
    3.6018   -5.0494    0.0000 C   0  0  0  0  0  0  0  0  0
    3.0185   -4.4660    0.0000 C   0  0  0  0  0  0  0  0  0
    0.9348    1.7845    0.0000 C   0  0  0  0  0  0  0  0  0
    0.5769    2.5278    0.0000 C   0  0  0  0  0  0  0  0  0
    1.0416    3.2094    0.0000 C   0  0  0  0  0  0  0  0  0
    1.8643    3.1478    0.0000 C   0  0  0  0  0  0  0  0  0
    2.2222    2.4045    0.0000 C   0  0  0  0  0  0  0  0  0
    1.7575    1.7228    0.0000 C   0  0  0  0  0  0  0  0  0
  1  2  1  0  0  0  0
  1 21  1  0  0  0  0
  2  3  4  0  0  0  0
  2  7  4  0  0  0  0
  3  4  4  0  0  0  0
  4  5  4  0  0  0  0
  4  8  1  0  0  0  0
  5  6  4  0  0  0  0
  6  7  4  0  0  0  0
  8  9  2  0  0  0  0
  8 10  1  0  0  0  0
 10 11  1  0  0  0  0
 10 16  1  0  0  0  0
 11 12  1  0  0  0  0
 12 13  1  0  0  0  0
 13 14  1  0  0  0  0
 14 15  1  0  0  0  0
 14 17  1  0  0  0  0
 15 16  1  0  0  0  0
 17 18  1  0  0  0  0
 17 20  1  0  0  0  0
 18 19  1  0  0  0  0
 19 20  1  0  0  0  0
 21 22  4  0  0  0  0
 21 26  4  0  0  0  0
 22 23  4  0  0  0  0
 23 24  4  0  0  0  0
 24 25  4  0  0  0  0
 25 26  4  0  0  0  0
M  END
>  <Name_Molregno>
647512

>  <HISTAMINE H3>
7.39

$$$$
647513
  Marvin  02231216192D 0   1.00000     0.00000     0

 27 30  0  0  0  0  0  0  0  0999 V2000
    7.8711    4.7636    0.0000 F   0  0  0  0  0  0  0  0  0
    7.4063    4.0820    0.0000 C   0  0  0  0  0  0  0  0  0
    7.7643    3.3387    0.0000 C   0  0  0  0  0  0  0  0  0
    7.2996    2.6570    0.0000 C   0  0  0  0  0  0  0  0  0
    6.4769    2.7187    0.0000 C   0  0  0  0  0  0  0  0  0
    6.0121    2.0370    0.0000 O   0  0  0  0  0  0  0  0  0
    5.1894    2.0987    0.0000 C   0  0  0  0  0  0  0  0  0
    4.7247    1.4170    0.0000 C   0  0  0  0  0  0  0  0  0
    3.9020    1.4787    0.0000 C   0  0  0  0  0  0  0  0  0
    3.5440    2.2220    0.0000 N   0  0  0  0  0  0  0  0  0
    4.0088    2.9036    0.0000 C   0  0  0  0  0  0  0  0  0
    4.8315    2.8420    0.0000 C   0  0  0  0  0  0  0  0  0
    3.4373    0.7971    0.0000 C   0  0  0  0  0  0  0  0  0
    2.6146    0.8587    0.0000 O   0  0  0  0  0  0  0  0  0
    3.7952    0.0538    0.0000 N   0  0  0  0  0  0  0  0  0
    4.6202    0.0538    0.0000 C   0  0  0  0  0  0  0  0  0
    5.1346   -0.5913    0.0000 C   0  0  0  0  0  0  0  0  0
    4.9510   -1.3956    0.0000 C   0  0  0  0  0  0  0  0  0
    4.2077   -1.7535    0.0000 N   0  0  0  0  0  0  0  0  0
    3.4644   -1.3956    0.0000 C   0  0  0  0  0  0  0  0  0
    3.2808   -0.5913    0.0000 C   0  0  0  0  0  0  0  0  0
    4.2077   -2.5785    0.0000 C   0  0  0  0  0  0  0  0  0
    4.7911   -3.1619    0.0000 C   0  0  0  0  0  0  0  0  0
    4.2077   -3.7453    0.0000 C   0  0  0  0  0  0  0  0  0
    3.6244   -3.1619    0.0000 C   0  0  0  0  0  0  0  0  0
    6.1189    3.4620    0.0000 C   0  0  0  0  0  0  0  0  0
    6.5837    4.1436    0.0000 C   0  0  0  0  0  0  0  0  0
  1  2  1  0  0  0  0
  2  3  4  0  0  0  0
  2 27  4  0  0  0  0
  3  4  4  0  0  0  0
  4  5  4  0  0  0  0
  5  6  1  0  0  0  0
  5 26  4  0  0  0  0
  6  7  1  0  0  0  0
  7  8  4  0  0  0  0
  7 12  4  0  0  0  0
  8  9  4  0  0  0  0
  9 10  4  0  0  0  0
  9 13  1  0  0  0  0
 10 11  4  0  0  0  0
 11 12  4  0  0  0  0
 13 14  2  0  0  0  0
 13 15  1  0  0  0  0
 15 16  1  0  0  0  0
 15 21  1  0  0  0  0
 16 17  1  0  0  0  0
 17 18  1  0  0  0  0
 18 19  1  0  0  0  0
 19 20  1  0  0  0  0
 19 22  1  0  0  0  0
 20 21  1  0  0  0  0
 22 23  1  0  0  0  0
 22 25  1  0  0  0  0
 23 24  1  0  0  0  0
 24 25  1  0  0  0  0
 26 27  4  0  0  0  0
M  END
>  <Name_Molregno>
647513

>  <HISTAMINE H3>
8.24

$$$$
647873
  Marvin  02231216192D 0   1.00000     0.00000     0

 26 28  0  0  0  0  0  0  0  0999 V2000
    4.1378    5.0940    0.0000 Cl  0  0  0  0  0  0  0  0  0
    4.1378    4.2690    0.0000 C   0  0  0  0  0  0  0  0  0
    4.8523    3.8565    0.0000 C   0  0  0  0  0  0  0  0  0
    4.8523    3.0315    0.0000 C   0  0  0  0  0  0  0  0  0
    5.5668    2.6190    0.0000 O   0  0  0  0  0  0  0  0  0
    5.5668    1.7940    0.0000 C   0  0  0  0  0  0  0  0  0
    6.2813    1.3815    0.0000 N   0  0  0  0  0  0  0  0  0
    6.2813    0.5565    0.0000 C   0  0  0  0  0  0  0  0  0
    5.5668    0.1440    0.0000 C   0  0  0  0  0  0  0  0  0
    4.8523    0.5565    0.0000 C   0  0  0  0  0  0  0  0  0
    4.8523    1.3815    0.0000 C   0  0  0  0  0  0  0  0  0
    5.5668   -0.6810    0.0000 C   0  0  0  0  0  0  0  0  0
    6.2813   -1.0935    0.0000 O   0  0  0  0  0  0  0  0  0
    4.8523   -1.0935    0.0000 N   0  0  0  0  0  0  0  0  0
    4.8523   -1.9185    0.0000 C   0  0  0  0  0  0  0  0  0
    4.1378   -2.3310    0.0000 C   0  0  0  0  0  0  0  0  0
    3.4234   -1.9185    0.0000 N   0  0  0  0  0  0  0  0  0
    3.4234   -1.0935    0.0000 C   0  0  0  0  0  0  0  0  0
    4.1378   -0.6810    0.0000 C   0  0  0  0  0  0  0  0  0
    2.7089   -2.3310    0.0000 C   0  0  0  0  0  0  0  0  0
    1.9944   -1.9185    0.0000 C   0  0  0  0  0  0  0  0  0
    2.7089   -3.1560    0.0000 C   0  0  0  0  0  0  0  0  0
    4.1378    2.6190    0.0000 C   0  0  0  0  0  0  0  0  0
    3.4234    3.0315    0.0000 C   0  0  0  0  0  0  0  0  0
    3.4234    3.8565    0.0000 C   0  0  0  0  0  0  0  0  0
    2.7089    4.2690    0.0000 Cl  0  0  0  0  0  0  0  0  0
  1  2  1  0  0  0  0
  2  3  4  0  0  0  0
  2 25  4  0  0  0  0
  3  4  4  0  0  0  0
  4  5  1  0  0  0  0
  4 23  4  0  0  0  0
  5  6  1  0  0  0  0
  6  7  4  0  0  0  0
  6 11  4  0  0  0  0
  7  8  4  0  0  0  0
  8  9  4  0  0  0  0
  9 10  4  0  0  0  0
  9 12  1  0  0  0  0
 10 11  4  0  0  0  0
 12 13  2  0  0  0  0
 12 14  1  0  0  0  0
 14 15  1  0  0  0  0
 14 19  1  0  0  0  0
 15 16  1  0  0  0  0
 16 17  1  0  0  0  0
 17 18  1  0  0  0  0
 17 20  1  0  0  0  0
 18 19  1  0  0  0  0
 20 21  1  0  0  0  0
 20 22  1  0  0  0  0
 23 24  4  0  0  0  0
 24 25  4  0  0  0  0
 25 26  1  0  0  0  0
M  END
>  <Name_Molregno>
647873

>  <HISTAMINE H3>
7.11

$$$$
647923
  Marvin  02231216192D 0   1.00000     0.00000     0

 26 28  0  0  0  0  0  0  0  0999 V2000
   -2.1344    2.3594    0.0000 S   0  0  0  0  0  0  0  0  0
   -2.8489    2.7719    0.0000 C   0  0  0  0  0  0  0  0  0
   -2.1344    1.5344    0.0000 C   0  0  0  0  0  0  0  0  0
   -1.4199    1.1219    0.0000 C   0  0  0  0  0  0  0  0  0
   -1.4199    0.2969    0.0000 C   0  0  0  0  0  0  0  0  0
   -2.1344   -0.1156    0.0000 C   0  0  0  0  0  0  0  0  0
   -2.1344   -0.9406    0.0000 O   0  0  0  0  0  0  0  0  0
   -2.8489   -1.3531    0.0000 C   0  0  0  0  0  0  0  0  0
   -2.8489   -2.1781    0.0000 N   0  0  0  0  0  0  0  0  0
   -3.5633   -2.5906    0.0000 C   0  0  0  0  0  0  0  0  0
   -4.2778   -2.1781    0.0000 C   0  0  0  0  0  0  0  0  0
   -4.2778   -1.3531    0.0000 C   0  0  0  0  0  0  0  0  0
   -3.5633   -0.9406    0.0000 C   0  0  0  0  0  0  0  0  0
   -4.9923   -2.5906    0.0000 C   0  0  0  0  0  0  0  0  0
   -4.9923   -3.4156    0.0000 O   0  0  0  0  0  0  0  0  0
   -5.7067   -2.1781    0.0000 N   0  0  0  0  0  0  0  0  0
   -6.4212   -2.5906    0.0000 C   0  0  0  0  0  0  0  0  0
   -7.1357   -2.1781    0.0000 C   0  0  0  0  0  0  0  0  0
   -7.1357   -1.3531    0.0000 N   0  0  0  0  0  0  0  0  0
   -6.4212   -0.9406    0.0000 C   0  0  0  0  0  0  0  0  0
   -5.7067   -1.3531    0.0000 C   0  0  0  0  0  0  0  0  0
   -7.8502   -0.9406    0.0000 C   0  0  0  0  0  0  0  0  0
   -8.5646   -1.3531    0.0000 C   0  0  0  0  0  0  0  0  0
   -7.8502   -0.1156    0.0000 C   0  0  0  0  0  0  0  0  0
   -2.8489    0.2969    0.0000 C   0  0  0  0  0  0  0  0  0
   -2.8489    1.1219    0.0000 C   0  0  0  0  0  0  0  0  0
  1  2  1  0  0  0  0
  1  3  1  0  0  0  0
  3  4  4  0  0  0  0
  3 26  4  0  0  0  0
  4  5  4  0  0  0  0
  5  6  4  0  0  0  0
  6  7  1  0  0  0  0
  6 25  4  0  0  0  0
  7  8  1  0  0  0  0
  8  9  4  0  0  0  0
  8 13  4  0  0  0  0
  9 10  4  0  0  0  0
 10 11  4  0  0  0  0
 11 12  4  0  0  0  0
 11 14  1  0  0  0  0
 12 13  4  0  0  0  0
 14 15  2  0  0  0  0
 14 16  1  0  0  0  0
 16 17  1  0  0  0  0
 16 21  1  0  0  0  0
 17 18  1  0  0  0  0
 18 19  1  0  0  0  0
 19 20  1  0  0  0  0
 19 22  1  0  0  0  0
 20 21  1  0  0  0  0
 22 23  1  0  0  0  0
 22 24  1  0  0  0  0
 25 26  4  0  0  0  0
M  END
>  <Name_Molregno>
647923

>  <HISTAMINE H3>
6.64

$$$$
647924
  Marvin  02231216192D 0   1.00000     0.00000     0

 24 26  0  0  0  0  0  0  0  0999 V2000
   -4.4153   -0.8995    0.0000 O   0  0  0  0  0  0  0  0  0
   -4.4153   -1.7245    0.0000 C   0  0  0  0  0  0  0  0  0
   -3.7008   -2.1370    0.0000 C   0  0  0  0  0  0  0  0  0
   -3.7008   -2.9620    0.0000 C   0  0  0  0  0  0  0  0  0
   -4.4153   -3.3745    0.0000 C   0  0  0  0  0  0  0  0  0
   -5.1298   -2.9620    0.0000 C   0  0  0  0  0  0  0  0  0
   -5.1298   -2.1370    0.0000 C   0  0  0  0  0  0  0  0  0
   -3.7008   -0.4870    0.0000 C   0  0  0  0  0  0  0  0  0
   -3.7008    0.3380    0.0000 N   0  0  0  0  0  0  0  0  0
   -2.9863    0.7505    0.0000 C   0  0  0  0  0  0  0  0  0
   -2.2719    0.3380    0.0000 C   0  0  0  0  0  0  0  0  0
   -2.2719   -0.4870    0.0000 C   0  0  0  0  0  0  0  0  0
   -2.9863   -0.8995    0.0000 C   0  0  0  0  0  0  0  0  0
   -1.5574    0.7505    0.0000 C   0  0  0  0  0  0  0  0  0
   -1.5574    1.5755    0.0000 O   0  0  0  0  0  0  0  0  0
   -0.8429    0.3380    0.0000 N   0  0  0  0  0  0  0  0  0
   -0.1285    0.7505    0.0000 C   0  0  0  0  0  0  0  0  0
    0.5860    0.3380    0.0000 C   0  0  0  0  0  0  0  0  0
    0.5860   -0.4870    0.0000 N   0  0  0  0  0  0  0  0  0
   -0.1285   -0.8995    0.0000 C   0  0  0  0  0  0  0  0  0
   -0.8429   -0.4870    0.0000 C   0  0  0  0  0  0  0  0  0
    1.3005   -0.8995    0.0000 C   0  0  0  0  0  0  0  0  0
    2.0149   -0.4870    0.0000 C   0  0  0  0  0  0  0  0  0
    1.3005   -1.7245    0.0000 C   0  0  0  0  0  0  0  0  0
  1  2  1  0  0  0  0
  1  8  1  0  0  0  0
  2  3  4  0  0  0  0
  2  7  4  0  0  0  0
  3  4  4  0  0  0  0
  4  5  4  0  0  0  0
  5  6  4  0  0  0  0
  6  7  4  0  0  0  0
  8  9  4  0  0  0  0
  8 13  4  0  0  0  0
  9 10  4  0  0  0  0
 10 11  4  0  0  0  0
 11 12  4  0  0  0  0
 11 14  1  0  0  0  0
 12 13  4  0  0  0  0
 14 15  2  0  0  0  0
 14 16  1  0  0  0  0
 16 17  1  0  0  0  0
 16 21  1  0  0  0  0
 17 18  1  0  0  0  0
 18 19  1  0  0  0  0
 19 20  1  0  0  0  0
 19 22  1  0  0  0  0
 20 21  1  0  0  0  0
 22 23  1  0  0  0  0
 22 24  1  0  0  0  0
M  END
>  <Name_Molregno>
647924

>  <HISTAMINE H3>
6.59

$$$$
647925
  Marvin  02231216192D 0   1.00000     0.00000     0

 26 28  0  0  0  0  0  0  0  0999 V2000
   -3.9658    0.7513    0.0000 O   0  0  0  0  0  0  0  0  0
   -3.9658   -0.0737    0.0000 C   0  0  0  0  0  0  0  0  0
   -3.2513   -0.4862    0.0000 C   0  0  0  0  0  0  0  0  0
   -3.2513   -1.3112    0.0000 C   0  0  0  0  0  0  0  0  0
   -3.9658   -1.7237    0.0000 C   0  0  0  0  0  0  0  0  0
   -4.6803   -1.3112    0.0000 C   0  0  0  0  0  0  0  0  0
   -4.6803   -0.4862    0.0000 C   0  0  0  0  0  0  0  0  0
   -2.5369   -1.7237    0.0000 C   0  0  0  0  0  0  0  0  0
   -1.8224   -2.1362    0.0000 N   0  0  0  0  0  0  0  0  0
   -3.2513    1.1638    0.0000 C   0  0  0  0  0  0  0  0  0
   -3.2513    1.9888    0.0000 N   0  0  0  0  0  0  0  0  0
   -2.5369    2.4013    0.0000 C   0  0  0  0  0  0  0  0  0
   -1.8224    1.9888    0.0000 C   0  0  0  0  0  0  0  0  0
   -1.8224    1.1638    0.0000 C   0  0  0  0  0  0  0  0  0
   -2.5369    0.7513    0.0000 C   0  0  0  0  0  0  0  0  0
   -1.1079    2.4013    0.0000 C   0  0  0  0  0  0  0  0  0
   -1.1079    3.2263    0.0000 O   0  0  0  0  0  0  0  0  0
   -0.3934    1.9888    0.0000 N   0  0  0  0  0  0  0  0  0
    0.3210    2.4013    0.0000 C   0  0  0  0  0  0  0  0  0
    1.0355    1.9888    0.0000 C   0  0  0  0  0  0  0  0  0
    1.0355    1.1638    0.0000 N   0  0  0  0  0  0  0  0  0
    0.3210    0.7513    0.0000 C   0  0  0  0  0  0  0  0  0
   -0.3934    1.1638    0.0000 C   0  0  0  0  0  0  0  0  0
    1.7500    0.7513    0.0000 C   0  0  0  0  0  0  0  0  0
    2.4644    1.1638    0.0000 C   0  0  0  0  0  0  0  0  0
    1.7500   -0.0737    0.0000 C   0  0  0  0  0  0  0  0  0
  1  2  1  0  0  0  0
  1 10  1  0  0  0  0
  2  3  4  0  0  0  0
  2  7  4  0  0  0  0
  3  4  4  0  0  0  0
  4  5  4  0  0  0  0
  4  8  1  0  0  0  0
  5  6  4  0  0  0  0
  6  7  4  0  0  0  0
  8  9  3  0  0  0  0
 10 11  4  0  0  0  0
 10 15  4  0  0  0  0
 11 12  4  0  0  0  0
 12 13  4  0  0  0  0
 13 14  4  0  0  0  0
 13 16  1  0  0  0  0
 14 15  4  0  0  0  0
 16 17  2  0  0  0  0
 16 18  1  0  0  0  0
 18 19  1  0  0  0  0
 18 23  1  0  0  0  0
 19 20  1  0  0  0  0
 20 21  1  0  0  0  0
 21 22  1  0  0  0  0
 21 24  1  0  0  0  0
 22 23  1  0  0  0  0
 24 25  1  0  0  0  0
 24 26  1  0  0  0  0
M  END
>  <Name_Molregno>
647925

>  <HISTAMINE H3>
6.96

$$$$
647926
  Marvin  02231216192D 0   1.00000     0.00000     0

 25 27  0  0  0  0  0  0  0  0999 V2000
    6.9045    2.4778    0.0000 F   0  0  0  0  0  0  0  0  0
    6.9045    1.6528    0.0000 C   0  0  0  0  0  0  0  0  0
    7.6190    1.2403    0.0000 C   0  0  0  0  0  0  0  0  0
    7.6190    0.4153    0.0000 C   0  0  0  0  0  0  0  0  0
    6.9045    0.0028    0.0000 C   0  0  0  0  0  0  0  0  0
    6.9045   -0.8222    0.0000 O   0  0  0  0  0  0  0  0  0
    6.1900   -1.2347    0.0000 C   0  0  0  0  0  0  0  0  0
    6.1900   -2.0597    0.0000 N   0  0  0  0  0  0  0  0  0
    5.4756   -2.4722    0.0000 C   0  0  0  0  0  0  0  0  0
    4.7611   -2.0597    0.0000 C   0  0  0  0  0  0  0  0  0
    4.7611   -1.2347    0.0000 C   0  0  0  0  0  0  0  0  0
    5.4756   -0.8222    0.0000 C   0  0  0  0  0  0  0  0  0
    4.0466   -2.4722    0.0000 C   0  0  0  0  0  0  0  0  0
    4.0466   -3.2972    0.0000 O   0  0  0  0  0  0  0  0  0
    3.3321   -2.0597    0.0000 N   0  0  0  0  0  0  0  0  0
    2.6177   -2.4722    0.0000 C   0  0  0  0  0  0  0  0  0
    1.9032   -2.0597    0.0000 C   0  0  0  0  0  0  0  0  0
    1.9032   -1.2347    0.0000 N   0  0  0  0  0  0  0  0  0
    2.6177   -0.8222    0.0000 C   0  0  0  0  0  0  0  0  0
    3.3321   -1.2347    0.0000 C   0  0  0  0  0  0  0  0  0
    1.1887   -0.8222    0.0000 C   0  0  0  0  0  0  0  0  0
    0.4743   -1.2347    0.0000 C   0  0  0  0  0  0  0  0  0
    1.1887    0.0028    0.0000 C   0  0  0  0  0  0  0  0  0
    6.1900    0.4153    0.0000 C   0  0  0  0  0  0  0  0  0
    6.1900    1.2403    0.0000 C   0  0  0  0  0  0  0  0  0
  1  2  1  0  0  0  0
  2  3  4  0  0  0  0
  2 25  4  0  0  0  0
  3  4  4  0  0  0  0
  4  5  4  0  0  0  0
  5  6  1  0  0  0  0
  5 24  4  0  0  0  0
  6  7  1  0  0  0  0
  7  8  4  0  0  0  0
  7 12  4  0  0  0  0
  8  9  4  0  0  0  0
  9 10  4  0  0  0  0
 10 11  4  0  0  0  0
 10 13  1  0  0  0  0
 11 12  4  0  0  0  0
 13 14  2  0  0  0  0
 13 15  1  0  0  0  0
 15 16  1  0  0  0  0
 15 20  1  0  0  0  0
 16 17  1  0  0  0  0
 17 18  1  0  0  0  0
 18 19  1  0  0  0  0
 18 21  1  0  0  0  0
 19 20  1  0  0  0  0
 21 22  1  0  0  0  0
 21 23  1  0  0  0  0
 24 25  4  0  0  0  0
M  END
>  <Name_Molregno>
647926

>  <HISTAMINE H3>
7.1

$$$$
647927
  Marvin  02231216192D 0   1.00000     0.00000     0

 25 28  0  0  0  0  0  0  0  0999 V2000
    0.5890   -0.4311    0.0000 F   0  0  0  0  0  0  0  0  0
    1.3035   -0.0186    0.0000 C   0  0  0  0  0  0  0  0  0
    1.3035    0.8064    0.0000 C   0  0  0  0  0  0  0  0  0
    2.0179    1.2189    0.0000 C   0  0  0  0  0  0  0  0  0
    2.7324    0.8064    0.0000 C   0  0  0  0  0  0  0  0  0
    3.4469    1.2189    0.0000 O   0  0  0  0  0  0  0  0  0
    4.1613    0.8064    0.0000 C   0  0  0  0  0  0  0  0  0
    4.8758    1.2189    0.0000 N   0  0  0  0  0  0  0  0  0
    5.5903    0.8064    0.0000 C   0  0  0  0  0  0  0  0  0
    5.5903   -0.0186    0.0000 C   0  0  0  0  0  0  0  0  0
    4.8758   -0.4311    0.0000 C   0  0  0  0  0  0  0  0  0
    4.1613   -0.0186    0.0000 C   0  0  0  0  0  0  0  0  0
    6.3048   -0.4311    0.0000 C   0  0  0  0  0  0  0  0  0
    7.0192   -0.0186    0.0000 O   0  0  0  0  0  0  0  0  0
    6.3048   -1.2561    0.0000 N   0  0  0  0  0  0  0  0  0
    7.0192   -1.6686    0.0000 C   0  0  0  0  0  0  0  0  0
    7.0192   -2.4936    0.0000 C   0  0  0  0  0  0  0  0  0
    6.3048   -2.9061    0.0000 N   0  0  0  0  0  0  0  0  0
    5.5903   -2.4936    0.0000 C   0  0  0  0  0  0  0  0  0
    5.5903   -1.6686    0.0000 C   0  0  0  0  0  0  0  0  0
    6.3048   -3.7311    0.0000 C   0  0  0  0  0  0  0  0  0
    6.7173   -4.4456    0.0000 C   0  0  0  0  0  0  0  0  0
    5.8923   -4.4456    0.0000 C   0  0  0  0  0  0  0  0  0
    2.7324   -0.0186    0.0000 C   0  0  0  0  0  0  0  0  0
    2.0179   -0.4311    0.0000 C   0  0  0  0  0  0  0  0  0
  1  2  1  0  0  0  0
  2  3  4  0  0  0  0
  2 25  4  0  0  0  0
  3  4  4  0  0  0  0
  4  5  4  0  0  0  0
  5  6  1  0  0  0  0
  5 24  4  0  0  0  0
  6  7  1  0  0  0  0
  7  8  4  0  0  0  0
  7 12  4  0  0  0  0
  8  9  4  0  0  0  0
  9 10  4  0  0  0  0
 10 11  4  0  0  0  0
 10 13  1  0  0  0  0
 11 12  4  0  0  0  0
 13 14  2  0  0  0  0
 13 15  1  0  0  0  0
 15 16  1  0  0  0  0
 15 20  1  0  0  0  0
 16 17  1  0  0  0  0
 17 18  1  0  0  0  0
 18 19  1  0  0  0  0
 18 21  1  0  0  0  0
 19 20  1  0  0  0  0
 21 22  1  0  0  0  0
 21 23  1  0  0  0  0
 22 23  1  0  0  0  0
 24 25  4  0  0  0  0
M  END
>  <Name_Molregno>
647927

>  <HISTAMINE H3>
6.37

$$$$
647978
  Marvin  02231216192D 0   1.00000     0.00000     0

 25 27  0  0  0  0  0  0  0  0999 V2000
    6.9045    2.4778    0.0000 Cl  0  0  0  0  0  0  0  0  0
    6.9045    1.6528    0.0000 C   0  0  0  0  0  0  0  0  0
    7.6190    1.2403    0.0000 C   0  0  0  0  0  0  0  0  0
    7.6190    0.4153    0.0000 C   0  0  0  0  0  0  0  0  0
    6.9045    0.0028    0.0000 C   0  0  0  0  0  0  0  0  0
    6.9045   -0.8222    0.0000 O   0  0  0  0  0  0  0  0  0
    6.1900   -1.2347    0.0000 C   0  0  0  0  0  0  0  0  0
    6.1900   -2.0597    0.0000 N   0  0  0  0  0  0  0  0  0
    5.4756   -2.4722    0.0000 C   0  0  0  0  0  0  0  0  0
    4.7611   -2.0597    0.0000 C   0  0  0  0  0  0  0  0  0
    4.7611   -1.2347    0.0000 C   0  0  0  0  0  0  0  0  0
    5.4756   -0.8222    0.0000 C   0  0  0  0  0  0  0  0  0
    4.0466   -2.4722    0.0000 C   0  0  0  0  0  0  0  0  0
    4.0466   -3.2972    0.0000 O   0  0  0  0  0  0  0  0  0
    3.3321   -2.0597    0.0000 N   0  0  0  0  0  0  0  0  0
    2.6177   -2.4722    0.0000 C   0  0  0  0  0  0  0  0  0
    1.9032   -2.0597    0.0000 C   0  0  0  0  0  0  0  0  0
    1.9032   -1.2347    0.0000 N   0  0  0  0  0  0  0  0  0
    2.6177   -0.8222    0.0000 C   0  0  0  0  0  0  0  0  0
    3.3321   -1.2347    0.0000 C   0  0  0  0  0  0  0  0  0
    1.1887   -0.8222    0.0000 C   0  0  0  0  0  0  0  0  0
    0.4743   -1.2347    0.0000 C   0  0  0  0  0  0  0  0  0
    1.1887    0.0028    0.0000 C   0  0  0  0  0  0  0  0  0
    6.1900    0.4153    0.0000 C   0  0  0  0  0  0  0  0  0
    6.1900    1.2403    0.0000 C   0  0  0  0  0  0  0  0  0
  1  2  1  0  0  0  0
  2  3  4  0  0  0  0
  2 25  4  0  0  0  0
  3  4  4  0  0  0  0
  4  5  4  0  0  0  0
  5  6  1  0  0  0  0
  5 24  4  0  0  0  0
  6  7  1  0  0  0  0
  7  8  4  0  0  0  0
  7 12  4  0  0  0  0
  8  9  4  0  0  0  0
  9 10  4  0  0  0  0
 10 11  4  0  0  0  0
 10 13  1  0  0  0  0
 11 12  4  0  0  0  0
 13 14  2  0  0  0  0
 13 15  1  0  0  0  0
 15 16  1  0  0  0  0
 15 20  1  0  0  0  0
 16 17  1  0  0  0  0
 17 18  1  0  0  0  0
 18 19  1  0  0  0  0
 18 21  1  0  0  0  0
 19 20  1  0  0  0  0
 21 22  1  0  0  0  0
 21 23  1  0  0  0  0
 24 25  4  0  0  0  0
M  END
>  <Name_Molregno>
647978

>  <HISTAMINE H3>
7.14

$$$$
647979
  Marvin  02231216192D 0   1.00000     0.00000     0

 25 27  0  0  0  0  0  0  0  0999 V2000
    4.2478    5.1927    0.0000 Cl  0  0  0  0  0  0  0  0  0
    4.2478    4.3677    0.0000 C   0  0  0  0  0  0  0  0  0
    4.9623    3.9552    0.0000 C   0  0  0  0  0  0  0  0  0
    4.9623    3.1302    0.0000 C   0  0  0  0  0  0  0  0  0
    5.6767    2.7177    0.0000 O   0  0  0  0  0  0  0  0  0
    5.6767    1.8927    0.0000 C   0  0  0  0  0  0  0  0  0
    6.3912    1.4802    0.0000 N   0  0  0  0  0  0  0  0  0
    6.3912    0.6552    0.0000 C   0  0  0  0  0  0  0  0  0
    5.6767    0.2427    0.0000 C   0  0  0  0  0  0  0  0  0
    4.9623    0.6552    0.0000 C   0  0  0  0  0  0  0  0  0
    4.9623    1.4802    0.0000 C   0  0  0  0  0  0  0  0  0
    5.6767   -0.5823    0.0000 C   0  0  0  0  0  0  0  0  0
    6.3912   -0.9948    0.0000 O   0  0  0  0  0  0  0  0  0
    4.9623   -0.9948    0.0000 N   0  0  0  0  0  0  0  0  0
    4.9623   -1.8198    0.0000 C   0  0  0  0  0  0  0  0  0
    4.2478   -2.2323    0.0000 C   0  0  0  0  0  0  0  0  0
    3.5333   -1.8198    0.0000 N   0  0  0  0  0  0  0  0  0
    3.5333   -0.9948    0.0000 C   0  0  0  0  0  0  0  0  0
    4.2478   -0.5823    0.0000 C   0  0  0  0  0  0  0  0  0
    2.8188   -2.2323    0.0000 C   0  0  0  0  0  0  0  0  0
    2.8188   -3.0573    0.0000 C   0  0  0  0  0  0  0  0  0
    2.1044   -1.8198    0.0000 C   0  0  0  0  0  0  0  0  0
    4.2478    2.7177    0.0000 C   0  0  0  0  0  0  0  0  0
    3.5333    3.1302    0.0000 C   0  0  0  0  0  0  0  0  0
    3.5333    3.9552    0.0000 C   0  0  0  0  0  0  0  0  0
  1  2  1  0  0  0  0
  2  3  4  0  0  0  0
  2 25  4  0  0  0  0
  3  4  4  0  0  0  0
  4  5  1  0  0  0  0
  4 23  4  0  0  0  0
  5  6  1  0  0  0  0
  6  7  4  0  0  0  0
  6 11  4  0  0  0  0
  7  8  4  0  0  0  0
  8  9  4  0  0  0  0
  9 10  4  0  0  0  0
  9 12  1  0  0  0  0
 10 11  4  0  0  0  0
 12 13  2  0  0  0  0
 12 14  1  0  0  0  0
 14 15  1  0  0  0  0
 14 19  1  0  0  0  0
 15 16  1  0  0  0  0
 16 17  1  0  0  0  0
 17 18  1  0  0  0  0
 17 20  1  0  0  0  0
 18 19  1  0  0  0  0
 20 21  1  0  0  0  0
 20 22  1  0  0  0  0
 23 24  4  0  0  0  0
 24 25  4  0  0  0  0
M  END
>  <Name_Molregno>
647979

>  <HISTAMINE H3>
7

$$$$
647980
  Marvin  02231216192D 0   1.00000     0.00000     0

 25 27  0  0  0  0  0  0  0  0999 V2000
    2.4332   -4.1977    0.0000 Cl  0  0  0  0  0  0  0  0  0
    2.4332   -5.0227    0.0000 C   0  0  0  0  0  0  0  0  0
    3.1477   -5.4352    0.0000 C   0  0  0  0  0  0  0  0  0
    3.1477   -6.2602    0.0000 C   0  0  0  0  0  0  0  0  0
    2.4332   -6.6727    0.0000 C   0  0  0  0  0  0  0  0  0
    1.7187   -6.2602    0.0000 C   0  0  0  0  0  0  0  0  0
    1.7187   -5.4352    0.0000 C   0  0  0  0  0  0  0  0  0
    1.0043   -5.0227    0.0000 O   0  0  0  0  0  0  0  0  0
    1.0043   -4.1977    0.0000 C   0  0  0  0  0  0  0  0  0
    0.2898   -3.7852    0.0000 N   0  0  0  0  0  0  0  0  0
    0.2898   -2.9602    0.0000 C   0  0  0  0  0  0  0  0  0
    1.0043   -2.5477    0.0000 C   0  0  0  0  0  0  0  0  0
    1.7187   -2.9602    0.0000 C   0  0  0  0  0  0  0  0  0
    1.7187   -3.7852    0.0000 C   0  0  0  0  0  0  0  0  0
    1.0043   -1.7227    0.0000 C   0  0  0  0  0  0  0  0  0
    0.2898   -1.3102    0.0000 O   0  0  0  0  0  0  0  0  0
    1.7187   -1.3102    0.0000 N   0  0  0  0  0  0  0  0  0
    1.7187   -0.4852    0.0000 C   0  0  0  0  0  0  0  0  0
    2.4332   -0.0727    0.0000 C   0  0  0  0  0  0  0  0  0
    3.1477   -0.4852    0.0000 N   0  0  0  0  0  0  0  0  0
    3.1477   -1.3102    0.0000 C   0  0  0  0  0  0  0  0  0
    2.4332   -1.7227    0.0000 C   0  0  0  0  0  0  0  0  0
    3.8621   -0.0727    0.0000 C   0  0  0  0  0  0  0  0  0
    3.8621    0.7523    0.0000 C   0  0  0  0  0  0  0  0  0
    4.5766   -0.4852    0.0000 C   0  0  0  0  0  0  0  0  0
  1  2  1  0  0  0  0
  2  3  4  0  0  0  0
  2  7  4  0  0  0  0
  3  4  4  0  0  0  0
  4  5  4  0  0  0  0
  5  6  4  0  0  0  0
  6  7  4  0  0  0  0
  7  8  1  0  0  0  0
  8  9  1  0  0  0  0
  9 10  4  0  0  0  0
  9 14  4  0  0  0  0
 10 11  4  0  0  0  0
 11 12  4  0  0  0  0
 12 13  4  0  0  0  0
 12 15  1  0  0  0  0
 13 14  4  0  0  0  0
 15 16  2  0  0  0  0
 15 17  1  0  0  0  0
 17 18  1  0  0  0  0
 17 22  1  0  0  0  0
 18 19  1  0  0  0  0
 19 20  1  0  0  0  0
 20 21  1  0  0  0  0
 20 23  1  0  0  0  0
 21 22  1  0  0  0  0
 23 24  1  0  0  0  0
 23 25  1  0  0  0  0
M  END
>  <Name_Molregno>
647980

>  <HISTAMINE H3>
7.51

$$$$
647981
  Marvin  02231216192D 0   1.00000     0.00000     0

 27 30  0  0  0  0  0  0  0  0999 V2000
   -3.8315   -2.3541    0.0000 Cl  0  0  0  0  0  0  0  0  0
   -4.5460   -1.9416    0.0000 C   0  0  0  0  0  0  0  0  0
   -5.2604   -2.3541    0.0000 C   0  0  0  0  0  0  0  0  0
   -5.9749   -1.9416    0.0000 C   0  0  0  0  0  0  0  0  0
   -5.9749   -1.1166    0.0000 C   0  0  0  0  0  0  0  0  0
   -5.2604   -0.7041    0.0000 C   0  0  0  0  0  0  0  0  0
   -4.5460   -1.1166    0.0000 C   0  0  0  0  0  0  0  0  0
   -3.8315   -0.7041    0.0000 O   0  0  0  0  0  0  0  0  0
   -3.1170   -1.1166    0.0000 C   0  0  0  0  0  0  0  0  0
   -2.4025   -0.7041    0.0000 N   0  0  0  0  0  0  0  0  0
   -1.6881   -1.1166    0.0000 C   0  0  0  0  0  0  0  0  0
   -1.6881   -1.9416    0.0000 C   0  0  0  0  0  0  0  0  0
   -2.4025   -2.3541    0.0000 C   0  0  0  0  0  0  0  0  0
   -3.1170   -1.9416    0.0000 C   0  0  0  0  0  0  0  0  0
   -0.9736   -2.3541    0.0000 C   0  0  0  0  0  0  0  0  0
   -0.2591   -1.9416    0.0000 O   0  0  0  0  0  0  0  0  0
   -0.9736   -3.1791    0.0000 N   0  0  0  0  0  0  0  0  0
   -0.2591   -3.5916    0.0000 C   0  0  0  0  0  0  0  0  0
   -0.2591   -4.4166    0.0000 C   0  0  0  0  0  0  0  0  0
   -0.9736   -4.8291    0.0000 N   0  0  0  0  0  0  0  0  0
   -1.6881   -4.4166    0.0000 C   0  0  0  0  0  0  0  0  0
   -1.6881   -3.5916    0.0000 C   0  0  0  0  0  0  0  0  0
   -0.9736   -5.6541    0.0000 C   0  0  0  0  0  0  0  0  0
   -0.3062   -6.1391    0.0000 C   0  0  0  0  0  0  0  0  0
   -0.5611   -6.9237    0.0000 C   0  0  0  0  0  0  0  0  0
   -1.3861   -6.9237    0.0000 C   0  0  0  0  0  0  0  0  0
   -1.6410   -6.1391    0.0000 C   0  0  0  0  0  0  0  0  0
  1  2  1  0  0  0  0
  2  3  4  0  0  0  0
  2  7  4  0  0  0  0
  3  4  4  0  0  0  0
  4  5  4  0  0  0  0
  5  6  4  0  0  0  0
  6  7  4  0  0  0  0
  7  8  1  0  0  0  0
  8  9  1  0  0  0  0
  9 10  4  0  0  0  0
  9 14  4  0  0  0  0
 10 11  4  0  0  0  0
 11 12  4  0  0  0  0
 12 13  4  0  0  0  0
 12 15  1  0  0  0  0
 13 14  4  0  0  0  0
 15 16  2  0  0  0  0
 15 17  1  0  0  0  0
 17 18  1  0  0  0  0
 17 22  1  0  0  0  0
 18 19  1  0  0  0  0
 19 20  1  0  0  0  0
 20 21  1  0  0  0  0
 20 23  1  0  0  0  0
 21 22  1  0  0  0  0
 23 24  1  0  0  0  0
 23 27  1  0  0  0  0
 24 25  1  0  0  0  0
 25 26  1  0  0  0  0
 26 27  1  0  0  0  0
M  END
>  <Name_Molregno>
647981

>  <HISTAMINE H3>
7.4

$$$$
647982
  Marvin  02231216192D 0   1.00000     0.00000     0

 23 25  0  0  0  0  0  0  0  0999 V2000
    6.1678    4.0640    0.0000 F   0  0  0  0  0  0  0  0  0
    6.1678    3.2390    0.0000 C   0  0  0  0  0  0  0  0  0
    6.8823    2.8265    0.0000 C   0  0  0  0  0  0  0  0  0
    6.8823    2.0015    0.0000 C   0  0  0  0  0  0  0  0  0
    6.1678    1.5890    0.0000 C   0  0  0  0  0  0  0  0  0
    6.1678    0.7640    0.0000 O   0  0  0  0  0  0  0  0  0
    5.4533    0.3515    0.0000 C   0  0  0  0  0  0  0  0  0
    5.4533   -0.4735    0.0000 N   0  0  0  0  0  0  0  0  0
    4.7388   -0.8860    0.0000 C   0  0  0  0  0  0  0  0  0
    4.0244   -0.4735    0.0000 C   0  0  0  0  0  0  0  0  0
    4.0244    0.3515    0.0000 C   0  0  0  0  0  0  0  0  0
    4.7388    0.7640    0.0000 C   0  0  0  0  0  0  0  0  0
    3.3099   -0.8860    0.0000 C   0  0  0  0  0  0  0  0  0
    3.3099   -1.7110    0.0000 O   0  0  0  0  0  0  0  0  0
    2.5954   -0.4735    0.0000 N   0  0  0  0  0  0  0  0  0
    1.9138   -0.9383    0.0000 C   0  0  0  0  0  0  0  0  0
    1.1254   -0.6951    0.0000 C   0  0  0  0  0  0  0  0  0
    0.8240    0.0729    0.0000 C   0  0  0  0  0  0  0  0  0
    1.2365    0.7873    0.0000 N   0  0  0  0  0  0  0  0  0
    2.0523    0.9103    0.0000 C   0  0  0  0  0  0  0  0  0
    2.6571    0.3492    0.0000 C   0  0  0  0  0  0  0  0  0
    5.4533    2.0015    0.0000 C   0  0  0  0  0  0  0  0  0
    5.4533    2.8265    0.0000 C   0  0  0  0  0  0  0  0  0
  1  2  1  0  0  0  0
  2  3  4  0  0  0  0
  2 23  4  0  0  0  0
  3  4  4  0  0  0  0
  4  5  4  0  0  0  0
  5  6  1  0  0  0  0
  5 22  4  0  0  0  0
  6  7  1  0  0  0  0
  7  8  4  0  0  0  0
  7 12  4  0  0  0  0
  8  9  4  0  0  0  0
  9 10  4  0  0  0  0
 10 11  4  0  0  0  0
 10 13  1  0  0  0  0
 11 12  4  0  0  0  0
 13 14  2  0  0  0  0
 13 15  1  0  0  0  0
 15 16  1  0  0  0  0
 15 21  1  0  0  0  0
 16 17  1  0  0  0  0
 17 18  1  0  0  0  0
 18 19  1  0  0  0  0
 19 20  1  0  0  0  0
 20 21  1  0  0  0  0
 22 23  4  0  0  0  0
M  END
>  <Name_Molregno>
647982

>  <HISTAMINE H3>
5.05

$$$$
648035
  Marvin  02231216192D 0   1.00000     0.00000     0

 24 26  0  0  0  0  0  0  0  0999 V2000
    6.0027    5.0483    0.0000 F   0  0  0  0  0  0  0  0  0
    6.0027    4.2233    0.0000 C   0  0  0  0  0  0  0  0  0
    6.7171    3.8108    0.0000 C   0  0  0  0  0  0  0  0  0
    6.7171    2.9858    0.0000 C   0  0  0  0  0  0  0  0  0
    6.0027    2.5733    0.0000 C   0  0  0  0  0  0  0  0  0
    6.0027    1.7483    0.0000 O   0  0  0  0  0  0  0  0  0
    5.2882    1.3358    0.0000 C   0  0  0  0  0  0  0  0  0
    5.2882    0.5108    0.0000 N   0  0  0  0  0  0  0  0  0
    4.5737    0.0983    0.0000 C   0  0  0  0  0  0  0  0  0
    3.8592    0.5108    0.0000 C   0  0  0  0  0  0  0  0  0
    3.8592    1.3358    0.0000 C   0  0  0  0  0  0  0  0  0
    4.5737    1.7483    0.0000 C   0  0  0  0  0  0  0  0  0
    3.1448    0.0983    0.0000 C   0  0  0  0  0  0  0  0  0
    2.4303    0.5108    0.0000 O   0  0  0  0  0  0  0  0  0
    3.1448   -0.7267    0.0000 N   0  0  0  0  0  0  0  0  0
    3.8881   -1.0846    0.0000 C   0  0  0  0  0  0  0  0  0
    4.0717   -1.8889    0.0000 C   0  0  0  0  0  0  0  0  0
    3.5573   -2.5339    0.0000 C   0  0  0  0  0  0  0  0  0
    2.7323   -2.5339    0.0000 N   0  0  0  0  0  0  0  0  0
    2.2179   -1.8889    0.0000 C   0  0  0  0  0  0  0  0  0
    2.4015   -1.0846    0.0000 C   0  0  0  0  0  0  0  0  0
    2.3743   -3.2772    0.0000 C   0  0  0  0  0  0  0  0  0
    5.2882    2.9858    0.0000 C   0  0  0  0  0  0  0  0  0
    5.2882    3.8108    0.0000 C   0  0  0  0  0  0  0  0  0
  1  2  1  0  0  0  0
  2  3  4  0  0  0  0
  2 24  4  0  0  0  0
  3  4  4  0  0  0  0
  4  5  4  0  0  0  0
  5  6  1  0  0  0  0
  5 23  4  0  0  0  0
  6  7  1  0  0  0  0
  7  8  4  0  0  0  0
  7 12  4  0  0  0  0
  8  9  4  0  0  0  0
  9 10  4  0  0  0  0
 10 11  4  0  0  0  0
 10 13  1  0  0  0  0
 11 12  4  0  0  0  0
 13 14  2  0  0  0  0
 13 15  1  0  0  0  0
 15 16  1  0  0  0  0
 15 21  1  0  0  0  0
 16 17  1  0  0  0  0
 17 18  1  0  0  0  0
 18 19  1  0  0  0  0
 19 20  1  0  0  0  0
 19 22  1  0  0  0  0
 20 21  1  0  0  0  0
 23 24  4  0  0  0  0
M  END
>  <Name_Molregno>
648035

>  <HISTAMINE H3>
6.07

$$$$
648036
  Marvin  02231216192D 0   1.00000     0.00000     0

 25 27  0  0  0  0  0  0  0  0999 V2000
    6.2610    5.2387    0.0000 F   0  0  0  0  0  0  0  0  0
    6.2610    4.4137    0.0000 C   0  0  0  0  0  0  0  0  0
    6.9755    4.0012    0.0000 C   0  0  0  0  0  0  0  0  0
    6.9755    3.1762    0.0000 C   0  0  0  0  0  0  0  0  0
    6.2610    2.7637    0.0000 C   0  0  0  0  0  0  0  0  0
    6.2610    1.9387    0.0000 O   0  0  0  0  0  0  0  0  0
    5.5465    1.5262    0.0000 C   0  0  0  0  0  0  0  0  0
    5.5465    0.7012    0.0000 N   0  0  0  0  0  0  0  0  0
    4.8320    0.2887    0.0000 C   0  0  0  0  0  0  0  0  0
    4.1176    0.7012    0.0000 C   0  0  0  0  0  0  0  0  0
    4.1176    1.5262    0.0000 C   0  0  0  0  0  0  0  0  0
    4.8320    1.9387    0.0000 C   0  0  0  0  0  0  0  0  0
    3.4031    0.2887    0.0000 C   0  0  0  0  0  0  0  0  0
    2.6886    0.7012    0.0000 O   0  0  0  0  0  0  0  0  0
    3.4031   -0.5363    0.0000 N   0  0  0  0  0  0  0  0  0
    4.1464   -0.8942    0.0000 C   0  0  0  0  0  0  0  0  0
    4.3300   -1.6986    0.0000 C   0  0  0  0  0  0  0  0  0
    3.8156   -2.3436    0.0000 C   0  0  0  0  0  0  0  0  0
    2.9906   -2.3436    0.0000 N   0  0  0  0  0  0  0  0  0
    2.4762   -1.6986    0.0000 C   0  0  0  0  0  0  0  0  0
    2.6598   -0.8942    0.0000 C   0  0  0  0  0  0  0  0  0
    2.6327   -3.0869    0.0000 C   0  0  0  0  0  0  0  0  0
    3.0974   -3.7685    0.0000 C   0  0  0  0  0  0  0  0  0
    5.5465    3.1762    0.0000 C   0  0  0  0  0  0  0  0  0
    5.5465    4.0012    0.0000 C   0  0  0  0  0  0  0  0  0
  1  2  1  0  0  0  0
  2  3  4  0  0  0  0
  2 25  4  0  0  0  0
  3  4  4  0  0  0  0
  4  5  4  0  0  0  0
  5  6  1  0  0  0  0
  5 24  4  0  0  0  0
  6  7  1  0  0  0  0
  7  8  4  0  0  0  0
  7 12  4  0  0  0  0
  8  9  4  0  0  0  0
  9 10  4  0  0  0  0
 10 11  4  0  0  0  0
 10 13  1  0  0  0  0
 11 12  4  0  0  0  0
 13 14  2  0  0  0  0
 13 15  1  0  0  0  0
 15 16  1  0  0  0  0
 15 21  1  0  0  0  0
 16 17  1  0  0  0  0
 17 18  1  0  0  0  0
 18 19  1  0  0  0  0
 19 20  1  0  0  0  0
 19 22  1  0  0  0  0
 20 21  1  0  0  0  0
 22 23  1  0  0  0  0
 24 25  4  0  0  0  0
M  END
>  <Name_Molregno>
648036

>  <HISTAMINE H3>
7.47

$$$$
648037
  Marvin  02231216192D 0   1.00000     0.00000     0

 26 29  0  0  0  0  0  0  0  0999 V2000
    4.3900    5.6900    0.0000 F   0  0  0  0  0  0  0  0  0
    4.7479    4.9467    0.0000 C   0  0  0  0  0  0  0  0  0
    5.5706    4.8850    0.0000 C   0  0  0  0  0  0  0  0  0
    5.9286    4.1417    0.0000 C   0  0  0  0  0  0  0  0  0
    5.4638    3.4601    0.0000 C   0  0  0  0  0  0  0  0  0
    5.8218    2.7168    0.0000 O   0  0  0  0  0  0  0  0  0
    5.3570    2.0351    0.0000 C   0  0  0  0  0  0  0  0  0
    5.7150    1.2918    0.0000 N   0  0  0  0  0  0  0  0  0
    5.2503    0.6102    0.0000 C   0  0  0  0  0  0  0  0  0
    4.4276    0.6719    0.0000 C   0  0  0  0  0  0  0  0  0
    4.0696    1.4152    0.0000 C   0  0  0  0  0  0  0  0  0
    4.5344    2.0968    0.0000 C   0  0  0  0  0  0  0  0  0
    3.9628   -0.0098    0.0000 C   0  0  0  0  0  0  0  0  0
    3.1401    0.0519    0.0000 O   0  0  0  0  0  0  0  0  0
    4.3208   -0.7531    0.0000 N   0  0  0  0  0  0  0  0  0
    5.1458   -0.7531    0.0000 C   0  0  0  0  0  0  0  0  0
    5.6602   -1.3981    0.0000 C   0  0  0  0  0  0  0  0  0
    5.4766   -2.2024    0.0000 C   0  0  0  0  0  0  0  0  0
    4.7333   -2.5604    0.0000 N   0  0  0  0  0  0  0  0  0
    3.9900   -2.2024    0.0000 C   0  0  0  0  0  0  0  0  0
    3.8064   -1.3981    0.0000 C   0  0  0  0  0  0  0  0  0
    4.7333   -3.3854    0.0000 C   0  0  0  0  0  0  0  0  0
    5.1458   -4.0998    0.0000 C   0  0  0  0  0  0  0  0  0
    4.3208   -4.0998    0.0000 C   0  0  0  0  0  0  0  0  0
    4.6411    3.5217    0.0000 C   0  0  0  0  0  0  0  0  0
    4.2832    4.2650    0.0000 C   0  0  0  0  0  0  0  0  0
  1  2  1  0  0  0  0
  2  3  4  0  0  0  0
  2 26  4  0  0  0  0
  3  4  4  0  0  0  0
  4  5  4  0  0  0  0
  5  6  1  0  0  0  0
  5 25  4  0  0  0  0
  6  7  1  0  0  0  0
  7  8  4  0  0  0  0
  7 12  4  0  0  0  0
  8  9  4  0  0  0  0
  9 10  4  0  0  0  0
 10 11  4  0  0  0  0
 10 13  1  0  0  0  0
 11 12  4  0  0  0  0
 13 14  2  0  0  0  0
 13 15  1  0  0  0  0
 15 16  1  0  0  0  0
 15 21  1  0  0  0  0
 16 17  1  0  0  0  0
 17 18  1  0  0  0  0
 18 19  1  0  0  0  0
 19 20  1  0  0  0  0
 19 22  1  0  0  0  0
 20 21  1  0  0  0  0
 22 23  1  0  0  0  0
 22 24  1  0  0  0  0
 23 24  1  0  0  0  0
 25 26  4  0  0  0  0
M  END
>  <Name_Molregno>
648037

>  <HISTAMINE H3>
7.6

$$$$
648038
  Marvin  02231216192D 0   1.00000     0.00000     0

 26 29  0  0  0  0  0  0  0  0999 V2000
    5.9684    5.6344    0.0000 F   0  0  0  0  0  0  0  0  0
    5.5037    4.9527    0.0000 C   0  0  0  0  0  0  0  0  0
    5.8617    4.2094    0.0000 C   0  0  0  0  0  0  0  0  0
    5.3969    3.5278    0.0000 C   0  0  0  0  0  0  0  0  0
    5.7549    2.7845    0.0000 O   0  0  0  0  0  0  0  0  0
    5.2901    2.1028    0.0000 C   0  0  0  0  0  0  0  0  0
    5.6481    1.3595    0.0000 N   0  0  0  0  0  0  0  0  0
    5.1833    0.6779    0.0000 C   0  0  0  0  0  0  0  0  0
    4.3607    0.7395    0.0000 C   0  0  0  0  0  0  0  0  0
    4.0027    1.4828    0.0000 C   0  0  0  0  0  0  0  0  0
    4.4674    2.1645    0.0000 C   0  0  0  0  0  0  0  0  0
    3.8959    0.0579    0.0000 C   0  0  0  0  0  0  0  0  0
    3.0732    0.1195    0.0000 O   0  0  0  0  0  0  0  0  0
    4.2539   -0.6854    0.0000 N   0  0  0  0  0  0  0  0  0
    5.0789   -0.6854    0.0000 C   0  0  0  0  0  0  0  0  0
    5.5932   -1.3304    0.0000 C   0  0  0  0  0  0  0  0  0
    5.4097   -2.1348    0.0000 C   0  0  0  0  0  0  0  0  0
    4.6664   -2.4927    0.0000 N   0  0  0  0  0  0  0  0  0
    3.9231   -2.1348    0.0000 C   0  0  0  0  0  0  0  0  0
    3.7395   -1.3304    0.0000 C   0  0  0  0  0  0  0  0  0
    4.6664   -3.3177    0.0000 C   0  0  0  0  0  0  0  0  0
    5.0789   -4.0322    0.0000 C   0  0  0  0  0  0  0  0  0
    4.2539   -4.0322    0.0000 C   0  0  0  0  0  0  0  0  0
    4.5742    3.5894    0.0000 C   0  0  0  0  0  0  0  0  0
    4.2163    4.3327    0.0000 C   0  0  0  0  0  0  0  0  0
    4.6810    5.0144    0.0000 C   0  0  0  0  0  0  0  0  0
  1  2  1  0  0  0  0
  2  3  4  0  0  0  0
  2 26  4  0  0  0  0
  3  4  4  0  0  0  0
  4  5  1  0  0  0  0
  4 24  4  0  0  0  0
  5  6  1  0  0  0  0
  6  7  4  0  0  0  0
  6 11  4  0  0  0  0
  7  8  4  0  0  0  0
  8  9  4  0  0  0  0
  9 10  4  0  0  0  0
  9 12  1  0  0  0  0
 10 11  4  0  0  0  0
 12 13  2  0  0  0  0
 12 14  1  0  0  0  0
 14 15  1  0  0  0  0
 14 20  1  0  0  0  0
 15 16  1  0  0  0  0
 16 17  1  0  0  0  0
 17 18  1  0  0  0  0
 18 19  1  0  0  0  0
 18 21  1  0  0  0  0
 19 20  1  0  0  0  0
 21 22  1  0  0  0  0
 21 23  1  0  0  0  0
 22 23  1  0  0  0  0
 24 25  4  0  0  0  0
 25 26  4  0  0  0  0
M  END
>  <Name_Molregno>
648038

>  <HISTAMINE H3>
7.8

$$$$
648039
  Marvin  02231216192D 0   1.00000     0.00000     0

 27 30  0  0  0  0  0  0  0  0999 V2000
    6.1480    5.8466    0.0000 F   0  0  0  0  0  0  0  0  0
    5.6832    5.1650    0.0000 C   0  0  0  0  0  0  0  0  0
    6.0412    4.4217    0.0000 C   0  0  0  0  0  0  0  0  0
    5.5765    3.7400    0.0000 C   0  0  0  0  0  0  0  0  0
    5.9344    2.9967    0.0000 O   0  0  0  0  0  0  0  0  0
    5.4697    2.3151    0.0000 C   0  0  0  0  0  0  0  0  0
    5.8276    1.5718    0.0000 N   0  0  0  0  0  0  0  0  0
    5.3629    0.8901    0.0000 C   0  0  0  0  0  0  0  0  0
    4.5402    0.9518    0.0000 C   0  0  0  0  0  0  0  0  0
    4.1822    1.6951    0.0000 C   0  0  0  0  0  0  0  0  0
    4.6470    2.3767    0.0000 C   0  0  0  0  0  0  0  0  0
    4.0754    0.2701    0.0000 C   0  0  0  0  0  0  0  0  0
    3.2528    0.3318    0.0000 O   0  0  0  0  0  0  0  0  0
    4.4334   -0.4732    0.0000 N   0  0  0  0  0  0  0  0  0
    5.2584   -0.4732    0.0000 C   0  0  0  0  0  0  0  0  0
    5.7728   -1.1182    0.0000 C   0  0  0  0  0  0  0  0  0
    5.5892   -1.9225    0.0000 C   0  0  0  0  0  0  0  0  0
    4.8459   -2.2805    0.0000 N   0  0  0  0  0  0  0  0  0
    4.1026   -1.9225    0.0000 C   0  0  0  0  0  0  0  0  0
    3.9190   -1.1182    0.0000 C   0  0  0  0  0  0  0  0  0
    4.8459   -3.1055    0.0000 C   0  0  0  0  0  0  0  0  0
    5.4293   -3.6888    0.0000 C   0  0  0  0  0  0  0  0  0
    4.8459   -4.2722    0.0000 C   0  0  0  0  0  0  0  0  0
    4.2625   -3.6888    0.0000 C   0  0  0  0  0  0  0  0  0
    4.7538    3.8017    0.0000 C   0  0  0  0  0  0  0  0  0
    4.3958    4.5450    0.0000 C   0  0  0  0  0  0  0  0  0
    4.8605    5.2266    0.0000 C   0  0  0  0  0  0  0  0  0
  1  2  1  0  0  0  0
  2  3  4  0  0  0  0
  2 27  4  0  0  0  0
  3  4  4  0  0  0  0
  4  5  1  0  0  0  0
  4 25  4  0  0  0  0
  5  6  1  0  0  0  0
  6  7  4  0  0  0  0
  6 11  4  0  0  0  0
  7  8  4  0  0  0  0
  8  9  4  0  0  0  0
  9 10  4  0  0  0  0
  9 12  1  0  0  0  0
 10 11  4  0  0  0  0
 12 13  2  0  0  0  0
 12 14  1  0  0  0  0
 14 15  1  0  0  0  0
 14 20  1  0  0  0  0
 15 16  1  0  0  0  0
 16 17  1  0  0  0  0
 17 18  1  0  0  0  0
 18 19  1  0  0  0  0
 18 21  1  0  0  0  0
 19 20  1  0  0  0  0
 21 22  1  0  0  0  0
 21 24  1  0  0  0  0
 22 23  1  0  0  0  0
 23 24  1  0  0  0  0
 25 26  4  0  0  0  0
 26 27  4  0  0  0  0
M  END
>  <Name_Molregno>
648039

>  <HISTAMINE H3>
8.39

$$$$
648105
  Marvin  02231216192D 0   1.00000     0.00000     0

 27 30  0  0  0  0  0  0  0  0999 V2000
    4.5628    5.9518    0.0000 F   0  0  0  0  0  0  0  0  0
    4.9208    5.2085    0.0000 C   0  0  0  0  0  0  0  0  0
    5.7435    5.1468    0.0000 C   0  0  0  0  0  0  0  0  0
    6.1014    4.4035    0.0000 C   0  0  0  0  0  0  0  0  0
    5.6367    3.7219    0.0000 C   0  0  0  0  0  0  0  0  0
    5.9946    2.9786    0.0000 O   0  0  0  0  0  0  0  0  0
    5.5299    2.2969    0.0000 C   0  0  0  0  0  0  0  0  0
    5.8878    1.5536    0.0000 N   0  0  0  0  0  0  0  0  0
    5.4231    0.8720    0.0000 C   0  0  0  0  0  0  0  0  0
    4.6004    0.9336    0.0000 C   0  0  0  0  0  0  0  0  0
    4.2425    1.6769    0.0000 C   0  0  0  0  0  0  0  0  0
    4.7072    2.3586    0.0000 C   0  0  0  0  0  0  0  0  0
    4.1357    0.2520    0.0000 C   0  0  0  0  0  0  0  0  0
    3.3130    0.3136    0.0000 O   0  0  0  0  0  0  0  0  0
    4.4936   -0.4913    0.0000 N   0  0  0  0  0  0  0  0  0
    5.3186   -0.4913    0.0000 C   0  0  0  0  0  0  0  0  0
    5.8330   -1.1363    0.0000 C   0  0  0  0  0  0  0  0  0
    5.6494   -1.9406    0.0000 C   0  0  0  0  0  0  0  0  0
    4.9061   -2.2986    0.0000 N   0  0  0  0  0  0  0  0  0
    4.1628   -1.9406    0.0000 C   0  0  0  0  0  0  0  0  0
    3.9793   -1.1363    0.0000 C   0  0  0  0  0  0  0  0  0
    4.9061   -3.1236    0.0000 C   0  0  0  0  0  0  0  0  0
    5.4895   -3.7070    0.0000 C   0  0  0  0  0  0  0  0  0
    4.9061   -4.2903    0.0000 C   0  0  0  0  0  0  0  0  0
    4.3228   -3.7070    0.0000 C   0  0  0  0  0  0  0  0  0
    4.8140    3.7835    0.0000 C   0  0  0  0  0  0  0  0  0
    4.4560    4.5268    0.0000 C   0  0  0  0  0  0  0  0  0
  1  2  1  0  0  0  0
  2  3  4  0  0  0  0
  2 27  4  0  0  0  0
  3  4  4  0  0  0  0
  4  5  4  0  0  0  0
  5  6  1  0  0  0  0
  5 26  4  0  0  0  0
  6  7  1  0  0  0  0
  7  8  4  0  0  0  0
  7 12  4  0  0  0  0
  8  9  4  0  0  0  0
  9 10  4  0  0  0  0
 10 11  4  0  0  0  0
 10 13  1  0  0  0  0
 11 12  4  0  0  0  0
 13 14  2  0  0  0  0
 13 15  1  0  0  0  0
 15 16  1  0  0  0  0
 15 21  1  0  0  0  0
 16 17  1  0  0  0  0
 17 18  1  0  0  0  0
 18 19  1  0  0  0  0
 19 20  1  0  0  0  0
 19 22  1  0  0  0  0
 20 21  1  0  0  0  0
 22 23  1  0  0  0  0
 22 25  1  0  0  0  0
 23 24  1  0  0  0  0
 24 25  1  0  0  0  0
 26 27  4  0  0  0  0
M  END
>  <Name_Molregno>
648105

>  <HISTAMINE H3>
8.85

$$$$
648106
  Marvin  02231216192D 0   1.00000     0.00000     0

 27 30  0  0  0  0  0  0  0  0999 V2000
   -0.6546    2.6662    0.0000 O   0  0  0  0  0  0  0  0  0
   -1.0125    3.4095    0.0000 C   0  0  0  0  0  0  0  0  0
   -1.8352    3.4712    0.0000 C   0  0  0  0  0  0  0  0  0
   -2.1932    4.2145    0.0000 C   0  0  0  0  0  0  0  0  0
   -1.7284    4.8961    0.0000 C   0  0  0  0  0  0  0  0  0
   -0.9058    4.8344    0.0000 C   0  0  0  0  0  0  0  0  0
   -0.5478    4.0911    0.0000 C   0  0  0  0  0  0  0  0  0
   -3.0159    4.2761    0.0000 C   0  0  0  0  0  0  0  0  0
   -3.8386    4.3378    0.0000 N   0  0  0  0  0  0  0  0  0
   -1.1193    1.9846    0.0000 C   0  0  0  0  0  0  0  0  0
   -0.7614    1.2413    0.0000 N   0  0  0  0  0  0  0  0  0
   -1.2261    0.5596    0.0000 C   0  0  0  0  0  0  0  0  0
   -2.0488    0.6213    0.0000 C   0  0  0  0  0  0  0  0  0
   -2.4068    1.3646    0.0000 C   0  0  0  0  0  0  0  0  0
   -1.9420    2.0462    0.0000 C   0  0  0  0  0  0  0  0  0
   -2.5135   -0.0604    0.0000 C   0  0  0  0  0  0  0  0  0
   -3.3362    0.0013    0.0000 O   0  0  0  0  0  0  0  0  0
   -2.1556   -0.8037    0.0000 N   0  0  0  0  0  0  0  0  0
   -1.3306   -0.8037    0.0000 C   0  0  0  0  0  0  0  0  0
   -0.8162   -1.4487    0.0000 C   0  0  0  0  0  0  0  0  0
   -0.9998   -2.2530    0.0000 C   0  0  0  0  0  0  0  0  0
   -1.7431   -2.6110    0.0000 N   0  0  0  0  0  0  0  0  0
   -2.4864   -2.2530    0.0000 C   0  0  0  0  0  0  0  0  0
   -2.6700   -1.4487    0.0000 C   0  0  0  0  0  0  0  0  0
   -1.7431   -3.4360    0.0000 C   0  0  0  0  0  0  0  0  0
   -1.3306   -4.1504    0.0000 C   0  0  0  0  0  0  0  0  0
   -2.1556   -4.1504    0.0000 C   0  0  0  0  0  0  0  0  0
  1  2  1  0  0  0  0
  1 10  1  0  0  0  0
  2  3  4  0  0  0  0
  2  7  4  0  0  0  0
  3  4  4  0  0  0  0
  4  5  4  0  0  0  0
  4  8  1  0  0  0  0
  5  6  4  0  0  0  0
  6  7  4  0  0  0  0
  8  9  3  0  0  0  0
 10 11  4  0  0  0  0
 10 15  4  0  0  0  0
 11 12  4  0  0  0  0
 12 13  4  0  0  0  0
 13 14  4  0  0  0  0
 13 16  1  0  0  0  0
 14 15  4  0  0  0  0
 16 17  2  0  0  0  0
 16 18  1  0  0  0  0
 18 19  1  0  0  0  0
 18 24  1  0  0  0  0
 19 20  1  0  0  0  0
 20 21  1  0  0  0  0
 21 22  1  0  0  0  0
 22 23  1  0  0  0  0
 22 25  1  0  0  0  0
 23 24  1  0  0  0  0
 25 26  1  0  0  0  0
 25 27  1  0  0  0  0
 26 27  1  0  0  0  0
M  END
>  <Name_Molregno>
648106

>  <HISTAMINE H3>
7.92

$$$$
648107
  Marvin  02231216192D 0   1.00000     0.00000     0

 28 31  0  0  0  0  0  0  0  0999 V2000
   -0.8448    2.8249    0.0000 O   0  0  0  0  0  0  0  0  0
   -1.2028    3.5682    0.0000 C   0  0  0  0  0  0  0  0  0
   -2.0255    3.6299    0.0000 C   0  0  0  0  0  0  0  0  0
   -2.3834    4.3732    0.0000 C   0  0  0  0  0  0  0  0  0
   -1.9187    5.0548    0.0000 C   0  0  0  0  0  0  0  0  0
   -1.0960    4.9932    0.0000 C   0  0  0  0  0  0  0  0  0
   -0.7381    4.2499    0.0000 C   0  0  0  0  0  0  0  0  0
   -3.2061    4.4348    0.0000 C   0  0  0  0  0  0  0  0  0
   -4.0288    4.4965    0.0000 N   0  0  0  0  0  0  0  0  0
   -1.3096    2.1433    0.0000 C   0  0  0  0  0  0  0  0  0
   -0.9516    1.4000    0.0000 N   0  0  0  0  0  0  0  0  0
   -1.4164    0.7183    0.0000 C   0  0  0  0  0  0  0  0  0
   -2.2391    0.7800    0.0000 C   0  0  0  0  0  0  0  0  0
   -2.5970    1.5233    0.0000 C   0  0  0  0  0  0  0  0  0
   -2.1323    2.2049    0.0000 C   0  0  0  0  0  0  0  0  0
   -2.7038    0.0983    0.0000 C   0  0  0  0  0  0  0  0  0
   -3.5265    0.1600    0.0000 O   0  0  0  0  0  0  0  0  0
   -2.3458   -0.6450    0.0000 N   0  0  0  0  0  0  0  0  0
   -1.5208   -0.6450    0.0000 C   0  0  0  0  0  0  0  0  0
   -1.0065   -1.2900    0.0000 C   0  0  0  0  0  0  0  0  0
   -1.1900   -2.0943    0.0000 C   0  0  0  0  0  0  0  0  0
   -1.9333   -2.4522    0.0000 N   0  0  0  0  0  0  0  0  0
   -2.6766   -2.0943    0.0000 C   0  0  0  0  0  0  0  0  0
   -2.8602   -1.2900    0.0000 C   0  0  0  0  0  0  0  0  0
   -1.9333   -3.2772    0.0000 C   0  0  0  0  0  0  0  0  0
   -1.3500   -3.8606    0.0000 C   0  0  0  0  0  0  0  0  0
   -1.9333   -4.4440    0.0000 C   0  0  0  0  0  0  0  0  0
   -2.5167   -3.8606    0.0000 C   0  0  0  0  0  0  0  0  0
  1  2  1  0  0  0  0
  1 10  1  0  0  0  0
  2  3  4  0  0  0  0
  2  7  4  0  0  0  0
  3  4  4  0  0  0  0
  4  5  4  0  0  0  0
  4  8  1  0  0  0  0
  5  6  4  0  0  0  0
  6  7  4  0  0  0  0
  8  9  3  0  0  0  0
 10 11  4  0  0  0  0
 10 15  4  0  0  0  0
 11 12  4  0  0  0  0
 12 13  4  0  0  0  0
 13 14  4  0  0  0  0
 13 16  1  0  0  0  0
 14 15  4  0  0  0  0
 16 17  2  0  0  0  0
 16 18  1  0  0  0  0
 18 19  1  0  0  0  0
 18 24  1  0  0  0  0
 19 20  1  0  0  0  0
 20 21  1  0  0  0  0
 21 22  1  0  0  0  0
 22 23  1  0  0  0  0
 22 25  1  0  0  0  0
 23 24  1  0  0  0  0
 25 26  1  0  0  0  0
 25 28  1  0  0  0  0
 26 27  1  0  0  0  0
 27 28  1  0  0  0  0
M  END
>  <Name_Molregno>
648107

>  <HISTAMINE H3>
8.74

$$$$
648108
  Marvin  02231216192D 0   1.00000     0.00000     0

 25 28  0  0  0  0  0  0  0  0999 V2000
   -1.1831    3.0184    0.0000 O   0  0  0  0  0  0  0  0  0
   -1.5411    3.7617    0.0000 C   0  0  0  0  0  0  0  0  0
   -2.3637    3.8233    0.0000 C   0  0  0  0  0  0  0  0  0
   -2.7217    4.5666    0.0000 C   0  0  0  0  0  0  0  0  0
   -2.2570    5.2483    0.0000 C   0  0  0  0  0  0  0  0  0
   -1.4343    5.1866    0.0000 C   0  0  0  0  0  0  0  0  0
   -1.0763    4.4433    0.0000 C   0  0  0  0  0  0  0  0  0
   -1.6478    2.3367    0.0000 C   0  0  0  0  0  0  0  0  0
   -1.2899    1.5934    0.0000 N   0  0  0  0  0  0  0  0  0
   -1.7546    0.9118    0.0000 C   0  0  0  0  0  0  0  0  0
   -2.5773    0.9734    0.0000 C   0  0  0  0  0  0  0  0  0
   -2.9353    1.7167    0.0000 C   0  0  0  0  0  0  0  0  0
   -2.4705    2.3984    0.0000 C   0  0  0  0  0  0  0  0  0
   -3.0421    0.2918    0.0000 C   0  0  0  0  0  0  0  0  0
   -3.8647    0.3534    0.0000 O   0  0  0  0  0  0  0  0  0
   -2.6841   -0.4515    0.0000 N   0  0  0  0  0  0  0  0  0
   -1.8591   -0.4515    0.0000 C   0  0  0  0  0  0  0  0  0
   -1.3447   -1.0965    0.0000 C   0  0  0  0  0  0  0  0  0
   -1.5283   -1.9009    0.0000 C   0  0  0  0  0  0  0  0  0
   -2.2716   -2.2588    0.0000 N   0  0  0  0  0  0  0  0  0
   -3.0149   -1.9009    0.0000 C   0  0  0  0  0  0  0  0  0
   -3.1985   -1.0965    0.0000 C   0  0  0  0  0  0  0  0  0
   -2.2716   -3.0838    0.0000 C   0  0  0  0  0  0  0  0  0
   -1.8591   -3.7983    0.0000 C   0  0  0  0  0  0  0  0  0
   -2.6841   -3.7983    0.0000 C   0  0  0  0  0  0  0  0  0
  1  2  1  0  0  0  0
  1  8  1  0  0  0  0
  2  3  4  0  0  0  0
  2  7  4  0  0  0  0
  3  4  4  0  0  0  0
  4  5  4  0  0  0  0
  5  6  4  0  0  0  0
  6  7  4  0  0  0  0
  8  9  4  0  0  0  0
  8 13  4  0  0  0  0
  9 10  4  0  0  0  0
 10 11  4  0  0  0  0
 11 12  4  0  0  0  0
 11 14  1  0  0  0  0
 12 13  4  0  0  0  0
 14 15  2  0  0  0  0
 14 16  1  0  0  0  0
 16 17  1  0  0  0  0
 16 22  1  0  0  0  0
 17 18  1  0  0  0  0
 18 19  1  0  0  0  0
 19 20  1  0  0  0  0
 20 21  1  0  0  0  0
 20 23  1  0  0  0  0
 21 22  1  0  0  0  0
 23 24  1  0  0  0  0
 23 25  1  0  0  0  0
 24 25  1  0  0  0  0
M  END
>  <Name_Molregno>
648108

>  <HISTAMINE H3>
8

$$$$
648109
  Marvin  02231216192D 0   1.00000     0.00000     0

 26 29  0  0  0  0  0  0  0  0999 V2000
   -1.3697    3.1669    0.0000 O   0  0  0  0  0  0  0  0  0
   -1.7277    3.9102    0.0000 C   0  0  0  0  0  0  0  0  0
   -2.5504    3.9718    0.0000 C   0  0  0  0  0  0  0  0  0
   -2.9083    4.7151    0.0000 C   0  0  0  0  0  0  0  0  0
   -2.4436    5.3968    0.0000 C   0  0  0  0  0  0  0  0  0
   -1.6209    5.3351    0.0000 C   0  0  0  0  0  0  0  0  0
   -1.2629    4.5918    0.0000 C   0  0  0  0  0  0  0  0  0
   -1.8344    2.4852    0.0000 C   0  0  0  0  0  0  0  0  0
   -1.4765    1.7419    0.0000 N   0  0  0  0  0  0  0  0  0
   -1.9412    1.0603    0.0000 C   0  0  0  0  0  0  0  0  0
   -2.7639    1.1219    0.0000 C   0  0  0  0  0  0  0  0  0
   -3.1219    1.8652    0.0000 C   0  0  0  0  0  0  0  0  0
   -2.6571    2.5469    0.0000 C   0  0  0  0  0  0  0  0  0
   -3.2287    0.4403    0.0000 C   0  0  0  0  0  0  0  0  0
   -4.0514    0.5019    0.0000 O   0  0  0  0  0  0  0  0  0
   -2.8707   -0.3030    0.0000 N   0  0  0  0  0  0  0  0  0
   -2.0457   -0.3030    0.0000 C   0  0  0  0  0  0  0  0  0
   -1.5313   -0.9480    0.0000 C   0  0  0  0  0  0  0  0  0
   -1.7149   -1.7524    0.0000 C   0  0  0  0  0  0  0  0  0
   -2.4582   -2.1103    0.0000 N   0  0  0  0  0  0  0  0  0
   -3.2015   -1.7524    0.0000 C   0  0  0  0  0  0  0  0  0
   -3.3851   -0.9480    0.0000 C   0  0  0  0  0  0  0  0  0
   -2.4582   -2.9353    0.0000 C   0  0  0  0  0  0  0  0  0
   -1.8748   -3.5187    0.0000 C   0  0  0  0  0  0  0  0  0
   -2.4582   -4.1020    0.0000 C   0  0  0  0  0  0  0  0  0
   -3.0416   -3.5187    0.0000 C   0  0  0  0  0  0  0  0  0
  1  2  1  0  0  0  0
  1  8  1  0  0  0  0
  2  3  4  0  0  0  0
  2  7  4  0  0  0  0
  3  4  4  0  0  0  0
  4  5  4  0  0  0  0
  5  6  4  0  0  0  0
  6  7  4  0  0  0  0
  8  9  4  0  0  0  0
  8 13  4  0  0  0  0
  9 10  4  0  0  0  0
 10 11  4  0  0  0  0
 11 12  4  0  0  0  0
 11 14  1  0  0  0  0
 12 13  4  0  0  0  0
 14 15  2  0  0  0  0
 14 16  1  0  0  0  0
 16 17  1  0  0  0  0
 16 22  1  0  0  0  0
 17 18  1  0  0  0  0
 18 19  1  0  0  0  0
 19 20  1  0  0  0  0
 20 21  1  0  0  0  0
 20 23  1  0  0  0  0
 21 22  1  0  0  0  0
 23 24  1  0  0  0  0
 23 26  1  0  0  0  0
 24 25  1  0  0  0  0
 25 26  1  0  0  0  0
M  END
>  <Name_Molregno>
648109

>  <HISTAMINE H3>
8.36

$$$$
648179
  Marvin  02231216192D 0   1.00000     0.00000     0

 27 29  0  0  0  0  0  0  0  0999 V2000
    4.4085    5.1571    0.0000 Cl  0  0  0  0  0  0  0  0  0
    4.4085    4.3321    0.0000 C   0  0  0  0  0  0  0  0  0
    5.1230    3.9196    0.0000 C   0  0  0  0  0  0  0  0  0
    5.1230    3.0946    0.0000 C   0  0  0  0  0  0  0  0  0
    5.8375    2.6821    0.0000 O   0  0  0  0  0  0  0  0  0
    5.8375    1.8571    0.0000 C   0  0  0  0  0  0  0  0  0
    6.5519    1.4446    0.0000 N   0  0  0  0  0  0  0  0  0
    6.5519    0.6196    0.0000 C   0  0  0  0  0  0  0  0  0
    5.8375    0.2071    0.0000 C   0  0  0  0  0  0  0  0  0
    5.1230    0.6196    0.0000 C   0  0  0  0  0  0  0  0  0
    5.1230    1.4446    0.0000 C   0  0  0  0  0  0  0  0  0
    5.8375   -0.6179    0.0000 C   0  0  0  0  0  0  0  0  0
    6.5519   -1.0304    0.0000 O   0  0  0  0  0  0  0  0  0
    5.1230   -1.0304    0.0000 N   0  0  0  0  0  0  0  0  0
    5.1846   -1.8531    0.0000 C   0  0  0  0  0  0  0  0  0
    4.5799   -2.4143    0.0000 C   0  0  0  0  0  0  0  0  0
    3.7641   -2.2913    0.0000 C   0  0  0  0  0  0  0  0  0
    3.3516   -1.5769    0.0000 N   0  0  0  0  0  0  0  0  0
    3.6530   -0.8089    0.0000 C   0  0  0  0  0  0  0  0  0
    4.4413   -0.5657    0.0000 C   0  0  0  0  0  0  0  0  0
    2.5289   -1.6385    0.0000 C   0  0  0  0  0  0  0  0  0
    2.1709   -2.3818    0.0000 C   0  0  0  0  0  0  0  0  0
    2.0642   -0.9569    0.0000 C   0  0  0  0  0  0  0  0  0
    4.4085    2.6821    0.0000 C   0  0  0  0  0  0  0  0  0
    3.6941    3.0946    0.0000 C   0  0  0  0  0  0  0  0  0
    3.6941    3.9196    0.0000 C   0  0  0  0  0  0  0  0  0
    2.9796    4.3321    0.0000 Cl  0  0  0  0  0  0  0  0  0
  1  2  1  0  0  0  0
  2  3  4  0  0  0  0
  2 26  4  0  0  0  0
  3  4  4  0  0  0  0
  4  5  1  0  0  0  0
  4 24  4  0  0  0  0
  5  6  1  0  0  0  0
  6  7  4  0  0  0  0
  6 11  4  0  0  0  0
  7  8  4  0  0  0  0
  8  9  4  0  0  0  0
  9 10  4  0  0  0  0
  9 12  1  0  0  0  0
 10 11  4  0  0  0  0
 12 13  2  0  0  0  0
 12 14  1  0  0  0  0
 14 15  1  0  0  0  0
 14 20  1  0  0  0  0
 15 16  1  0  0  0  0
 16 17  1  0  0  0  0
 17 18  1  0  0  0  0
 18 19  1  0  0  0  0
 18 21  1  0  0  0  0
 19 20  1  0  0  0  0
 21 22  1  0  0  0  0
 21 23  1  0  0  0  0
 24 25  4  0  0  0  0
 25 26  4  0  0  0  0
 26 27  1  0  0  0  0
M  END
>  <Name_Molregno>
648179

>  <HISTAMINE H3>
7.74

$$$$
648180
  Marvin  02231216192D 0   1.00000     0.00000     0

 28 31  0  0  0  0  0  0  0  0999 V2000
    0.3701    1.1231    0.0000 Cl  0  0  0  0  0  0  0  0  0
    1.1928    1.0614    0.0000 C   0  0  0  0  0  0  0  0  0
    1.6575    1.7431    0.0000 C   0  0  0  0  0  0  0  0  0
    2.4802    1.6814    0.0000 C   0  0  0  0  0  0  0  0  0
    2.9449    2.3631    0.0000 O   0  0  0  0  0  0  0  0  0
    3.7676    2.3014    0.0000 C   0  0  0  0  0  0  0  0  0
    4.2324    2.9831    0.0000 N   0  0  0  0  0  0  0  0  0
    5.0551    2.9214    0.0000 C   0  0  0  0  0  0  0  0  0
    5.4130    2.1781    0.0000 C   0  0  0  0  0  0  0  0  0
    4.9483    1.4965    0.0000 C   0  0  0  0  0  0  0  0  0
    4.1256    1.5581    0.0000 C   0  0  0  0  0  0  0  0  0
    6.2357    2.1165    0.0000 C   0  0  0  0  0  0  0  0  0
    6.7005    2.7981    0.0000 O   0  0  0  0  0  0  0  0  0
    6.5937    1.3732    0.0000 N   0  0  0  0  0  0  0  0  0
    7.4187    1.3732    0.0000 C   0  0  0  0  0  0  0  0  0
    7.9331    0.7282    0.0000 C   0  0  0  0  0  0  0  0  0
    7.7495   -0.0762    0.0000 C   0  0  0  0  0  0  0  0  0
    7.0062   -0.4341    0.0000 N   0  0  0  0  0  0  0  0  0
    6.2629   -0.0762    0.0000 C   0  0  0  0  0  0  0  0  0
    6.0793    0.7282    0.0000 C   0  0  0  0  0  0  0  0  0
    7.0062   -1.2591    0.0000 C   0  0  0  0  0  0  0  0  0
    7.5895   -1.8425    0.0000 C   0  0  0  0  0  0  0  0  0
    7.0062   -2.4258    0.0000 C   0  0  0  0  0  0  0  0  0
    6.4228   -1.8425    0.0000 C   0  0  0  0  0  0  0  0  0
    2.8382    0.9381    0.0000 C   0  0  0  0  0  0  0  0  0
    2.3734    0.2565    0.0000 C   0  0  0  0  0  0  0  0  0
    1.5507    0.3181    0.0000 C   0  0  0  0  0  0  0  0  0
    1.0860   -0.3635    0.0000 Cl  0  0  0  0  0  0  0  0  0
  1  2  1  0  0  0  0
  2  3  4  0  0  0  0
  2 27  4  0  0  0  0
  3  4  4  0  0  0  0
  4  5  1  0  0  0  0
  4 25  4  0  0  0  0
  5  6  1  0  0  0  0
  6  7  4  0  0  0  0
  6 11  4  0  0  0  0
  7  8  4  0  0  0  0
  8  9  4  0  0  0  0
  9 10  4  0  0  0  0
  9 12  1  0  0  0  0
 10 11  4  0  0  0  0
 12 13  2  0  0  0  0
 12 14  1  0  0  0  0
 14 15  1  0  0  0  0
 14 20  1  0  0  0  0
 15 16  1  0  0  0  0
 16 17  1  0  0  0  0
 17 18  1  0  0  0  0
 18 19  1  0  0  0  0
 18 21  1  0  0  0  0
 19 20  1  0  0  0  0
 21 22  1  0  0  0  0
 21 24  1  0  0  0  0
 22 23  1  0  0  0  0
 23 24  1  0  0  0  0
 25 26  4  0  0  0  0
 26 27  4  0  0  0  0
 27 28  1  0  0  0  0
M  END
>  <Name_Molregno>
648180

>  <HISTAMINE H3>
8.12

$$$$
648181
  Marvin  02231216192D 0   1.00000     0.00000     0

 26 29  0  0  0  0  0  0  0  0999 V2000
    5.9684    5.6344    0.0000 Cl  0  0  0  0  0  0  0  0  0
    5.5037    4.9527    0.0000 C   0  0  0  0  0  0  0  0  0
    5.8617    4.2094    0.0000 C   0  0  0  0  0  0  0  0  0
    5.3969    3.5278    0.0000 C   0  0  0  0  0  0  0  0  0
    5.7549    2.7845    0.0000 O   0  0  0  0  0  0  0  0  0
    5.2901    2.1028    0.0000 C   0  0  0  0  0  0  0  0  0
    5.6481    1.3595    0.0000 N   0  0  0  0  0  0  0  0  0
    5.1833    0.6779    0.0000 C   0  0  0  0  0  0  0  0  0
    4.3607    0.7395    0.0000 C   0  0  0  0  0  0  0  0  0
    4.0027    1.4828    0.0000 C   0  0  0  0  0  0  0  0  0
    4.4674    2.1645    0.0000 C   0  0  0  0  0  0  0  0  0
    3.8959    0.0579    0.0000 C   0  0  0  0  0  0  0  0  0
    3.0732    0.1195    0.0000 O   0  0  0  0  0  0  0  0  0
    4.2539   -0.6854    0.0000 N   0  0  0  0  0  0  0  0  0
    5.0789   -0.6854    0.0000 C   0  0  0  0  0  0  0  0  0
    5.5932   -1.3304    0.0000 C   0  0  0  0  0  0  0  0  0
    5.4097   -2.1348    0.0000 C   0  0  0  0  0  0  0  0  0
    4.6664   -2.4927    0.0000 N   0  0  0  0  0  0  0  0  0
    3.9231   -2.1348    0.0000 C   0  0  0  0  0  0  0  0  0
    3.7395   -1.3304    0.0000 C   0  0  0  0  0  0  0  0  0
    4.6664   -3.3177    0.0000 C   0  0  0  0  0  0  0  0  0
    5.0789   -4.0322    0.0000 C   0  0  0  0  0  0  0  0  0
    4.2539   -4.0322    0.0000 C   0  0  0  0  0  0  0  0  0
    4.5742    3.5894    0.0000 C   0  0  0  0  0  0  0  0  0
    4.2163    4.3327    0.0000 C   0  0  0  0  0  0  0  0  0
    4.6810    5.0144    0.0000 C   0  0  0  0  0  0  0  0  0
  1  2  1  0  0  0  0
  2  3  4  0  0  0  0
  2 26  4  0  0  0  0
  3  4  4  0  0  0  0
  4  5  1  0  0  0  0
  4 24  4  0  0  0  0
  5  6  1  0  0  0  0
  6  7  4  0  0  0  0
  6 11  4  0  0  0  0
  7  8  4  0  0  0  0
  8  9  4  0  0  0  0
  9 10  4  0  0  0  0
  9 12  1  0  0  0  0
 10 11  4  0  0  0  0
 12 13  2  0  0  0  0
 12 14  1  0  0  0  0
 14 15  1  0  0  0  0
 14 20  1  0  0  0  0
 15 16  1  0  0  0  0
 16 17  1  0  0  0  0
 17 18  1  0  0  0  0
 18 19  1  0  0  0  0
 18 21  1  0  0  0  0
 19 20  1  0  0  0  0
 21 22  1  0  0  0  0
 21 23  1  0  0  0  0
 22 23  1  0  0  0  0
 24 25  4  0  0  0  0
 25 26  4  0  0  0  0
M  END
>  <Name_Molregno>
648181

>  <HISTAMINE H3>
7.77

$$$$
648182
  Marvin  02231216192D 0   1.00000     0.00000     0

 27 30  0  0  0  0  0  0  0  0999 V2000
    6.1480    5.8466    0.0000 Cl  0  0  0  0  0  0  0  0  0
    5.6832    5.1650    0.0000 C   0  0  0  0  0  0  0  0  0
    6.0412    4.4217    0.0000 C   0  0  0  0  0  0  0  0  0
    5.5765    3.7400    0.0000 C   0  0  0  0  0  0  0  0  0
    5.9344    2.9967    0.0000 O   0  0  0  0  0  0  0  0  0
    5.4697    2.3151    0.0000 C   0  0  0  0  0  0  0  0  0
    5.8276    1.5718    0.0000 N   0  0  0  0  0  0  0  0  0
    5.3629    0.8901    0.0000 C   0  0  0  0  0  0  0  0  0
    4.5402    0.9518    0.0000 C   0  0  0  0  0  0  0  0  0
    4.1822    1.6951    0.0000 C   0  0  0  0  0  0  0  0  0
    4.6470    2.3767    0.0000 C   0  0  0  0  0  0  0  0  0
    4.0754    0.2701    0.0000 C   0  0  0  0  0  0  0  0  0
    3.2528    0.3318    0.0000 O   0  0  0  0  0  0  0  0  0
    4.4334   -0.4732    0.0000 N   0  0  0  0  0  0  0  0  0
    5.2584   -0.4732    0.0000 C   0  0  0  0  0  0  0  0  0
    5.7728   -1.1182    0.0000 C   0  0  0  0  0  0  0  0  0
    5.5892   -1.9225    0.0000 C   0  0  0  0  0  0  0  0  0
    4.8459   -2.2805    0.0000 N   0  0  0  0  0  0  0  0  0
    4.1026   -1.9225    0.0000 C   0  0  0  0  0  0  0  0  0
    3.9190   -1.1182    0.0000 C   0  0  0  0  0  0  0  0  0
    4.8459   -3.1055    0.0000 C   0  0  0  0  0  0  0  0  0
    5.4293   -3.6888    0.0000 C   0  0  0  0  0  0  0  0  0
    4.8459   -4.2722    0.0000 C   0  0  0  0  0  0  0  0  0
    4.2625   -3.6888    0.0000 C   0  0  0  0  0  0  0  0  0
    4.7538    3.8017    0.0000 C   0  0  0  0  0  0  0  0  0
    4.3958    4.5450    0.0000 C   0  0  0  0  0  0  0  0  0
    4.8605    5.2266    0.0000 C   0  0  0  0  0  0  0  0  0
  1  2  1  0  0  0  0
  2  3  4  0  0  0  0
  2 27  4  0  0  0  0
  3  4  4  0  0  0  0
  4  5  1  0  0  0  0
  4 25  4  0  0  0  0
  5  6  1  0  0  0  0
  6  7  4  0  0  0  0
  6 11  4  0  0  0  0
  7  8  4  0  0  0  0
  8  9  4  0  0  0  0
  9 10  4  0  0  0  0
  9 12  1  0  0  0  0
 10 11  4  0  0  0  0
 12 13  2  0  0  0  0
 12 14  1  0  0  0  0
 14 15  1  0  0  0  0
 14 20  1  0  0  0  0
 15 16  1  0  0  0  0
 16 17  1  0  0  0  0
 17 18  1  0  0  0  0
 18 19  1  0  0  0  0
 18 21  1  0  0  0  0
 19 20  1  0  0  0  0
 21 22  1  0  0  0  0
 21 24  1  0  0  0  0
 22 23  1  0  0  0  0
 23 24  1  0  0  0  0
 25 26  4  0  0  0  0
 26 27  4  0  0  0  0
M  END
>  <Name_Molregno>
648182

>  <HISTAMINE H3>
9

$$$$
648183
  Marvin  02231216192D 0   1.00000     0.00000     0

 26 29  0  0  0  0  0  0  0  0999 V2000
    4.3900    5.6900    0.0000 Cl  0  0  0  0  0  0  0  0  0
    4.7479    4.9467    0.0000 C   0  0  0  0  0  0  0  0  0
    5.5706    4.8850    0.0000 C   0  0  0  0  0  0  0  0  0
    5.9286    4.1417    0.0000 C   0  0  0  0  0  0  0  0  0
    5.4638    3.4601    0.0000 C   0  0  0  0  0  0  0  0  0
    5.8218    2.7168    0.0000 O   0  0  0  0  0  0  0  0  0
    5.3570    2.0351    0.0000 C   0  0  0  0  0  0  0  0  0
    5.7150    1.2918    0.0000 N   0  0  0  0  0  0  0  0  0
    5.2503    0.6102    0.0000 C   0  0  0  0  0  0  0  0  0
    4.4276    0.6719    0.0000 C   0  0  0  0  0  0  0  0  0
    4.0696    1.4152    0.0000 C   0  0  0  0  0  0  0  0  0
    4.5344    2.0968    0.0000 C   0  0  0  0  0  0  0  0  0
    3.9628   -0.0098    0.0000 C   0  0  0  0  0  0  0  0  0
    3.1401    0.0519    0.0000 O   0  0  0  0  0  0  0  0  0
    4.3208   -0.7531    0.0000 N   0  0  0  0  0  0  0  0  0
    5.1458   -0.7531    0.0000 C   0  0  0  0  0  0  0  0  0
    5.6602   -1.3981    0.0000 C   0  0  0  0  0  0  0  0  0
    5.4766   -2.2024    0.0000 C   0  0  0  0  0  0  0  0  0
    4.7333   -2.5604    0.0000 N   0  0  0  0  0  0  0  0  0
    3.9900   -2.2024    0.0000 C   0  0  0  0  0  0  0  0  0
    3.8064   -1.3981    0.0000 C   0  0  0  0  0  0  0  0  0
    4.7333   -3.3854    0.0000 C   0  0  0  0  0  0  0  0  0
    5.1458   -4.0998    0.0000 C   0  0  0  0  0  0  0  0  0
    4.3208   -4.0998    0.0000 C   0  0  0  0  0  0  0  0  0
    4.6411    3.5217    0.0000 C   0  0  0  0  0  0  0  0  0
    4.2832    4.2650    0.0000 C   0  0  0  0  0  0  0  0  0
  1  2  1  0  0  0  0
  2  3  4  0  0  0  0
  2 26  4  0  0  0  0
  3  4  4  0  0  0  0
  4  5  4  0  0  0  0
  5  6  1  0  0  0  0
  5 25  4  0  0  0  0
  6  7  1  0  0  0  0
  7  8  4  0  0  0  0
  7 12  4  0  0  0  0
  8  9  4  0  0  0  0
  9 10  4  0  0  0  0
 10 11  4  0  0  0  0
 10 13  1  0  0  0  0
 11 12  4  0  0  0  0
 13 14  2  0  0  0  0
 13 15  1  0  0  0  0
 15 16  1  0  0  0  0
 15 21  1  0  0  0  0
 16 17  1  0  0  0  0
 17 18  1  0  0  0  0
 18 19  1  0  0  0  0
 19 20  1  0  0  0  0
 19 22  1  0  0  0  0
 20 21  1  0  0  0  0
 22 23  1  0  0  0  0
 22 24  1  0  0  0  0
 23 24  1  0  0  0  0
 25 26  4  0  0  0  0
M  END
>  <Name_Molregno>
648183

>  <HISTAMINE H3>
7.89

$$$$
650374
  Marvin  02231216192D 0   1.00000     0.00000     0

 21 23  0  0  0  0  0  0  0  0999 V2000
   -5.7829   -4.0981    0.0000 N   0  0  0  0  0  0  0  0  0
   -6.0378   -3.3135    0.0000 C   0  0  0  0  0  0  0  0  0
   -5.3704   -2.8285    0.0000 C   0  0  0  0  0  0  0  0  0
   -4.7029   -3.3135    0.0000 N   0  0  0  0  0  0  0  0  0
   -4.9579   -4.0981    0.0000 C   0  0  0  0  0  0  0  0  0
   -5.3704   -2.0035    0.0000 C   0  0  0  0  0  0  0  0  0
   -4.6559   -1.5910    0.0000 C   0  0  0  0  0  0  0  0  0
   -4.6559   -0.7660    0.0000 C   0  0  0  0  0  0  0  0  0
   -3.9414   -0.3535    0.0000 C   0  0  0  0  0  0  0  0  0
   -3.2270   -0.7660    0.0000 N   0  0  0  0  0  0  0  0  0
   -3.2270   -1.5910    0.0000 C   0  0  0  0  0  0  0  0  0
   -3.9414   -2.0035    0.0000 C   0  0  0  0  0  0  0  0  0
   -2.5125   -0.3535    0.0000 C   0  0  0  0  0  0  0  0  0
   -2.5125    0.4715    0.0000 C   0  0  0  0  0  0  0  0  0
   -1.7980    0.8840    0.0000 C   0  0  0  0  0  0  0  0  0
   -1.0835    0.4715    0.0000 C   0  0  0  0  0  0  0  0  0
   -0.3691    0.8840    0.0000 N   0  0  0  0  0  0  0  0  0
   -0.3691    1.7090    0.0000 C   0  0  0  0  0  0  0  0  0
    0.3454    0.4715    0.0000 C   0  0  0  0  0  0  0  0  0
   -1.0835   -0.3535    0.0000 C   0  0  0  0  0  0  0  0  0
   -1.7980   -0.7660    0.0000 C   0  0  0  0  0  0  0  0  0
  1  2  4  0  0  0  0
  1  5  4  0  0  0  0
  2  3  4  0  0  0  0
  3  4  4  0  0  0  0
  3  6  1  0  0  0  0
  4  5  4  0  0  0  0
  6  7  1  0  0  0  0
  7  8  1  0  0  0  0
  7 12  1  0  0  0  0
  8  9  1  0  0  0  0
  9 10  1  0  0  0  0
 10 11  1  0  0  0  0
 10 13  1  0  0  0  0
 11 12  1  0  0  0  0
 13 14  4  0  0  0  0
 13 21  4  0  0  0  0
 14 15  4  0  0  0  0
 15 16  4  0  0  0  0
 16 17  1  0  0  0  0
 16 20  4  0  0  0  0
 17 18  1  0  0  0  0
 17 19  1  0  0  0  0
 20 21  4  0  0  0  0
M  STY  1   1 DAT
M  SAL   1  1   1
M  SDT   1 MRV_IMPLICIT_H                                        
M  SDD   1     0.0000    0.0000    DR    ALL  0       0  
M  SED   1 IMPL_H1
M  END
>  <Name_Molregno>
650374

>  <HISTAMINE H3>
8.85

$$$$
650375
  Marvin  02231216192D 0   1.00000     0.00000     0

 22 25  0  0  0  0  0  0  0  0999 V2000
   -6.3021   -2.8880    0.0000 N   0  0  0  0  0  0  0  0  0
   -6.5571   -2.1034    0.0000 C   0  0  0  0  0  0  0  0  0
   -5.8896   -1.6185    0.0000 C   0  0  0  0  0  0  0  0  0
   -5.2222   -2.1034    0.0000 N   0  0  0  0  0  0  0  0  0
   -5.4771   -2.8880    0.0000 C   0  0  0  0  0  0  0  0  0
   -5.8896   -0.7935    0.0000 C   0  0  0  0  0  0  0  0  0
   -5.1751   -0.3810    0.0000 C   0  0  0  0  0  0  0  0  0
   -5.1751    0.4440    0.0000 C   0  0  0  0  0  0  0  0  0
   -4.4607    0.8565    0.0000 C   0  0  0  0  0  0  0  0  0
   -3.7462    0.4440    0.0000 N   0  0  0  0  0  0  0  0  0
   -3.7462   -0.3810    0.0000 C   0  0  0  0  0  0  0  0  0
   -4.4607   -0.7935    0.0000 C   0  0  0  0  0  0  0  0  0
   -3.0317    0.8565    0.0000 C   0  0  0  0  0  0  0  0  0
   -2.3173    0.4440    0.0000 C   0  0  0  0  0  0  0  0  0
   -1.6028    0.8565    0.0000 C   0  0  0  0  0  0  0  0  0
   -1.6028    1.6815    0.0000 C   0  0  0  0  0  0  0  0  0
   -2.3173    2.0940    0.0000 C   0  0  0  0  0  0  0  0  0
   -3.0317    1.6815    0.0000 C   0  0  0  0  0  0  0  0  0
   -0.8883    2.0940    0.0000 C   0  0  0  0  0  0  0  0  0
   -0.1738    1.6815    0.0000 C   0  0  0  0  0  0  0  0  0
   -0.1738    0.8565    0.0000 C   0  0  0  0  0  0  0  0  0
   -0.8883    0.4440    0.0000 C   0  0  0  0  0  0  0  0  0
  1  2  4  0  0  0  0
  1  5  4  0  0  0  0
  2  3  4  0  0  0  0
  3  4  4  0  0  0  0
  3  6  1  0  0  0  0
  4  5  4  0  0  0  0
  6  7  1  0  0  0  0
  7  8  1  0  0  0  0
  7 12  1  0  0  0  0
  8  9  1  0  0  0  0
  9 10  1  0  0  0  0
 10 11  1  0  0  0  0
 10 13  1  0  0  0  0
 11 12  1  0  0  0  0
 13 14  4  0  0  0  0
 13 18  4  0  0  0  0
 14 15  4  0  0  0  0
 15 16  4  0  0  0  0
 15 22  4  0  0  0  0
 16 17  4  0  0  0  0
 16 19  4  0  0  0  0
 17 18  4  0  0  0  0
 19 20  4  0  0  0  0
 20 21  4  0  0  0  0
 21 22  4  0  0  0  0
M  STY  1   1 DAT
M  SAL   1  1   1
M  SDT   1 MRV_IMPLICIT_H                                        
M  SDD   1     0.0000    0.0000    DR    ALL  0       0  
M  SED   1 IMPL_H1
M  END
>  <Name_Molregno>
650375

>  <HISTAMINE H3>
7.8

$$$$
650376
  Marvin  02231216192D 0   1.00000     0.00000     0

 24 27  0  0  0  0  0  0  0  0999 V2000
   -6.8829   -4.3135    0.0000 N   0  0  0  0  0  0  0  0  0
   -7.1378   -3.5289    0.0000 C   0  0  0  0  0  0  0  0  0
   -6.4704   -3.0440    0.0000 C   0  0  0  0  0  0  0  0  0
   -5.8030   -3.5289    0.0000 N   0  0  0  0  0  0  0  0  0
   -6.0579   -4.3135    0.0000 C   0  0  0  0  0  0  0  0  0
   -6.4704   -2.2190    0.0000 C   0  0  0  0  0  0  0  0  0
   -5.7559   -1.8065    0.0000 C   0  0  0  0  0  0  0  0  0
   -5.7559   -0.9815    0.0000 C   0  0  0  0  0  0  0  0  0
   -5.0415   -0.5690    0.0000 C   0  0  0  0  0  0  0  0  0
   -4.3270   -0.9815    0.0000 N   0  0  0  0  0  0  0  0  0
   -4.3270   -1.8065    0.0000 C   0  0  0  0  0  0  0  0  0
   -5.0415   -2.2190    0.0000 C   0  0  0  0  0  0  0  0  0
   -3.6125   -0.5690    0.0000 C   0  0  0  0  0  0  0  0  0
   -3.6125    0.2560    0.0000 C   0  0  0  0  0  0  0  0  0
   -2.8980    0.6685    0.0000 C   0  0  0  0  0  0  0  0  0
   -2.1836    0.2560    0.0000 C   0  0  0  0  0  0  0  0  0
   -2.1836   -0.5690    0.0000 C   0  0  0  0  0  0  0  0  0
   -2.8980   -0.9815    0.0000 C   0  0  0  0  0  0  0  0  0
   -1.4691    0.6685    0.0000 C   0  0  0  0  0  0  0  0  0
   -1.4691    1.4935    0.0000 C   0  0  0  0  0  0  0  0  0
   -0.7546    1.9060    0.0000 C   0  0  0  0  0  0  0  0  0
   -0.0402    1.4935    0.0000 C   0  0  0  0  0  0  0  0  0
   -0.0402    0.6685    0.0000 C   0  0  0  0  0  0  0  0  0
   -0.7546    0.2560    0.0000 C   0  0  0  0  0  0  0  0  0
  1  2  4  0  0  0  0
  1  5  4  0  0  0  0
  2  3  4  0  0  0  0
  3  4  4  0  0  0  0
  3  6  1  0  0  0  0
  4  5  4  0  0  0  0
  6  7  1  0  0  0  0
  7  8  1  0  0  0  0
  7 12  1  0  0  0  0
  8  9  1  0  0  0  0
  9 10  1  0  0  0  0
 10 11  1  0  0  0  0
 10 13  1  0  0  0  0
 11 12  1  0  0  0  0
 13 14  4  0  0  0  0
 13 18  4  0  0  0  0
 14 15  4  0  0  0  0
 15 16  4  0  0  0  0
 16 17  4  0  0  0  0
 16 19  1  0  0  0  0
 17 18  4  0  0  0  0
 19 20  4  0  0  0  0
 19 24  4  0  0  0  0
 20 21  4  0  0  0  0
 21 22  4  0  0  0  0
 22 23  4  0  0  0  0
 23 24  4  0  0  0  0
M  STY  1   1 DAT
M  SAL   1  1   1
M  SDT   1 MRV_IMPLICIT_H                                        
M  SDD   1     0.0000    0.0000    DR    ALL  0       0  
M  SED   1 IMPL_H1
M  END
>  <Name_Molregno>
650376

>  <HISTAMINE H3>
7.21

$$$$
650448
  Marvin  02231216192D 0   1.00000     0.00000     0

 18 20  0  0  0  0  0  0  0  0999 V2000
   -4.7380   -3.6345    0.0000 N   0  0  0  0  0  0  0  0  0
   -4.9930   -2.8498    0.0000 C   0  0  0  0  0  0  0  0  0
   -4.3255   -2.3649    0.0000 C   0  0  0  0  0  0  0  0  0
   -3.6581   -2.8498    0.0000 N   0  0  0  0  0  0  0  0  0
   -3.9130   -3.6345    0.0000 C   0  0  0  0  0  0  0  0  0
   -4.3255   -1.5399    0.0000 C   0  0  0  0  0  0  0  0  0
   -3.6111   -1.1274    0.0000 N   0  0  0  0  0  0  0  0  0
   -3.6111   -0.3024    0.0000 C   0  0  0  0  0  0  0  0  0
   -2.8966    0.1101    0.0000 C   0  0  0  0  0  0  0  0  0
   -2.1821   -0.3024    0.0000 N   0  0  0  0  0  0  0  0  0
   -2.1821   -1.1274    0.0000 C   0  0  0  0  0  0  0  0  0
   -2.8966   -1.5399    0.0000 C   0  0  0  0  0  0  0  0  0
   -1.4676    0.1101    0.0000 C   0  0  0  0  0  0  0  0  0
   -1.4676    0.9351    0.0000 C   0  0  0  0  0  0  0  0  0
   -0.7532    1.3476    0.0000 C   0  0  0  0  0  0  0  0  0
   -0.0387    0.9351    0.0000 C   0  0  0  0  0  0  0  0  0
   -0.0387    0.1101    0.0000 C   0  0  0  0  0  0  0  0  0
   -0.7532   -0.3024    0.0000 C   0  0  0  0  0  0  0  0  0
  1  2  4  0  0  0  0
  1  5  4  0  0  0  0
  2  3  4  0  0  0  0
  3  4  4  0  0  0  0
  3  6  1  0  0  0  0
  4  5  4  0  0  0  0
  6  7  1  0  0  0  0
  7  8  1  0  0  0  0
  7 12  1  0  0  0  0
  8  9  1  0  0  0  0
  9 10  1  0  0  0  0
 10 11  1  0  0  0  0
 10 13  1  0  0  0  0
 11 12  1  0  0  0  0
 13 14  4  0  0  0  0
 13 18  4  0  0  0  0
 14 15  4  0  0  0  0
 15 16  4  0  0  0  0
 16 17  4  0  0  0  0
 17 18  4  0  0  0  0
M  STY  1   1 DAT
M  SAL   1  1   1
M  SDT   1 MRV_IMPLICIT_H                                        
M  SDD   1     0.0000    0.0000    DR    ALL  0       0  
M  SED   1 IMPL_H1
M  END
>  <Name_Molregno>
650448

>  <HISTAMINE H3>
6

$$$$
650449
  Marvin  02231216192D 0   1.00000     0.00000     0

 18 20  0  0  0  0  0  0  0  0999 V2000
   -4.7380   -3.6345    0.0000 N   0  0  0  0  0  0  0  0  0
   -4.9930   -2.8498    0.0000 C   0  0  0  0  0  0  0  0  0
   -4.3255   -2.3649    0.0000 C   0  0  0  0  0  0  0  0  0
   -3.6581   -2.8498    0.0000 N   0  0  0  0  0  0  0  0  0
   -3.9130   -3.6345    0.0000 C   0  0  0  0  0  0  0  0  0
   -4.3255   -1.5399    0.0000 C   0  0  0  0  0  0  0  0  0
   -3.6111   -1.1274    0.0000 C   0  0  0  0  0  0  0  0  0
   -3.6111   -0.3024    0.0000 C   0  0  0  0  0  0  0  0  0
   -2.8966    0.1101    0.0000 C   0  0  0  0  0  0  0  0  0
   -2.1821   -0.3024    0.0000 N   0  0  0  0  0  0  0  0  0
   -2.1821   -1.1274    0.0000 C   0  0  0  0  0  0  0  0  0
   -2.8966   -1.5399    0.0000 C   0  0  0  0  0  0  0  0  0
   -1.4676    0.1101    0.0000 C   0  0  0  0  0  0  0  0  0
   -1.4676    0.9351    0.0000 C   0  0  0  0  0  0  0  0  0
   -0.7532    1.3476    0.0000 C   0  0  0  0  0  0  0  0  0
   -0.0387    0.9351    0.0000 C   0  0  0  0  0  0  0  0  0
   -0.0387    0.1101    0.0000 N   0  0  0  0  0  0  0  0  0
   -0.7532   -0.3024    0.0000 C   0  0  0  0  0  0  0  0  0
  1  2  4  0  0  0  0
  1  5  4  0  0  0  0
  2  3  4  0  0  0  0
  3  4  4  0  0  0  0
  3  6  1  0  0  0  0
  4  5  4  0  0  0  0
  6  7  1  0  0  0  0
  7  8  1  0  0  0  0
  7 12  1  0  0  0  0
  8  9  1  0  0  0  0
  9 10  1  0  0  0  0
 10 11  1  0  0  0  0
 10 13  1  0  0  0  0
 11 12  1  0  0  0  0
 13 14  4  0  0  0  0
 13 18  4  0  0  0  0
 14 15  4  0  0  0  0
 15 16  4  0  0  0  0
 16 17  4  0  0  0  0
 17 18  4  0  0  0  0
M  STY  1   1 DAT
M  SAL   1  1   1
M  SDT   1 MRV_IMPLICIT_H                                        
M  SDD   1     0.0000    0.0000    DR    ALL  0       0  
M  SED   1 IMPL_H1
M  END
>  <Name_Molregno>
650449

>  <HISTAMINE H3>
6.9

$$$$
650517
  Marvin  02231216192D 0   1.00000     0.00000     0

 22 24  0  0  0  0  0  0  0  0999 V2000
    0.5933    2.0102    0.0000 F   0  0  0  0  0  0  0  0  0
    1.3078    1.5977    0.0000 C   0  0  0  0  0  0  0  0  0
    0.8953    0.8833    0.0000 F   0  0  0  0  0  0  0  0  0
    1.7203    2.3122    0.0000 F   0  0  0  0  0  0  0  0  0
    2.0222    1.1852    0.0000 C   0  0  0  0  0  0  0  0  0
    2.7367    1.5977    0.0000 C   0  0  0  0  0  0  0  0  0
    3.4512    1.1852    0.0000 C   0  0  0  0  0  0  0  0  0
    3.4512    0.3602    0.0000 C   0  0  0  0  0  0  0  0  0
    4.1657   -0.0523    0.0000 N   0  0  0  0  0  0  0  0  0
    4.8801    0.3602    0.0000 C   0  0  0  0  0  0  0  0  0
    5.5946   -0.0523    0.0000 C   0  0  0  0  0  0  0  0  0
    5.5946   -0.8773    0.0000 N   0  0  0  0  0  0  0  0  0
    4.8801   -1.2898    0.0000 C   0  0  0  0  0  0  0  0  0
    4.1657   -0.8773    0.0000 C   0  0  0  0  0  0  0  0  0
    6.3091   -1.2898    0.0000 C   0  0  0  0  0  0  0  0  0
    6.3091   -2.1148    0.0000 C   0  0  0  0  0  0  0  0  0
    6.9765   -2.5997    0.0000 N   0  0  0  0  0  0  0  0  0
    6.7216   -3.3843    0.0000 C   0  0  0  0  0  0  0  0  0
    5.8966   -3.3843    0.0000 N   0  0  0  0  0  0  0  0  0
    5.6416   -2.5997    0.0000 C   0  0  0  0  0  0  0  0  0
    2.7367   -0.0523    0.0000 C   0  0  0  0  0  0  0  0  0
    2.0222    0.3602    0.0000 C   0  0  0  0  0  0  0  0  0
  1  2  1  0  0  0  0
  2  3  1  0  0  0  0
  2  4  1  0  0  0  0
  2  5  1  0  0  0  0
  5  6  4  0  0  0  0
  5 22  4  0  0  0  0
  6  7  4  0  0  0  0
  7  8  4  0  0  0  0
  8  9  1  0  0  0  0
  8 21  4  0  0  0  0
  9 10  1  0  0  0  0
  9 14  1  0  0  0  0
 10 11  1  0  0  0  0
 11 12  1  0  0  0  0
 12 13  1  0  0  0  0
 12 15  1  0  0  0  0
 13 14  1  0  0  0  0
 15 16  1  0  0  0  0
 16 17  4  0  0  0  0
 16 20  4  0  0  0  0
 17 18  4  0  0  0  0
 18 19  4  0  0  0  0
 19 20  4  0  0  0  0
 21 22  4  0  0  0  0
M  STY  1   1 DAT
M  SAL   1  1  19
M  SDT   1 MRV_IMPLICIT_H                                        
M  SDD   1     0.0000    0.0000    DR    ALL  0       0  
M  SED   1 IMPL_H1
M  END
>  <Name_Molregno>
650517

>  <HISTAMINE H3>
6

$$$$
650518
  Marvin  02231216192D 0   1.00000     0.00000     0

 22 24  0  0  0  0  0  0  0  0999 V2000
   -6.0741   -4.1429    0.0000 N   0  0  0  0  0  0  0  0  0
   -6.3290   -3.3583    0.0000 C   0  0  0  0  0  0  0  0  0
   -5.6616   -2.8734    0.0000 C   0  0  0  0  0  0  0  0  0
   -4.9942   -3.3583    0.0000 N   0  0  0  0  0  0  0  0  0
   -5.2491   -4.1429    0.0000 C   0  0  0  0  0  0  0  0  0
   -5.6616   -2.0484    0.0000 C   0  0  0  0  0  0  0  0  0
   -4.9471   -1.6359    0.0000 N   0  0  0  0  0  0  0  0  0
   -4.9471   -0.8109    0.0000 C   0  0  0  0  0  0  0  0  0
   -4.2327   -0.3984    0.0000 C   0  0  0  0  0  0  0  0  0
   -3.5182   -0.8109    0.0000 N   0  0  0  0  0  0  0  0  0
   -3.5182   -1.6359    0.0000 C   0  0  0  0  0  0  0  0  0
   -4.2327   -2.0484    0.0000 C   0  0  0  0  0  0  0  0  0
   -2.8037   -0.3984    0.0000 C   0  0  0  0  0  0  0  0  0
   -2.8037    0.4266    0.0000 C   0  0  0  0  0  0  0  0  0
   -2.0892    0.8391    0.0000 C   0  0  0  0  0  0  0  0  0
   -1.3748    0.4266    0.0000 C   0  0  0  0  0  0  0  0  0
   -1.3748   -0.3984    0.0000 C   0  0  0  0  0  0  0  0  0
   -2.0892   -0.8109    0.0000 C   0  0  0  0  0  0  0  0  0
   -0.6603    0.8391    0.0000 C   0  0  0  0  0  0  0  0  0
    0.0542    1.2516    0.0000 C   0  0  0  0  0  0  0  0  0
   -0.2478    0.1247    0.0000 C   0  0  0  0  0  0  0  0  0
   -1.0728    1.5536    0.0000 C   0  0  0  0  0  0  0  0  0
  1  2  4  0  0  0  0
  1  5  4  0  0  0  0
  2  3  4  0  0  0  0
  3  4  4  0  0  0  0
  3  6  1  0  0  0  0
  4  5  4  0  0  0  0
  6  7  1  0  0  0  0
  7  8  1  0  0  0  0
  7 12  1  0  0  0  0
  8  9  1  0  0  0  0
  9 10  1  0  0  0  0
 10 11  1  0  0  0  0
 10 13  1  0  0  0  0
 11 12  1  0  0  0  0
 13 14  4  0  0  0  0
 13 18  4  0  0  0  0
 14 15  4  0  0  0  0
 15 16  4  0  0  0  0
 16 17  4  0  0  0  0
 16 19  1  0  0  0  0
 17 18  4  0  0  0  0
 19 20  1  0  0  0  0
 19 21  1  0  0  0  0
 19 22  1  0  0  0  0
M  STY  1   1 DAT
M  SAL   1  1   1
M  SDT   1 MRV_IMPLICIT_H                                        
M  SDD   1     0.0000    0.0000    DR    ALL  0       0  
M  SED   1 IMPL_H1
M  END
>  <Name_Molregno>
650518

>  <HISTAMINE H3>
6

$$$$
650520
  Marvin  02231216192D 0   1.00000     0.00000     0

 19 21  0  0  0  0  0  0  0  0999 V2000
    0.5913    1.9060    0.0000 F   0  0  0  0  0  0  0  0  0
    1.3058    1.4935    0.0000 C   0  0  0  0  0  0  0  0  0
    2.0203    1.9060    0.0000 C   0  0  0  0  0  0  0  0  0
    2.7348    1.4935    0.0000 C   0  0  0  0  0  0  0  0  0
    2.7348    0.6685    0.0000 C   0  0  0  0  0  0  0  0  0
    3.4492    0.2560    0.0000 N   0  0  0  0  0  0  0  0  0
    4.1637    0.6685    0.0000 C   0  0  0  0  0  0  0  0  0
    4.8782    0.2560    0.0000 C   0  0  0  0  0  0  0  0  0
    4.8782   -0.5690    0.0000 C   0  0  0  0  0  0  0  0  0
    4.1637   -0.9815    0.0000 C   0  0  0  0  0  0  0  0  0
    3.4492   -0.5690    0.0000 C   0  0  0  0  0  0  0  0  0
    5.5926   -0.9815    0.0000 C   0  0  0  0  0  0  0  0  0
    5.5926   -1.8065    0.0000 C   0  0  0  0  0  0  0  0  0
    6.2601   -2.2915    0.0000 N   0  0  0  0  0  0  0  0  0
    6.0051   -3.0761    0.0000 C   0  0  0  0  0  0  0  0  0
    5.1801   -3.0761    0.0000 N   0  0  0  0  0  0  0  0  0
    4.9252   -2.2915    0.0000 C   0  0  0  0  0  0  0  0  0
    2.0203    0.2560    0.0000 C   0  0  0  0  0  0  0  0  0
    1.3058    0.6685    0.0000 C   0  0  0  0  0  0  0  0  0
  1  2  1  0  0  0  0
  2  3  4  0  0  0  0
  2 19  4  0  0  0  0
  3  4  4  0  0  0  0
  4  5  4  0  0  0  0
  5  6  1  0  0  0  0
  5 18  4  0  0  0  0
  6  7  1  0  0  0  0
  6 11  1  0  0  0  0
  7  8  1  0  0  0  0
  8  9  1  0  0  0  0
  9 10  1  0  0  0  0
  9 12  1  0  0  0  0
 10 11  1  0  0  0  0
 12 13  1  0  0  0  0
 13 14  4  0  0  0  0
 13 17  4  0  0  0  0
 14 15  4  0  0  0  0
 15 16  4  0  0  0  0
 16 17  4  0  0  0  0
 18 19  4  0  0  0  0
M  STY  1   1 DAT
M  SAL   1  1  16
M  SDT   1 MRV_IMPLICIT_H                                        
M  SDD   1     0.0000    0.0000    DR    ALL  0       0  
M  SED   1 IMPL_H1
M  END
>  <Name_Molregno>
650520

>  <HISTAMINE H3>
7.92

$$$$
650521
  Marvin  02231216192D 0   1.00000     0.00000     0

 21 23  0  0  0  0  0  0  0  0999 V2000
    0.2211    0.5961    0.0000 O   0  5  0  0  0  0  0  0  0
    0.9356    1.0086    0.0000 N   0  3  0  0  0  0  0  0  0
    0.9356    1.8336    0.0000 O   0  5  0  0  0  0  0  0  0
    1.6500    0.5961    0.0000 C   0  0  0  0  0  0  0  0  0
    2.3645    1.0086    0.0000 C   0  0  0  0  0  0  0  0  0
    3.0790    0.5961    0.0000 C   0  0  0  0  0  0  0  0  0
    3.0790   -0.2289    0.0000 C   0  0  0  0  0  0  0  0  0
    3.7935   -0.6414    0.0000 N   0  0  0  0  0  0  0  0  0
    4.5079   -0.2289    0.0000 C   0  0  0  0  0  0  0  0  0
    5.2224   -0.6414    0.0000 C   0  0  0  0  0  0  0  0  0
    5.2224   -1.4664    0.0000 C   0  0  0  0  0  0  0  0  0
    4.5079   -1.8789    0.0000 C   0  0  0  0  0  0  0  0  0
    3.7935   -1.4664    0.0000 C   0  0  0  0  0  0  0  0  0
    5.9369   -1.8789    0.0000 C   0  0  0  0  0  0  0  0  0
    5.9369   -2.7039    0.0000 C   0  0  0  0  0  0  0  0  0
    6.6043   -3.1889    0.0000 N   0  0  0  0  0  0  0  0  0
    6.3494   -3.9735    0.0000 C   0  0  0  0  0  0  0  0  0
    5.5244   -3.9735    0.0000 N   0  0  0  0  0  0  0  0  0
    5.2694   -3.1889    0.0000 C   0  0  0  0  0  0  0  0  0
    2.3645   -0.6414    0.0000 C   0  0  0  0  0  0  0  0  0
    1.6500   -0.2289    0.0000 C   0  0  0  0  0  0  0  0  0
  1  2  1  0  0  0  0
  2  3  1  0  0  0  0
  2  4  1  0  0  0  0
  4  5  4  0  0  0  0
  4 21  4  0  0  0  0
  5  6  4  0  0  0  0
  6  7  4  0  0  0  0
  7  8  1  0  0  0  0
  7 20  4  0  0  0  0
  8  9  1  0  0  0  0
  8 13  1  0  0  0  0
  9 10  1  0  0  0  0
 10 11  1  0  0  0  0
 11 12  1  0  0  0  0
 11 14  1  0  0  0  0
 12 13  1  0  0  0  0
 14 15  1  0  0  0  0
 15 16  4  0  0  0  0
 15 19  4  0  0  0  0
 16 17  4  0  0  0  0
 17 18  4  0  0  0  0
 18 19  4  0  0  0  0
 20 21  4  0  0  0  0
M  CHG  3   1  -1   2   1   3  -1
M  STY  1   1 DAT
M  SAL   1  1  18
M  SDT   1 MRV_IMPLICIT_H                                        
M  SDD   1     0.0000    0.0000    DR    ALL  0       0  
M  SED   1 IMPL_H1
M  END
>  <Name_Molregno>
650521

>  <HISTAMINE H3>
7.7

$$$$
650522
  Marvin  02231216192D 0   1.00000     0.00000     0

 22 24  0  0  0  0  0  0  0  0999 V2000
    0.5933    2.6213    0.0000 F   0  0  0  0  0  0  0  0  0
    1.3078    2.2088    0.0000 C   0  0  0  0  0  0  0  0  0
    0.8953    1.4943    0.0000 F   0  0  0  0  0  0  0  0  0
    1.7203    2.9232    0.0000 F   0  0  0  0  0  0  0  0  0
    2.0222    1.7963    0.0000 C   0  0  0  0  0  0  0  0  0
    2.7367    2.2088    0.0000 C   0  0  0  0  0  0  0  0  0
    3.4512    1.7963    0.0000 C   0  0  0  0  0  0  0  0  0
    3.4512    0.9713    0.0000 C   0  0  0  0  0  0  0  0  0
    4.1657    0.5588    0.0000 N   0  0  0  0  0  0  0  0  0
    4.8801    0.9713    0.0000 C   0  0  0  0  0  0  0  0  0
    5.5946    0.5588    0.0000 C   0  0  0  0  0  0  0  0  0
    5.5946   -0.2662    0.0000 C   0  0  0  0  0  0  0  0  0
    4.8801   -0.6787    0.0000 C   0  0  0  0  0  0  0  0  0
    4.1657   -0.2662    0.0000 C   0  0  0  0  0  0  0  0  0
    6.3091   -0.6787    0.0000 C   0  0  0  0  0  0  0  0  0
    6.3091   -1.5037    0.0000 C   0  0  0  0  0  0  0  0  0
    6.9765   -1.9887    0.0000 N   0  0  0  0  0  0  0  0  0
    6.7216   -2.7733    0.0000 C   0  0  0  0  0  0  0  0  0
    5.8966   -2.7733    0.0000 N   0  0  0  0  0  0  0  0  0
    5.6416   -1.9887    0.0000 C   0  0  0  0  0  0  0  0  0
    2.7367    0.5588    0.0000 C   0  0  0  0  0  0  0  0  0
    2.0222    0.9713    0.0000 C   0  0  0  0  0  0  0  0  0
  1  2  1  0  0  0  0
  2  3  1  0  0  0  0
  2  4  1  0  0  0  0
  2  5  1  0  0  0  0
  5  6  4  0  0  0  0
  5 22  4  0  0  0  0
  6  7  4  0  0  0  0
  7  8  4  0  0  0  0
  8  9  1  0  0  0  0
  8 21  4  0  0  0  0
  9 10  1  0  0  0  0
  9 14  1  0  0  0  0
 10 11  1  0  0  0  0
 11 12  1  0  0  0  0
 12 13  1  0  0  0  0
 12 15  1  0  0  0  0
 13 14  1  0  0  0  0
 15 16  1  0  0  0  0
 16 17  4  0  0  0  0
 16 20  4  0  0  0  0
 17 18  4  0  0  0  0
 18 19  4  0  0  0  0
 19 20  4  0  0  0  0
 21 22  4  0  0  0  0
M  STY  1   1 DAT
M  SAL   1  1  19
M  SDT   1 MRV_IMPLICIT_H                                        
M  SDD   1     0.0000    0.0000    DR    ALL  0       0  
M  SED   1 IMPL_H1
M  END
>  <Name_Molregno>
650522

>  <HISTAMINE H1>
6

>  <HISTAMINE H2>
6

>  <HISTAMINE H3>
8.74

>  <HISTAMINE H4>
6.67

$$$$
650957
  Marvin  02231216192D 0   1.00000     0.00000     0

 22 24  0  0  0  0  0  0  0  0999 V2000
    0.8197    2.3509    0.0000 F   0  0  0  0  0  0  0  0  0
    0.8197    1.5259    0.0000 C   0  0  0  0  0  0  0  0  0
   -0.0053    1.5259    0.0000 F   0  0  0  0  0  0  0  0  0
    1.6447    1.5259    0.0000 F   0  0  0  0  0  0  0  0  0
    0.8197    0.7009    0.0000 C   0  0  0  0  0  0  0  0  0
    1.5342    0.2884    0.0000 C   0  0  0  0  0  0  0  0  0
    1.5342   -0.5366    0.0000 C   0  0  0  0  0  0  0  0  0
    2.2487   -0.9491    0.0000 N   0  0  0  0  0  0  0  0  0
    2.9631   -0.5366    0.0000 C   0  0  0  0  0  0  0  0  0
    3.6776   -0.9491    0.0000 C   0  0  0  0  0  0  0  0  0
    3.6776   -1.7741    0.0000 C   0  0  0  0  0  0  0  0  0
    2.9631   -2.1866    0.0000 C   0  0  0  0  0  0  0  0  0
    2.2487   -1.7741    0.0000 C   0  0  0  0  0  0  0  0  0
    4.3921   -2.1866    0.0000 C   0  0  0  0  0  0  0  0  0
    4.3921   -3.0116    0.0000 C   0  0  0  0  0  0  0  0  0
    5.0595   -3.4965    0.0000 N   0  0  0  0  0  0  0  0  0
    4.8046   -4.2811    0.0000 C   0  0  0  0  0  0  0  0  0
    3.9796   -4.2811    0.0000 N   0  0  0  0  0  0  0  0  0
    3.7246   -3.4965    0.0000 C   0  0  0  0  0  0  0  0  0
    0.8197   -0.9491    0.0000 C   0  0  0  0  0  0  0  0  0
    0.1053   -0.5366    0.0000 C   0  0  0  0  0  0  0  0  0
    0.1053    0.2884    0.0000 C   0  0  0  0  0  0  0  0  0
  1  2  1  0  0  0  0
  2  3  1  0  0  0  0
  2  4  1  0  0  0  0
  2  5  1  0  0  0  0
  5  6  4  0  0  0  0
  5 22  4  0  0  0  0
  6  7  4  0  0  0  0
  7  8  1  0  0  0  0
  7 20  4  0  0  0  0
  8  9  1  0  0  0  0
  8 13  1  0  0  0  0
  9 10  1  0  0  0  0
 10 11  1  0  0  0  0
 11 12  1  0  0  0  0
 11 14  1  0  0  0  0
 12 13  1  0  0  0  0
 14 15  1  0  0  0  0
 15 16  4  0  0  0  0
 15 19  4  0  0  0  0
 16 17  4  0  0  0  0
 17 18  4  0  0  0  0
 18 19  4  0  0  0  0
 20 21  4  0  0  0  0
 21 22  4  0  0  0  0
M  STY  1   1 DAT
M  SAL   1  1  18
M  SDT   1 MRV_IMPLICIT_H                                        
M  SDD   1     0.0000    0.0000    DR    ALL  0       0  
M  SED   1 IMPL_H1
M  END
>  <Name_Molregno>
650957

>  <HISTAMINE H3>
9

$$$$
650958
  Marvin  02231216192D 0   1.00000     0.00000     0

 21 23  0  0  0  0  0  0  0  0999 V2000
   -5.7829   -4.0981    0.0000 N   0  0  0  0  0  0  0  0  0
   -6.0378   -3.3135    0.0000 C   0  0  0  0  0  0  0  0  0
   -5.3704   -2.8285    0.0000 C   0  0  0  0  0  0  0  0  0
   -4.7029   -3.3135    0.0000 N   0  0  0  0  0  0  0  0  0
   -4.9579   -4.0981    0.0000 C   0  0  0  0  0  0  0  0  0
   -5.3704   -2.0035    0.0000 C   0  0  0  0  0  0  0  0  0
   -4.6559   -1.5910    0.0000 C   0  0  0  0  0  0  0  0  0
   -4.6559   -0.7660    0.0000 C   0  0  0  0  0  0  0  0  0
   -3.9414   -0.3535    0.0000 C   0  0  0  0  0  0  0  0  0
   -3.2270   -0.7660    0.0000 N   0  0  0  0  0  0  0  0  0
   -3.2270   -1.5910    0.0000 C   0  0  0  0  0  0  0  0  0
   -3.9414   -2.0035    0.0000 C   0  0  0  0  0  0  0  0  0
   -2.5125   -0.3535    0.0000 C   0  0  0  0  0  0  0  0  0
   -2.5125    0.4715    0.0000 C   0  0  0  0  0  0  0  0  0
   -1.7980    0.8840    0.0000 C   0  0  0  0  0  0  0  0  0
   -1.0835    0.4715    0.0000 C   0  0  0  0  0  0  0  0  0
   -1.0835   -0.3535    0.0000 C   0  0  0  0  0  0  0  0  0
   -1.7980   -0.7660    0.0000 C   0  0  0  0  0  0  0  0  0
   -0.3691    0.8840    0.0000 C   0  0  0  0  0  0  0  0  0
   -0.3691    1.7090    0.0000 C   0  0  0  0  0  0  0  0  0
    0.3454    0.4715    0.0000 C   0  0  0  0  0  0  0  0  0
  1  2  4  0  0  0  0
  1  5  4  0  0  0  0
  2  3  4  0  0  0  0
  3  4  4  0  0  0  0
  3  6  1  0  0  0  0
  4  5  4  0  0  0  0
  6  7  1  0  0  0  0
  7  8  1  0  0  0  0
  7 12  1  0  0  0  0
  8  9  1  0  0  0  0
  9 10  1  0  0  0  0
 10 11  1  0  0  0  0
 10 13  1  0  0  0  0
 11 12  1  0  0  0  0
 13 14  4  0  0  0  0
 13 18  4  0  0  0  0
 14 15  4  0  0  0  0
 15 16  4  0  0  0  0
 16 17  4  0  0  0  0
 16 19  1  0  0  0  0
 17 18  4  0  0  0  0
 19 20  1  0  0  0  0
 19 21  1  0  0  0  0
M  STY  1   1 DAT
M  SAL   1  1   1
M  SDT   1 MRV_IMPLICIT_H                                        
M  SDD   1     0.0000    0.0000    DR    ALL  0       0  
M  SED   1 IMPL_H1
M  END
>  <Name_Molregno>
650958

>  <HISTAMINE H3>
7.85

$$$$
650959
  Marvin  02231216192D 0   1.00000     0.00000     0

 21 23  0  0  0  0  0  0  0  0999 V2000
   -5.6371   -3.9550    0.0000 N   0  0  0  0  0  0  0  0  0
   -5.8920   -3.1703    0.0000 C   0  0  0  0  0  0  0  0  0
   -5.2246   -2.6854    0.0000 C   0  0  0  0  0  0  0  0  0
   -4.5572   -3.1703    0.0000 N   0  0  0  0  0  0  0  0  0
   -4.8121   -3.9550    0.0000 C   0  0  0  0  0  0  0  0  0
   -5.2246   -1.8604    0.0000 C   0  0  0  0  0  0  0  0  0
   -4.5101   -1.4479    0.0000 C   0  0  0  0  0  0  0  0  0
   -4.5101   -0.6229    0.0000 C   0  0  0  0  0  0  0  0  0
   -3.7957   -0.2104    0.0000 C   0  0  0  0  0  0  0  0  0
   -3.0812   -0.6229    0.0000 N   0  0  0  0  0  0  0  0  0
   -3.0812   -1.4479    0.0000 C   0  0  0  0  0  0  0  0  0
   -3.7957   -1.8604    0.0000 C   0  0  0  0  0  0  0  0  0
   -2.3667   -0.2104    0.0000 C   0  0  0  0  0  0  0  0  0
   -2.3667    0.6146    0.0000 C   0  0  0  0  0  0  0  0  0
   -1.6523    1.0271    0.0000 C   0  0  0  0  0  0  0  0  0
   -0.9378    0.6146    0.0000 C   0  0  0  0  0  0  0  0  0
   -0.9378   -0.2104    0.0000 C   0  0  0  0  0  0  0  0  0
   -1.6523   -0.6229    0.0000 C   0  0  0  0  0  0  0  0  0
   -1.6523    1.8521    0.0000 C   0  0  0  0  0  0  0  0  0
   -2.3667    2.2646    0.0000 C   0  0  0  0  0  0  0  0  0
   -0.9378    2.2646    0.0000 C   0  0  0  0  0  0  0  0  0
  1  2  4  0  0  0  0
  1  5  4  0  0  0  0
  2  3  4  0  0  0  0
  3  4  4  0  0  0  0
  3  6  1  0  0  0  0
  4  5  4  0  0  0  0
  6  7  1  0  0  0  0
  7  8  1  0  0  0  0
  7 12  1  0  0  0  0
  8  9  1  0  0  0  0
  9 10  1  0  0  0  0
 10 11  1  0  0  0  0
 10 13  1  0  0  0  0
 11 12  1  0  0  0  0
 13 14  4  0  0  0  0
 13 18  4  0  0  0  0
 14 15  4  0  0  0  0
 15 16  4  0  0  0  0
 15 19  1  0  0  0  0
 16 17  4  0  0  0  0
 17 18  4  0  0  0  0
 19 20  1  0  0  0  0
 19 21  1  0  0  0  0
M  STY  1   1 DAT
M  SAL   1  1   1
M  SDT   1 MRV_IMPLICIT_H                                        
M  SDD   1     0.0000    0.0000    DR    ALL  0       0  
M  SED   1 IMPL_H1
M  END
>  <Name_Molregno>
650959

>  <HISTAMINE H3>
9

$$$$
650960
  Marvin  02231216192D 0   1.00000     0.00000     0

 20 22  0  0  0  0  0  0  0  0999 V2000
   -6.5038    2.4469    0.0000 O   0  0  0  0  0  0  0  0  0
   -7.2183    2.0344    0.0000 C   0  0  0  0  0  0  0  0  0
   -5.7893    2.0344    0.0000 C   0  0  0  0  0  0  0  0  0
   -5.0749    2.4469    0.0000 C   0  0  0  0  0  0  0  0  0
   -4.3604    2.0344    0.0000 C   0  0  0  0  0  0  0  0  0
   -4.3604    1.2094    0.0000 C   0  0  0  0  0  0  0  0  0
   -3.6459    0.7969    0.0000 N   0  0  0  0  0  0  0  0  0
   -2.9314    1.2094    0.0000 C   0  0  0  0  0  0  0  0  0
   -2.2170    0.7969    0.0000 C   0  0  0  0  0  0  0  0  0
   -2.2170   -0.0281    0.0000 C   0  0  0  0  0  0  0  0  0
   -2.9314   -0.4406    0.0000 C   0  0  0  0  0  0  0  0  0
   -3.6459   -0.0281    0.0000 C   0  0  0  0  0  0  0  0  0
   -1.5025   -0.4406    0.0000 C   0  0  0  0  0  0  0  0  0
   -1.5025   -1.2656    0.0000 C   0  0  0  0  0  0  0  0  0
   -0.8351   -1.7505    0.0000 N   0  0  0  0  0  0  0  0  0
   -1.0900   -2.5352    0.0000 C   0  0  0  0  0  0  0  0  0
   -1.9150   -2.5352    0.0000 N   0  0  0  0  0  0  0  0  0
   -2.1699   -1.7505    0.0000 C   0  0  0  0  0  0  0  0  0
   -5.0749    0.7969    0.0000 C   0  0  0  0  0  0  0  0  0
   -5.7893    1.2094    0.0000 C   0  0  0  0  0  0  0  0  0
  1  2  1  0  0  0  0
  1  3  1  0  0  0  0
  3  4  4  0  0  0  0
  3 20  4  0  0  0  0
  4  5  4  0  0  0  0
  5  6  4  0  0  0  0
  6  7  1  0  0  0  0
  6 19  4  0  0  0  0
  7  8  1  0  0  0  0
  7 12  1  0  0  0  0
  8  9  1  0  0  0  0
  9 10  1  0  0  0  0
 10 11  1  0  0  0  0
 10 13  1  0  0  0  0
 11 12  1  0  0  0  0
 13 14  1  0  0  0  0
 14 15  4  0  0  0  0
 14 18  4  0  0  0  0
 15 16  4  0  0  0  0
 16 17  4  0  0  0  0
 17 18  4  0  0  0  0
 19 20  4  0  0  0  0
M  STY  1   1 DAT
M  SAL   1  1  17
M  SDT   1 MRV_IMPLICIT_H                                        
M  SDD   1     0.0000    0.0000    DR    ALL  0       0  
M  SED   1 IMPL_H1
M  END
>  <Name_Molregno>
650960

>  <HISTAMINE H1>
6

>  <HISTAMINE H2>
6

>  <HISTAMINE H3>
8.27

>  <HISTAMINE H4>
5.51

$$$$
650961
  Marvin  02231216192D 0   1.00000     0.00000     0

 22 24  0  0  0  0  0  0  0  0999 V2000
   -6.0741   -4.1429    0.0000 N   0  0  0  0  0  0  0  0  0
   -6.3290   -3.3583    0.0000 C   0  0  0  0  0  0  0  0  0
   -5.6616   -2.8734    0.0000 C   0  0  0  0  0  0  0  0  0
   -4.9942   -3.3583    0.0000 N   0  0  0  0  0  0  0  0  0
   -5.2491   -4.1429    0.0000 C   0  0  0  0  0  0  0  0  0
   -5.6616   -2.0484    0.0000 C   0  0  0  0  0  0  0  0  0
   -4.9471   -1.6359    0.0000 C   0  0  0  0  0  0  0  0  0
   -4.9471   -0.8109    0.0000 C   0  0  0  0  0  0  0  0  0
   -4.2327   -0.3984    0.0000 C   0  0  0  0  0  0  0  0  0
   -3.5182   -0.8109    0.0000 N   0  0  0  0  0  0  0  0  0
   -3.5182   -1.6359    0.0000 C   0  0  0  0  0  0  0  0  0
   -4.2327   -2.0484    0.0000 C   0  0  0  0  0  0  0  0  0
   -2.8037   -0.3984    0.0000 C   0  0  0  0  0  0  0  0  0
   -2.8037    0.4266    0.0000 C   0  0  0  0  0  0  0  0  0
   -2.0892    0.8391    0.0000 C   0  0  0  0  0  0  0  0  0
   -1.3748    0.4266    0.0000 C   0  0  0  0  0  0  0  0  0
   -1.3748   -0.3984    0.0000 C   0  0  0  0  0  0  0  0  0
   -2.0892   -0.8109    0.0000 C   0  0  0  0  0  0  0  0  0
   -0.6603    0.8391    0.0000 C   0  0  0  0  0  0  0  0  0
    0.0542    1.2516    0.0000 C   0  0  0  0  0  0  0  0  0
   -0.2478    0.1247    0.0000 C   0  0  0  0  0  0  0  0  0
   -1.0728    1.5536    0.0000 C   0  0  0  0  0  0  0  0  0
  1  2  4  0  0  0  0
  1  5  4  0  0  0  0
  2  3  4  0  0  0  0
  3  4  4  0  0  0  0
  3  6  1  0  0  0  0
  4  5  4  0  0  0  0
  6  7  1  0  0  0  0
  7  8  1  0  0  0  0
  7 12  1  0  0  0  0
  8  9  1  0  0  0  0
  9 10  1  0  0  0  0
 10 11  1  0  0  0  0
 10 13  1  0  0  0  0
 11 12  1  0  0  0  0
 13 14  4  0  0  0  0
 13 18  4  0  0  0  0
 14 15  4  0  0  0  0
 15 16  4  0  0  0  0
 16 17  4  0  0  0  0
 16 19  1  0  0  0  0
 17 18  4  0  0  0  0
 19 20  1  0  0  0  0
 19 21  1  0  0  0  0
 19 22  1  0  0  0  0
M  STY  1   1 DAT
M  SAL   1  1   1
M  SDT   1 MRV_IMPLICIT_H                                        
M  SDD   1     0.0000    0.0000    DR    ALL  0       0  
M  SED   1 IMPL_H1
M  END
>  <Name_Molregno>
650961

>  <HISTAMINE H3>
7.85

$$$$
651021
  Marvin  02231216192D 0   1.00000     0.00000     0

 20 22  0  0  0  0  0  0  0  0999 V2000
   -5.5484   -3.6776    0.0000 N   0  0  0  0  0  0  0  0  0
   -5.8034   -2.8930    0.0000 C   0  0  0  0  0  0  0  0  0
   -5.1359   -2.4081    0.0000 C   0  0  0  0  0  0  0  0  0
   -4.4685   -2.8930    0.0000 N   0  0  0  0  0  0  0  0  0
   -4.7234   -3.6776    0.0000 C   0  0  0  0  0  0  0  0  0
   -5.1359   -1.5831    0.0000 C   0  0  0  0  0  0  0  0  0
   -4.4214   -1.1706    0.0000 C   0  0  0  0  0  0  0  0  0
   -4.4214   -0.3456    0.0000 C   0  0  0  0  0  0  0  0  0
   -3.7070    0.0669    0.0000 C   0  0  0  0  0  0  0  0  0
   -2.9925   -0.3456    0.0000 N   0  0  0  0  0  0  0  0  0
   -2.9925   -1.1706    0.0000 C   0  0  0  0  0  0  0  0  0
   -3.7070   -1.5831    0.0000 C   0  0  0  0  0  0  0  0  0
   -2.2780    0.0669    0.0000 C   0  0  0  0  0  0  0  0  0
   -2.2780    0.8919    0.0000 C   0  0  0  0  0  0  0  0  0
   -1.5636    1.3044    0.0000 C   0  0  0  0  0  0  0  0  0
   -0.8491    0.8919    0.0000 C   0  0  0  0  0  0  0  0  0
   -0.1346    1.3044    0.0000 N   0  0  0  0  0  0  0  0  0
   -0.1346    2.1294    0.0000 C   0  0  0  0  0  0  0  0  0
   -0.8491    0.0669    0.0000 C   0  0  0  0  0  0  0  0  0
   -1.5636   -0.3456    0.0000 C   0  0  0  0  0  0  0  0  0
  1  2  4  0  0  0  0
  1  5  4  0  0  0  0
  2  3  4  0  0  0  0
  3  4  4  0  0  0  0
  3  6  1  0  0  0  0
  4  5  4  0  0  0  0
  6  7  1  0  0  0  0
  7  8  1  0  0  0  0
  7 12  1  0  0  0  0
  8  9  1  0  0  0  0
  9 10  1  0  0  0  0
 10 11  1  0  0  0  0
 10 13  1  0  0  0  0
 11 12  1  0  0  0  0
 13 14  4  0  0  0  0
 13 20  4  0  0  0  0
 14 15  4  0  0  0  0
 15 16  4  0  0  0  0
 16 17  1  0  0  0  0
 16 19  4  0  0  0  0
 17 18  1  0  0  0  0
 19 20  4  0  0  0  0
M  STY  1   1 DAT
M  SAL   1  1   1
M  SDT   1 MRV_IMPLICIT_H                                        
M  SDD   1     0.0000    0.0000    DR    ALL  0       0  
M  SED   1 IMPL_H1
M  END
>  <Name_Molregno>
651021

>  <HISTAMINE H3>
8.8

$$$$
676018
  Marvin  02231216192D 0   1.00000     0.00000     0

 22 23  0  0  1  0  0  0  0  0999 V2000
   -0.0151   -0.0747    0.0000 O   0  0  0  0  0  0  0  0  0
    0.6993    0.3378    0.0000 C   0  0  0  0  0  0  0  0  0
    1.4138   -0.0747    0.0000 C   0  0  0  0  0  0  0  0  0
    2.1283    0.3378    0.0000 O   0  0  0  0  0  0  0  0  0
    2.8427   -0.0747    0.0000 C   0  0  0  0  0  0  0  0  0
    3.5572    0.3378    0.0000 C   0  0  0  0  0  0  0  0  0
    4.2717   -0.0747    0.0000 C   0  0  0  0  0  0  0  0  0
    4.9862    0.3378    0.0000 N   0  0  0  0  0  0  0  0  0
    4.9862    1.1628    0.0000 C   0  0  0  0  0  0  0  0  0
    5.7006    1.5753    0.0000 C   0  0  0  0  0  0  0  0  0
    6.4151    1.1628    0.0000 C   0  0  0  0  0  0  0  0  0
    6.4151    0.3378    0.0000 C   0  0  0  0  0  0  0  0  0
    5.7006   -0.0747    0.0000 C   0  0  0  0  0  0  0  0  0
    5.7006    2.4003    0.0000 C   0  0  0  0  0  0  0  0  0
   -0.7296    0.3378    0.0000 C   0  0  0  0  0  0  0  0  0
   -1.4441   -0.0747    0.0000 C   0  0  0  0  0  0  0  0  0
   -2.1586    0.3378    0.0000 C   0  0  0  0  0  0  0  0  0
   -2.8730   -0.0747    0.0000 O   0  0  0  0  0  0  0  0  0
   -2.8730   -0.8997    0.0000 C   0  0  0  0  0  0  0  0  0
   -2.1586    1.1628    0.0000 C   0  0  0  0  0  0  0  0  0
   -1.4441    1.5753    0.0000 C   0  0  0  0  0  0  0  0  0
   -0.7296    1.1628    0.0000 C   0  0  0  0  0  0  0  0  0
  1  2  1  0  0  0  0
  1 15  1  0  0  0  0
  2  3  1  0  0  0  0
  3  4  1  0  0  0  0
  4  5  1  0  0  0  0
  5  6  1  0  0  0  0
  6  7  1  0  0  0  0
  7  8  1  0  0  0  0
  8  9  1  0  0  0  0
  8 13  1  0  0  0  0
  9 10  1  0  0  0  0
 10 11  1  0  0  0  0
 10 14  1  0  0  0  0
 11 12  1  0  0  0  0
 12 13  1  0  0  0  0
 15 16  4  0  0  0  0
 15 22  4  0  0  0  0
 16 17  4  0  0  0  0
 17 18  1  0  0  0  0
 17 20  4  0  0  0  0
 18 19  1  0  0  0  0
 20 21  4  0  0  0  0
 21 22  4  0  0  0  0
M  END
>  <Name_Molregno>
676018

>  <HISTAMINE H3>
7.9

$$$$
676019
  Marvin  02231216192D 0   1.00000     0.00000     0

 22 23  0  0  0  0  0  0  0  0999 V2000
   -0.0797   -1.1225    0.0000 O   0  0  0  0  0  0  0  0  0
    0.6348   -0.7100    0.0000 C   0  0  0  0  0  0  0  0  0
    1.3493   -1.1225    0.0000 C   0  0  0  0  0  0  0  0  0
    2.0638   -0.7100    0.0000 O   0  0  0  0  0  0  0  0  0
    2.7782   -1.1225    0.0000 C   0  0  0  0  0  0  0  0  0
    3.4927   -0.7100    0.0000 C   0  0  0  0  0  0  0  0  0
    4.2072   -1.1225    0.0000 C   0  0  0  0  0  0  0  0  0
    4.9216   -0.7100    0.0000 N   0  0  0  0  0  0  0  0  0
    4.9216    0.1150    0.0000 C   0  0  0  0  0  0  0  0  0
    5.6361    0.5275    0.0000 C   0  0  0  0  0  0  0  0  0
    6.3506    0.1150    0.0000 C   0  0  0  0  0  0  0  0  0
    6.3506   -0.7100    0.0000 C   0  0  0  0  0  0  0  0  0
    5.6361   -1.1225    0.0000 C   0  0  0  0  0  0  0  0  0
    7.0651    0.5275    0.0000 C   0  0  0  0  0  0  0  0  0
   -0.7941   -0.7100    0.0000 C   0  0  0  0  0  0  0  0  0
   -1.5086   -1.1225    0.0000 C   0  0  0  0  0  0  0  0  0
   -2.2231   -0.7100    0.0000 C   0  0  0  0  0  0  0  0  0
   -2.9375   -1.1225    0.0000 O   0  0  0  0  0  0  0  0  0
   -2.9375   -1.9475    0.0000 C   0  0  0  0  0  0  0  0  0
   -2.2231    0.1150    0.0000 C   0  0  0  0  0  0  0  0  0
   -1.5086    0.5275    0.0000 C   0  0  0  0  0  0  0  0  0
   -0.7941    0.1150    0.0000 C   0  0  0  0  0  0  0  0  0
  1  2  1  0  0  0  0
  1 15  1  0  0  0  0
  2  3  1  0  0  0  0
  3  4  1  0  0  0  0
  4  5  1  0  0  0  0
  5  6  1  0  0  0  0
  6  7  1  0  0  0  0
  7  8  1  0  0  0  0
  8  9  1  0  0  0  0
  8 13  1  0  0  0  0
  9 10  1  0  0  0  0
 10 11  1  0  0  0  0
 11 12  1  0  0  0  0
 11 14  1  0  0  0  0
 12 13  1  0  0  0  0
 15 16  4  0  0  0  0
 15 22  4  0  0  0  0
 16 17  4  0  0  0  0
 17 18  1  0  0  0  0
 17 20  4  0  0  0  0
 18 19  1  0  0  0  0
 20 21  4  0  0  0  0
 21 22  4  0  0  0  0
M  END
>  <Name_Molregno>
676019

>  <HISTAMINE H3>
8.14

$$$$
676020
  Marvin  02231216192D 0   1.00000     0.00000     0

 24 25  0  0  1  0  0  0  0  0999 V2000
    0.0228   -0.1267    0.0000 O   0  0  0  0  0  0  0  0  0
    0.7372    0.2858    0.0000 C   0  0  0  0  0  0  0  0  0
    1.4517   -0.1267    0.0000 C   0  0  0  0  0  0  0  0  0
    2.1662    0.2858    0.0000 O   0  0  0  0  0  0  0  0  0
    2.8807   -0.1267    0.0000 C   0  0  0  0  0  0  0  0  0
    3.5951    0.2858    0.0000 C   0  0  0  0  0  0  0  0  0
    4.3096   -0.1267    0.0000 C   0  0  0  0  0  0  0  0  0
    5.0241    0.2858    0.0000 N   0  0  0  0  0  0  0  0  0
    5.0241    1.1108    0.0000 C   0  0  0  0  0  0  0  0  0
    5.7385    1.5233    0.0000 C   0  0  0  0  0  0  0  0  0
    6.4530    1.1108    0.0000 C   0  0  0  0  0  0  0  0  0
    6.4530    0.2858    0.0000 C   0  0  0  0  0  0  0  0  0
    5.7385   -0.1267    0.0000 C   0  0  0  0  0  0  0  0  0
    5.7385    2.3483    0.0000 C   0  0  0  0  0  0  0  0  0
   -0.6917    0.2858    0.0000 C   0  0  0  0  0  0  0  0  0
   -1.4062   -0.1267    0.0000 C   0  0  0  0  0  0  0  0  0
   -2.1206    0.2858    0.0000 C   0  0  0  0  0  0  0  0  0
   -2.1206    1.1108    0.0000 C   0  0  0  0  0  0  0  0  0
   -1.4062    1.5233    0.0000 C   0  0  0  0  0  0  0  0  0
   -0.6917    1.1108    0.0000 C   0  0  0  0  0  0  0  0  0
   -2.8351    1.5233    0.0000 C   0  0  0  0  0  0  0  0  0
   -3.5496    1.9358    0.0000 C   0  0  0  0  0  0  0  0  0
   -2.4226    2.2378    0.0000 C   0  0  0  0  0  0  0  0  0
   -3.2476    0.8089    0.0000 C   0  0  0  0  0  0  0  0  0
  1  2  1  0  0  0  0
  1 15  1  0  0  0  0
  2  3  1  0  0  0  0
  3  4  1  0  0  0  0
  4  5  1  0  0  0  0
  5  6  1  0  0  0  0
  6  7  1  0  0  0  0
  7  8  1  0  0  0  0
  8  9  1  0  0  0  0
  8 13  1  0  0  0  0
  9 10  1  0  0  0  0
 10 11  1  0  0  0  0
 10 14  1  0  0  0  0
 11 12  1  0  0  0  0
 12 13  1  0  0  0  0
 15 16  4  0  0  0  0
 15 20  4  0  0  0  0
 16 17  4  0  0  0  0
 17 18  4  0  0  0  0
 18 19  4  0  0  0  0
 18 21  1  0  0  0  0
 19 20  4  0  0  0  0
 21 22  1  0  0  0  0
 21 23  1  0  0  0  0
 21 24  1  0  0  0  0
M  END
>  <Name_Molregno>
676020

>  <HISTAMINE H3>
7.56

$$$$
676021
  Marvin  02231216192D 0   1.00000     0.00000     0

 23 24  0  0  1  0  0  0  0  0999 V2000
   -0.0903    0.0598    0.0000 O   0  0  0  0  0  0  0  0  0
    0.6241    0.4723    0.0000 C   0  0  0  0  0  0  0  0  0
    1.3386    0.0598    0.0000 C   0  0  0  0  0  0  0  0  0
    2.0531    0.4723    0.0000 C   0  0  0  0  0  0  0  0  0
    2.7675    0.0598    0.0000 O   0  0  0  0  0  0  0  0  0
    3.4820    0.4723    0.0000 C   0  0  0  0  0  0  0  0  0
    4.1965    0.0598    0.0000 C   0  0  0  0  0  0  0  0  0
    4.9110    0.4723    0.0000 C   0  0  0  0  0  0  0  0  0
    5.6254    0.0598    0.0000 N   0  0  0  0  0  0  0  0  0
    6.3399    0.4723    0.0000 C   0  0  0  0  0  0  0  0  0
    7.0544    0.0598    0.0000 C   0  0  0  0  0  0  0  0  0
    7.0544   -0.7652    0.0000 C   0  0  0  0  0  0  0  0  0
    6.3399   -1.1777    0.0000 C   0  0  0  0  0  0  0  0  0
    5.6254   -0.7652    0.0000 C   0  0  0  0  0  0  0  0  0
    7.7688    0.4723    0.0000 C   0  0  0  0  0  0  0  0  0
   -0.8048    0.4723    0.0000 C   0  0  0  0  0  0  0  0  0
   -1.5193    0.0598    0.0000 C   0  0  0  0  0  0  0  0  0
   -2.2338    0.4723    0.0000 C   0  0  0  0  0  0  0  0  0
   -2.9482    0.0598    0.0000 O   0  0  0  0  0  0  0  0  0
   -2.9482   -0.7652    0.0000 C   0  0  0  0  0  0  0  0  0
   -2.2338    1.2973    0.0000 C   0  0  0  0  0  0  0  0  0
   -1.5193    1.7098    0.0000 C   0  0  0  0  0  0  0  0  0
   -0.8048    1.2973    0.0000 C   0  0  0  0  0  0  0  0  0
  1  2  1  0  0  0  0
  1 16  1  0  0  0  0
  2  3  1  0  0  0  0
  3  4  1  0  0  0  0
  4  5  1  0  0  0  0
  5  6  1  0  0  0  0
  6  7  1  0  0  0  0
  7  8  1  0  0  0  0
  8  9  1  0  0  0  0
  9 10  1  0  0  0  0
  9 14  1  0  0  0  0
 10 11  1  0  0  0  0
 11 12  1  0  0  0  0
 11 15  1  0  0  0  0
 12 13  1  0  0  0  0
 13 14  1  0  0  0  0
 16 17  4  0  0  0  0
 16 23  4  0  0  0  0
 17 18  4  0  0  0  0
 18 19  1  0  0  0  0
 18 21  4  0  0  0  0
 19 20  1  0  0  0  0
 21 22  4  0  0  0  0
 22 23  4  0  0  0  0
M  END
>  <Name_Molregno>
676021

>  <HISTAMINE H3>
7.31

$$$$
676022
  Marvin  02231216192D 0   1.00000     0.00000     0

 23 24  0  0  0  0  0  0  0  0999 V2000
   -0.0894    0.0529    0.0000 O   0  0  0  0  0  0  0  0  0
    0.6251    0.4654    0.0000 C   0  0  0  0  0  0  0  0  0
    1.3395    0.0529    0.0000 C   0  0  0  0  0  0  0  0  0
    2.0540    0.4654    0.0000 C   0  0  0  0  0  0  0  0  0
    2.7685    0.0529    0.0000 O   0  0  0  0  0  0  0  0  0
    3.4829    0.4654    0.0000 C   0  0  0  0  0  0  0  0  0
    4.1974    0.0529    0.0000 C   0  0  0  0  0  0  0  0  0
    4.9119    0.4654    0.0000 C   0  0  0  0  0  0  0  0  0
    5.6264    0.0529    0.0000 N   0  0  0  0  0  0  0  0  0
    6.3408    0.4654    0.0000 C   0  0  0  0  0  0  0  0  0
    7.0553    0.0529    0.0000 C   0  0  0  0  0  0  0  0  0
    7.0553   -0.7721    0.0000 C   0  0  0  0  0  0  0  0  0
    6.3408   -1.1846    0.0000 C   0  0  0  0  0  0  0  0  0
    5.6264   -0.7721    0.0000 C   0  0  0  0  0  0  0  0  0
    7.7698   -1.1846    0.0000 C   0  0  0  0  0  0  0  0  0
   -0.8039    0.4654    0.0000 C   0  0  0  0  0  0  0  0  0
   -1.5183    0.0529    0.0000 C   0  0  0  0  0  0  0  0  0
   -2.2328    0.4654    0.0000 C   0  0  0  0  0  0  0  0  0
   -2.9473    0.0529    0.0000 O   0  0  0  0  0  0  0  0  0
   -2.9473   -0.7721    0.0000 C   0  0  0  0  0  0  0  0  0
   -2.2328    1.2904    0.0000 C   0  0  0  0  0  0  0  0  0
   -1.5183    1.7029    0.0000 C   0  0  0  0  0  0  0  0  0
   -0.8039    1.2904    0.0000 C   0  0  0  0  0  0  0  0  0
  1  2  1  0  0  0  0
  1 16  1  0  0  0  0
  2  3  1  0  0  0  0
  3  4  1  0  0  0  0
  4  5  1  0  0  0  0
  5  6  1  0  0  0  0
  6  7  1  0  0  0  0
  7  8  1  0  0  0  0
  8  9  1  0  0  0  0
  9 10  1  0  0  0  0
  9 14  1  0  0  0  0
 10 11  1  0  0  0  0
 11 12  1  0  0  0  0
 12 13  1  0  0  0  0
 12 15  1  0  0  0  0
 13 14  1  0  0  0  0
 16 17  4  0  0  0  0
 16 23  4  0  0  0  0
 17 18  4  0  0  0  0
 18 19  1  0  0  0  0
 18 21  4  0  0  0  0
 19 20  1  0  0  0  0
 21 22  4  0  0  0  0
 22 23  4  0  0  0  0
M  END
>  <Name_Molregno>
676022

>  <HISTAMINE H3>
7.73

$$$$
676023
  Marvin  02231216192D 0   1.00000     0.00000     0

 23 24  0  0  0  0  0  0  0  0999 V2000
   -0.0874    0.0360    0.0000 O   0  0  0  0  0  0  0  0  0
    0.6271    0.4485    0.0000 C   0  0  0  0  0  0  0  0  0
    1.3415    0.0360    0.0000 C   0  0  0  0  0  0  0  0  0
    2.0560    0.4485    0.0000 C   0  0  0  0  0  0  0  0  0
    2.7705    0.0360    0.0000 O   0  0  0  0  0  0  0  0  0
    3.4849    0.4485    0.0000 C   0  0  0  0  0  0  0  0  0
    4.1994    0.0360    0.0000 C   0  0  0  0  0  0  0  0  0
    4.9139    0.4485    0.0000 C   0  0  0  0  0  0  0  0  0
    5.6284    0.0360    0.0000 N   0  0  0  0  0  0  0  0  0
    6.3100    0.5007    0.0000 C   0  0  0  0  0  0  0  0  0
    7.0984    0.2576    0.0000 C   0  0  0  0  0  0  0  0  0
    7.3998   -0.5104    0.0000 C   0  0  0  0  0  0  0  0  0
    6.9873   -1.2249    0.0000 C   0  0  0  0  0  0  0  0  0
    6.1715   -1.3478    0.0000 C   0  0  0  0  0  0  0  0  0
    5.5667   -0.7867    0.0000 C   0  0  0  0  0  0  0  0  0
   -0.8019    0.4485    0.0000 C   0  0  0  0  0  0  0  0  0
   -1.5164    0.0360    0.0000 C   0  0  0  0  0  0  0  0  0
   -2.2308    0.4485    0.0000 C   0  0  0  0  0  0  0  0  0
   -2.9453    0.0360    0.0000 O   0  0  0  0  0  0  0  0  0
   -2.9453   -0.7890    0.0000 C   0  0  0  0  0  0  0  0  0
   -2.2308    1.2735    0.0000 C   0  0  0  0  0  0  0  0  0
   -1.5164    1.6860    0.0000 C   0  0  0  0  0  0  0  0  0
   -0.8019    1.2735    0.0000 C   0  0  0  0  0  0  0  0  0
  1  2  1  0  0  0  0
  1 16  1  0  0  0  0
  2  3  1  0  0  0  0
  3  4  1  0  0  0  0
  4  5  1  0  0  0  0
  5  6  1  0  0  0  0
  6  7  1  0  0  0  0
  7  8  1  0  0  0  0
  8  9  1  0  0  0  0
  9 10  1  0  0  0  0
  9 15  1  0  0  0  0
 10 11  1  0  0  0  0
 11 12  1  0  0  0  0
 12 13  1  0  0  0  0
 13 14  1  0  0  0  0
 14 15  1  0  0  0  0
 16 17  4  0  0  0  0
 16 23  4  0  0  0  0
 17 18  4  0  0  0  0
 18 19  1  0  0  0  0
 18 21  4  0  0  0  0
 19 20  1  0  0  0  0
 21 22  4  0  0  0  0
 22 23  4  0  0  0  0
M  END
>  <Name_Molregno>
676023

>  <HISTAMINE H3>
8.49

$$$$
676024
  Marvin  02231216192D 0   1.00000     0.00000     0

 22 23  0  0  1  0  0  0  0  0999 V2000
    0.0174    1.0238    0.0000 Cl  0  0  0  0  0  0  0  0  0
    0.7318    0.6113    0.0000 C   0  0  0  0  0  0  0  0  0
    1.4463    1.0238    0.0000 C   0  0  0  0  0  0  0  0  0
    2.1608    0.6113    0.0000 C   0  0  0  0  0  0  0  0  0
    2.1608   -0.2137    0.0000 C   0  0  0  0  0  0  0  0  0
    2.8752   -0.6262    0.0000 O   0  0  0  0  0  0  0  0  0
    3.5897   -0.2137    0.0000 C   0  0  0  0  0  0  0  0  0
    4.3042   -0.6262    0.0000 C   0  0  0  0  0  0  0  0  0
    5.0187   -0.2137    0.0000 C   0  0  0  0  0  0  0  0  0
    5.7331   -0.6262    0.0000 O   0  0  0  0  0  0  0  0  0
    6.4476   -0.2137    0.0000 C   0  0  0  0  0  0  0  0  0
    7.1621   -0.6262    0.0000 C   0  0  0  0  0  0  0  0  0
    7.8765   -0.2137    0.0000 C   0  0  0  0  0  0  0  0  0
    8.5910   -0.6262    0.0000 N   0  0  0  0  0  0  0  0  0
    9.3055   -0.2137    0.0000 C   0  0  0  0  0  0  0  0  0
   10.0200   -0.6262    0.0000 C   0  0  0  0  0  0  0  0  0
   10.0200   -1.4512    0.0000 C   0  0  0  0  0  0  0  0  0
    9.3055   -1.8637    0.0000 C   0  0  0  0  0  0  0  0  0
    8.5910   -1.4512    0.0000 C   0  0  0  0  0  0  0  0  0
   10.7344   -0.2137    0.0000 C   0  0  0  0  0  0  0  0  0
    1.4463   -0.6262    0.0000 C   0  0  0  0  0  0  0  0  0
    0.7318   -0.2137    0.0000 C   0  0  0  0  0  0  0  0  0
  1  2  1  0  0  0  0
  2  3  4  0  0  0  0
  2 22  4  0  0  0  0
  3  4  4  0  0  0  0
  4  5  4  0  0  0  0
  5  6  1  0  0  0  0
  5 21  4  0  0  0  0
  6  7  1  0  0  0  0
  7  8  1  0  0  0  0
  8  9  1  0  0  0  0
  9 10  1  0  0  0  0
 10 11  1  0  0  0  0
 11 12  1  0  0  0  0
 12 13  1  0  0  0  0
 13 14  1  0  0  0  0
 14 15  1  0  0  0  0
 14 19  1  0  0  0  0
 15 16  1  0  0  0  0
 16 17  1  0  0  0  0
 16 20  1  0  0  0  0
 17 18  1  0  0  0  0
 18 19  1  0  0  0  0
 21 22  4  0  0  0  0
M  END
>  <Name_Molregno>
676024

>  <HISTAMINE H3>
7.55

$$$$
676025
  Marvin  02231216192D 0   1.00000     0.00000     0

 22 23  0  0  0  0  0  0  0  0999 V2000
    0.0299    1.8725    0.0000 Cl  0  0  0  0  0  0  0  0  0
    0.7444    1.4600    0.0000 C   0  0  0  0  0  0  0  0  0
    1.4589    1.8725    0.0000 C   0  0  0  0  0  0  0  0  0
    2.1734    1.4600    0.0000 C   0  0  0  0  0  0  0  0  0
    2.1734    0.6350    0.0000 C   0  0  0  0  0  0  0  0  0
    2.8878    0.2225    0.0000 O   0  0  0  0  0  0  0  0  0
    3.6023    0.6350    0.0000 C   0  0  0  0  0  0  0  0  0
    4.3168    0.2225    0.0000 C   0  0  0  0  0  0  0  0  0
    5.0312    0.6350    0.0000 C   0  0  0  0  0  0  0  0  0
    5.7457    0.2225    0.0000 O   0  0  0  0  0  0  0  0  0
    6.4602    0.6350    0.0000 C   0  0  0  0  0  0  0  0  0
    7.1747    0.2225    0.0000 C   0  0  0  0  0  0  0  0  0
    7.8891    0.6350    0.0000 C   0  0  0  0  0  0  0  0  0
    8.6036    0.2225    0.0000 N   0  0  0  0  0  0  0  0  0
    9.3181    0.6350    0.0000 C   0  0  0  0  0  0  0  0  0
   10.0325    0.2225    0.0000 C   0  0  0  0  0  0  0  0  0
   10.0325   -0.6025    0.0000 C   0  0  0  0  0  0  0  0  0
    9.3181   -1.0150    0.0000 C   0  0  0  0  0  0  0  0  0
    8.6036   -0.6025    0.0000 C   0  0  0  0  0  0  0  0  0
   10.7470   -1.0150    0.0000 C   0  0  0  0  0  0  0  0  0
    1.4589    0.2225    0.0000 C   0  0  0  0  0  0  0  0  0
    0.7444    0.6350    0.0000 C   0  0  0  0  0  0  0  0  0
  1  2  1  0  0  0  0
  2  3  4  0  0  0  0
  2 22  4  0  0  0  0
  3  4  4  0  0  0  0
  4  5  4  0  0  0  0
  5  6  1  0  0  0  0
  5 21  4  0  0  0  0
  6  7  1  0  0  0  0
  7  8  1  0  0  0  0
  8  9  1  0  0  0  0
  9 10  1  0  0  0  0
 10 11  1  0  0  0  0
 11 12  1  0  0  0  0
 12 13  1  0  0  0  0
 13 14  1  0  0  0  0
 14 15  1  0  0  0  0
 14 19  1  0  0  0  0
 15 16  1  0  0  0  0
 16 17  1  0  0  0  0
 17 18  1  0  0  0  0
 17 20  1  0  0  0  0
 18 19  1  0  0  0  0
 21 22  4  0  0  0  0
M  END
>  <Name_Molregno>
676025

>  <HISTAMINE H3>
8.46

$$$$
676026
  Marvin  02231216192D 0   1.00000     0.00000     0

 23 24  0  0  1  0  0  0  0  0999 V2000
   -0.0104    0.7749    0.0000 Cl  0  0  0  0  0  0  0  0  0
    0.7041    0.3624    0.0000 C   0  0  0  0  0  0  0  0  0
    1.4185    0.7749    0.0000 C   0  0  0  0  0  0  0  0  0
    2.1330    0.3624    0.0000 C   0  0  0  0  0  0  0  0  0
    2.1330   -0.4626    0.0000 C   0  0  0  0  0  0  0  0  0
    2.8475   -0.8751    0.0000 O   0  0  0  0  0  0  0  0  0
    3.5619   -0.4626    0.0000 C   0  0  0  0  0  0  0  0  0
    4.2764   -0.8751    0.0000 C   0  0  0  0  0  0  0  0  0
    4.9909   -0.4626    0.0000 C   0  0  0  0  0  0  0  0  0
    5.7054   -0.8751    0.0000 O   0  0  0  0  0  0  0  0  0
    6.4198   -0.4626    0.0000 C   0  0  0  0  0  0  0  0  0
    7.1343   -0.8751    0.0000 C   0  0  0  0  0  0  0  0  0
    7.8488   -0.4626    0.0000 C   0  0  0  0  0  0  0  0  0
    8.5632   -0.8751    0.0000 N   0  0  0  0  0  0  0  0  0
    9.2449   -0.4104    0.0000 C   0  0  0  0  0  0  0  0  0
   10.0332   -0.6535    0.0000 C   0  0  0  0  0  0  0  0  0
   10.3346   -1.4215    0.0000 C   0  0  0  0  0  0  0  0  0
    9.9221   -2.1360    0.0000 C   0  0  0  0  0  0  0  0  0
    9.1064   -2.2589    0.0000 C   0  0  0  0  0  0  0  0  0
    8.5016   -1.6978    0.0000 C   0  0  0  0  0  0  0  0  0
   10.5944   -0.0488    0.0000 C   0  0  0  0  0  0  0  0  0
    1.4185   -0.8751    0.0000 C   0  0  0  0  0  0  0  0  0
    0.7041   -0.4626    0.0000 C   0  0  0  0  0  0  0  0  0
  1  2  1  0  0  0  0
  2  3  4  0  0  0  0
  2 23  4  0  0  0  0
  3  4  4  0  0  0  0
  4  5  4  0  0  0  0
  5  6  1  0  0  0  0
  5 22  4  0  0  0  0
  6  7  1  0  0  0  0
  7  8  1  0  0  0  0
  8  9  1  0  0  0  0
  9 10  1  0  0  0  0
 10 11  1  0  0  0  0
 11 12  1  0  0  0  0
 12 13  1  0  0  0  0
 13 14  1  0  0  0  0
 14 15  1  0  0  0  0
 14 20  1  0  0  0  0
 15 16  1  0  0  0  0
 16 17  1  0  0  0  0
 16 21  1  0  0  0  0
 17 18  1  0  0  0  0
 18 19  1  0  0  0  0
 19 20  1  0  0  0  0
 22 23  4  0  0  0  0
M  END
>  <Name_Molregno>
676026

>  <HISTAMINE H3>
7.89

$$$$
676027
  Marvin  02231216192D 0   1.00000     0.00000     0

 25 26  0  0  1  0  0  0  0  0999 V2000
   -0.0511    0.0019    0.0000 O   0  0  0  0  0  0  0  0  0
    0.6634    0.4145    0.0000 C   0  0  0  0  0  0  0  0  0
    1.3778    0.0020    0.0000 C   0  0  0  0  0  0  0  0  0
    2.0923    0.4145    0.0000 C   0  0  0  0  0  0  0  0  0
    2.8068    0.0020    0.0000 O   0  0  0  0  0  0  0  0  0
    3.5212    0.4145    0.0000 C   0  0  0  0  0  0  0  0  0
    4.2357    0.0020    0.0000 C   0  0  0  0  0  0  0  0  0
    4.9502    0.4145    0.0000 C   0  0  0  0  0  0  0  0  0
    5.6647    0.0020    0.0000 N   0  0  0  0  0  0  0  0  0
    6.3791    0.4145    0.0000 C   0  0  0  0  0  0  0  0  0
    7.0936    0.0020    0.0000 C   0  0  0  0  0  0  0  0  0
    7.0936   -0.8230    0.0000 C   0  0  0  0  0  0  0  0  0
    6.3791   -1.2355    0.0000 C   0  0  0  0  0  0  0  0  0
    5.6647   -0.8230    0.0000 C   0  0  0  0  0  0  0  0  0
    7.8081    0.4144    0.0000 C   0  0  0  0  0  0  0  0  0
   -0.7656    0.4144    0.0000 C   0  0  0  0  0  0  0  0  0
   -1.4801    0.0019    0.0000 C   0  0  0  0  0  0  0  0  0
   -2.1945    0.4144    0.0000 C   0  0  0  0  0  0  0  0  0
   -2.1945    1.2394    0.0000 C   0  0  0  0  0  0  0  0  0
   -1.4801    1.6519    0.0000 C   0  0  0  0  0  0  0  0  0
   -0.7656    1.2394    0.0000 C   0  0  0  0  0  0  0  0  0
   -2.9090    1.6519    0.0000 C   0  0  0  0  0  0  0  0  0
   -3.6235    2.0644    0.0000 C   0  0  0  0  0  0  0  0  0
   -2.4965    2.3664    0.0000 C   0  0  0  0  0  0  0  0  0
   -3.3215    0.9375    0.0000 C   0  0  0  0  0  0  0  0  0
  1  2  1  0  0  0  0
  1 16  1  0  0  0  0
  2  3  1  0  0  0  0
  3  4  1  0  0  0  0
  4  5  1  0  0  0  0
  5  6  1  0  0  0  0
  6  7  1  0  0  0  0
  7  8  1  0  0  0  0
  8  9  1  0  0  0  0
  9 10  1  0  0  0  0
  9 14  1  0  0  0  0
 10 11  1  0  0  0  0
 11 12  1  0  0  0  0
 11 15  1  0  0  0  0
 12 13  1  0  0  0  0
 13 14  1  0  0  0  0
 16 17  4  0  0  0  0
 16 21  4  0  0  0  0
 17 18  4  0  0  0  0
 18 19  4  0  0  0  0
 19 20  4  0  0  0  0
 19 22  1  0  0  0  0
 20 21  4  0  0  0  0
 22 23  1  0  0  0  0
 22 24  1  0  0  0  0
 22 25  1  0  0  0  0
M  END
>  <Name_Molregno>
676027

>  <HISTAMINE H3>
7.29

$$$$
676028
  Marvin  02231216192D 0   1.00000     0.00000     0

 25 26  0  0  0  0  0  0  0  0999 V2000
   -0.0477   -0.0093    0.0000 O   0  0  0  0  0  0  0  0  0
    0.6668    0.4032    0.0000 C   0  0  0  0  0  0  0  0  0
    1.3812   -0.0093    0.0000 C   0  0  0  0  0  0  0  0  0
    2.0957    0.4032    0.0000 C   0  0  0  0  0  0  0  0  0
    2.8102   -0.0093    0.0000 O   0  0  0  0  0  0  0  0  0
    3.5246    0.4032    0.0000 C   0  0  0  0  0  0  0  0  0
    4.2391   -0.0093    0.0000 C   0  0  0  0  0  0  0  0  0
    4.9536    0.4032    0.0000 C   0  0  0  0  0  0  0  0  0
    5.6681   -0.0093    0.0000 N   0  0  0  0  0  0  0  0  0
    6.3825    0.4032    0.0000 C   0  0  0  0  0  0  0  0  0
    7.0970   -0.0093    0.0000 C   0  0  0  0  0  0  0  0  0
    7.0970   -0.8343    0.0000 C   0  0  0  0  0  0  0  0  0
    6.3825   -1.2468    0.0000 C   0  0  0  0  0  0  0  0  0
    5.6681   -0.8343    0.0000 C   0  0  0  0  0  0  0  0  0
    7.8115   -1.2468    0.0000 C   0  0  0  0  0  0  0  0  0
   -0.7622    0.4032    0.0000 C   0  0  0  0  0  0  0  0  0
   -1.4767   -0.0093    0.0000 C   0  0  0  0  0  0  0  0  0
   -2.1911    0.4032    0.0000 C   0  0  0  0  0  0  0  0  0
   -2.1911    1.2282    0.0000 C   0  0  0  0  0  0  0  0  0
   -1.4767    1.6407    0.0000 C   0  0  0  0  0  0  0  0  0
   -0.7622    1.2282    0.0000 C   0  0  0  0  0  0  0  0  0
   -2.9056    1.6407    0.0000 C   0  0  0  0  0  0  0  0  0
   -3.6201    2.0532    0.0000 C   0  0  0  0  0  0  0  0  0
   -2.4931    2.3552    0.0000 C   0  0  0  0  0  0  0  0  0
   -3.3181    0.9263    0.0000 C   0  0  0  0  0  0  0  0  0
  1  2  1  0  0  0  0
  1 16  1  0  0  0  0
  2  3  1  0  0  0  0
  3  4  1  0  0  0  0
  4  5  1  0  0  0  0
  5  6  1  0  0  0  0
  6  7  1  0  0  0  0
  7  8  1  0  0  0  0
  8  9  1  0  0  0  0
  9 10  1  0  0  0  0
  9 14  1  0  0  0  0
 10 11  1  0  0  0  0
 11 12  1  0  0  0  0
 12 13  1  0  0  0  0
 12 15  1  0  0  0  0
 13 14  1  0  0  0  0
 16 17  4  0  0  0  0
 16 21  4  0  0  0  0
 17 18  4  0  0  0  0
 18 19  4  0  0  0  0
 19 20  4  0  0  0  0
 19 22  1  0  0  0  0
 20 21  4  0  0  0  0
 22 23  1  0  0  0  0
 22 24  1  0  0  0  0
 22 25  1  0  0  0  0
M  END
>  <Name_Molregno>
676028

>  <HISTAMINE H3>
8.11

$$$$
676029
  Marvin  02231216192D 0   1.00000     0.00000     0

 25 26  0  0  0  0  0  0  0  0999 V2000
   -0.0448   -0.0193    0.0000 O   0  0  0  0  0  0  0  0  0
    0.6697    0.3932    0.0000 C   0  0  0  0  0  0  0  0  0
    1.3841   -0.0193    0.0000 C   0  0  0  0  0  0  0  0  0
    2.0986    0.3932    0.0000 C   0  0  0  0  0  0  0  0  0
    2.8131   -0.0193    0.0000 O   0  0  0  0  0  0  0  0  0
    3.5276    0.3932    0.0000 C   0  0  0  0  0  0  0  0  0
    4.2420   -0.0193    0.0000 C   0  0  0  0  0  0  0  0  0
    4.9565    0.3932    0.0000 C   0  0  0  0  0  0  0  0  0
    5.6710   -0.0193    0.0000 N   0  0  0  0  0  0  0  0  0
    6.3526    0.4454    0.0000 C   0  0  0  0  0  0  0  0  0
    7.1410    0.2022    0.0000 C   0  0  0  0  0  0  0  0  0
    7.4424   -0.5657    0.0000 C   0  0  0  0  0  0  0  0  0
    7.0299   -1.2802    0.0000 C   0  0  0  0  0  0  0  0  0
    6.2141   -1.4032    0.0000 C   0  0  0  0  0  0  0  0  0
    5.6093   -0.8420    0.0000 C   0  0  0  0  0  0  0  0  0
   -0.7593    0.3932    0.0000 C   0  0  0  0  0  0  0  0  0
   -1.4737   -0.0193    0.0000 C   0  0  0  0  0  0  0  0  0
   -2.1882    0.3932    0.0000 C   0  0  0  0  0  0  0  0  0
   -2.1882    1.2182    0.0000 C   0  0  0  0  0  0  0  0  0
   -1.4737    1.6307    0.0000 C   0  0  0  0  0  0  0  0  0
   -0.7593    1.2182    0.0000 C   0  0  0  0  0  0  0  0  0
   -2.9027    1.6307    0.0000 C   0  0  0  0  0  0  0  0  0
   -3.6172    2.0432    0.0000 C   0  0  0  0  0  0  0  0  0
   -2.4902    2.3451    0.0000 C   0  0  0  0  0  0  0  0  0
   -3.3152    0.9162    0.0000 C   0  0  0  0  0  0  0  0  0
  1  2  1  0  0  0  0
  1 16  1  0  0  0  0
  2  3  1  0  0  0  0
  3  4  1  0  0  0  0
  4  5  1  0  0  0  0
  5  6  1  0  0  0  0
  6  7  1  0  0  0  0
  7  8  1  0  0  0  0
  8  9  1  0  0  0  0
  9 10  1  0  0  0  0
  9 15  1  0  0  0  0
 10 11  1  0  0  0  0
 11 12  1  0  0  0  0
 12 13  1  0  0  0  0
 13 14  1  0  0  0  0
 14 15  1  0  0  0  0
 16 17  4  0  0  0  0
 16 21  4  0  0  0  0
 17 18  4  0  0  0  0
 18 19  4  0  0  0  0
 19 20  4  0  0  0  0
 19 22  1  0  0  0  0
 20 21  4  0  0  0  0
 22 23  1  0  0  0  0
 22 24  1  0  0  0  0
 22 25  1  0  0  0  0
M  END
>  <Name_Molregno>
676029

>  <HISTAMINE H3>
8.62

$$$$
676050
  Marvin  02231216192D 0   1.00000     0.00000     0

 25 27  0  0  1  0  0  0  0  0999 V2000
    0.4581   -2.0847    0.0000 S   0  0  0  0  0  0  0  0  0
   -0.3488   -2.2562    0.0000 C   0  0  0  0  0  0  0  0  0
   -0.7613   -1.5417    0.0000 C   0  0  0  0  0  0  0  0  0
   -0.2093   -0.9286    0.0000 N   0  0  0  0  0  0  0  0  0
    0.5444   -1.2642    0.0000 C   0  0  0  0  0  0  0  0  0
    1.2588   -0.8517    0.0000 C   0  0  0  0  0  0  0  0  0
    1.2588   -0.0267    0.0000 C   0  0  0  0  0  0  0  0  0
    1.9733    0.3858    0.0000 C   0  0  0  0  0  0  0  0  0
    2.6878   -0.0267    0.0000 C   0  0  0  0  0  0  0  0  0
    3.4023    0.3858    0.0000 O   0  0  0  0  0  0  0  0  0
    4.1167   -0.0267    0.0000 C   0  0  0  0  0  0  0  0  0
    4.8312    0.3858    0.0000 C   0  0  0  0  0  0  0  0  0
    5.5457   -0.0267    0.0000 C   0  0  0  0  0  0  0  0  0
    6.2601    0.3858    0.0000 N   0  0  0  0  0  0  0  0  0
    6.2601    1.2108    0.0000 C   0  0  0  0  0  0  0  0  0
    6.9746    1.6233    0.0000 C   0  0  0  0  0  0  0  0  0
    7.6891    1.2108    0.0000 C   0  0  0  0  0  0  0  0  0
    7.6891    0.3858    0.0000 C   0  0  0  0  0  0  0  0  0
    6.9746   -0.0267    0.0000 C   0  0  0  0  0  0  0  0  0
    2.6878   -0.8517    0.0000 C   0  0  0  0  0  0  0  0  0
    1.9733   -1.2642    0.0000 C   0  0  0  0  0  0  0  0  0
   -1.5818   -1.4555    0.0000 C   0  0  0  0  0  0  0  0  0
   -1.9174   -0.7018    0.0000 O   0  0  0  0  0  0  0  0  0
   -2.7379   -0.6156    0.0000 C   0  0  0  0  0  0  0  0  0
   -2.0667   -2.1229    0.0000 O   0  0  0  0  0  0  0  0  0
  1  2  1  0  0  0  0
  1  5  1  0  0  0  0
  2  3  1  0  0  0  0
  3  4  1  0  0  0  0
  3 22  1  0  0  0  0
  4  5  1  0  0  0  0
  5  6  1  0  0  0  0
  6  7  4  0  0  0  0
  6 21  4  0  0  0  0
  7  8  4  0  0  0  0
  8  9  4  0  0  0  0
  9 10  1  0  0  0  0
  9 20  4  0  0  0  0
 10 11  1  0  0  0  0
 11 12  1  0  0  0  0
 12 13  1  0  0  0  0
 13 14  1  0  0  0  0
 14 15  1  0  0  0  0
 14 19  1  0  0  0  0
 15 16  1  0  0  0  0
 16 17  1  0  0  0  0
 17 18  1  0  0  0  0
 18 19  1  0  0  0  0
 20 21  4  0  0  0  0
 22 23  1  0  0  0  0
 22 25  2  0  0  0  0
 23 24  1  0  0  0  0
M  END
>  <Name_Molregno>
676050

>  <HISTAMINE H3>
8.4

$$$$
676269
  Marvin  02231216192D 0   1.00000     0.00000     0

 20 21  0  0  0  0  0  0  0  0999 V2000
   -5.0401   -1.7134    0.0000 Cl  0  0  0  0  0  0  0  0  0
   -5.7546   -1.3009    0.0000 C   0  0  0  0  0  0  0  0  0
   -6.4690   -1.7134    0.0000 C   0  0  0  0  0  0  0  0  0
   -7.1835   -1.3009    0.0000 C   0  0  0  0  0  0  0  0  0
   -7.1835   -0.4759    0.0000 C   0  0  0  0  0  0  0  0  0
   -6.4690   -0.0634    0.0000 C   0  0  0  0  0  0  0  0  0
   -5.7546   -0.4759    0.0000 C   0  0  0  0  0  0  0  0  0
   -5.0401   -0.0634    0.0000 C   0  0  0  0  0  0  0  0  0
   -4.3256   -0.4759    0.0000 N   0  0  0  0  0  0  0  0  0
   -3.6112   -0.0634    0.0000 C   0  0  0  0  0  0  0  0  0
   -2.8967   -0.4759    0.0000 S   0  0  0  0  0  0  0  0  0
   -2.1822   -0.0634    0.0000 C   0  0  0  0  0  0  0  0  0
   -1.4677   -0.4759    0.0000 C   0  0  0  0  0  0  0  0  0
   -0.7533   -0.0634    0.0000 C   0  0  0  0  0  0  0  0  0
   -0.0388   -0.4759    0.0000 C   0  0  0  0  0  0  0  0  0
    0.7149   -0.1404    0.0000 N   0  0  0  0  0  0  0  0  0
    1.2669   -0.7535    0.0000 C   0  0  0  0  0  0  0  0  0
    0.8544   -1.4679    0.0000 N   0  0  0  0  0  0  0  0  0
    0.0474   -1.2964    0.0000 C   0  0  0  0  0  0  0  0  0
   -3.6112    0.7616    0.0000 N   0  0  0  0  0  0  0  0  0
  1  2  1  0  0  0  0
  2  3  4  0  0  0  0
  2  7  4  0  0  0  0
  3  4  4  0  0  0  0
  4  5  4  0  0  0  0
  5  6  4  0  0  0  0
  6  7  4  0  0  0  0
  7  8  1  0  0  0  0
  8  9  1  0  0  0  0
  9 10  1  0  0  0  0
 10 11  1  0  0  0  0
 10 20  2  0  0  0  0
 11 12  1  0  0  0  0
 12 13  1  0  0  0  0
 13 14  1  0  0  0  0
 14 15  1  0  0  0  0
 15 16  4  0  0  0  0
 15 19  4  0  0  0  0
 16 17  4  0  0  0  0
 17 18  4  0  0  0  0
 18 19  4  0  0  0  0
M  STY  1   1 DAT
M  SAL   1  1  18
M  SDT   1 MRV_IMPLICIT_H                                        
M  SDD   1     0.0000    0.0000    DR    ALL  0       0  
M  SED   1 IMPL_H1
M  END
>  <Name_Molregno>
676269

>  <HISTAMINE H3>
8.1

>  <HISTAMINE H4>
8

$$$$
676270
  Marvin  02231216192D 0   1.00000     0.00000     0

 21 22  0  0  0  0  0  0  0  0999 V2000
   -1.4606    0.3194    0.0000 S   0  0  0  0  0  0  0  0  0
   -2.1751    0.7319    0.0000 C   0  0  0  0  0  0  0  0  0
   -2.8896    0.3194    0.0000 C   0  0  0  0  0  0  0  0  0
   -3.6040    0.7319    0.0000 C   0  0  0  0  0  0  0  0  0
   -4.3185    0.3194    0.0000 C   0  0  0  0  0  0  0  0  0
   -4.4047   -0.5011    0.0000 N   0  0  0  0  0  0  0  0  0
   -5.2117   -0.6726    0.0000 C   0  0  0  0  0  0  0  0  0
   -5.6242    0.0419    0.0000 N   0  0  0  0  0  0  0  0  0
   -5.0722    0.6549    0.0000 C   0  0  0  0  0  0  0  0  0
   -0.7461    0.7319    0.0000 C   0  0  0  0  0  0  0  0  0
   -0.0317    0.3194    0.0000 N   0  0  0  0  0  0  0  0  0
    0.6828    0.7319    0.0000 C   0  0  0  0  0  0  0  0  0
    1.3973    0.3194    0.0000 C   0  0  0  0  0  0  0  0  0
    2.1117    0.7319    0.0000 C   0  0  0  0  0  0  0  0  0
    2.8262    0.3194    0.0000 C   0  0  0  0  0  0  0  0  0
    2.8262   -0.5056    0.0000 C   0  0  0  0  0  0  0  0  0
    3.5407   -0.9181    0.0000 O   0  0  0  0  0  0  0  0  0
    4.2552   -0.5056    0.0000 C   0  0  0  0  0  0  0  0  0
    2.1117   -0.9181    0.0000 C   0  0  0  0  0  0  0  0  0
    1.3973   -0.5056    0.0000 C   0  0  0  0  0  0  0  0  0
   -0.7461    1.5569    0.0000 N   0  0  0  0  0  0  0  0  0
  1  2  1  0  0  0  0
  1 10  1  0  0  0  0
  2  3  1  0  0  0  0
  3  4  1  0  0  0  0
  4  5  1  0  0  0  0
  5  6  4  0  0  0  0
  5  9  4  0  0  0  0
  6  7  4  0  0  0  0
  7  8  4  0  0  0  0
  8  9  4  0  0  0  0
 10 11  1  0  0  0  0
 10 21  2  0  0  0  0
 11 12  1  0  0  0  0
 12 13  1  0  0  0  0
 13 14  4  0  0  0  0
 13 20  4  0  0  0  0
 14 15  4  0  0  0  0
 15 16  4  0  0  0  0
 16 17  1  0  0  0  0
 16 19  4  0  0  0  0
 17 18  1  0  0  0  0
 19 20  4  0  0  0  0
M  STY  1   1 DAT
M  SAL   1  1   8
M  SDT   1 MRV_IMPLICIT_H                                        
M  SDD   1     0.0000    0.0000    DR    ALL  0       0  
M  SED   1 IMPL_H1
M  END
>  <Name_Molregno>
676270

>  <HISTAMINE H3>
8.1

>  <HISTAMINE H4>
7.9

$$$$
676271
  Marvin  02231216192D 0   1.00000     0.00000     0

 21 22  0  0  0  0  0  0  0  0999 V2000
   -1.6649    0.0163    0.0000 S   0  0  0  0  0  0  0  0  0
   -2.3793   -0.3962    0.0000 C   0  0  0  0  0  0  0  0  0
   -3.0938    0.0163    0.0000 C   0  0  0  0  0  0  0  0  0
   -3.8083   -0.3962    0.0000 C   0  0  0  0  0  0  0  0  0
   -4.5227    0.0163    0.0000 C   0  0  0  0  0  0  0  0  0
   -5.2764   -0.3193    0.0000 N   0  0  0  0  0  0  0  0  0
   -5.8284    0.2938    0.0000 C   0  0  0  0  0  0  0  0  0
   -5.4159    1.0083    0.0000 N   0  0  0  0  0  0  0  0  0
   -4.6090    0.8368    0.0000 C   0  0  0  0  0  0  0  0  0
   -0.9504   -0.3962    0.0000 C   0  0  0  0  0  0  0  0  0
   -0.2359    0.0163    0.0000 N   0  0  0  0  0  0  0  0  0
    0.4786   -0.3962    0.0000 C   0  0  0  0  0  0  0  0  0
    1.1930    0.0163    0.0000 C   0  0  0  0  0  0  0  0  0
    1.9075   -0.3962    0.0000 C   0  0  0  0  0  0  0  0  0
    2.6220    0.0163    0.0000 C   0  0  0  0  0  0  0  0  0
    3.3364   -0.3962    0.0000 C   0  0  0  0  0  0  0  0  0
    3.3364   -1.2212    0.0000 C   0  0  0  0  0  0  0  0  0
    2.6220   -1.6337    0.0000 C   0  0  0  0  0  0  0  0  0
    1.9075   -1.2212    0.0000 C   0  0  0  0  0  0  0  0  0
    4.0509   -1.6337    0.0000 C   0  0  0  0  0  0  0  0  0
   -0.9504   -1.2212    0.0000 N   0  0  0  0  0  0  0  0  0
  1  2  1  0  0  0  0
  1 10  1  0  0  0  0
  2  3  1  0  0  0  0
  3  4  1  0  0  0  0
  4  5  1  0  0  0  0
  5  6  4  0  0  0  0
  5  9  4  0  0  0  0
  6  7  4  0  0  0  0
  7  8  4  0  0  0  0
  8  9  4  0  0  0  0
 10 11  1  0  0  0  0
 10 21  2  0  0  0  0
 11 12  1  0  0  0  0
 12 13  1  0  0  0  0
 13 14  1  0  0  0  0
 14 15  4  0  0  0  0
 14 19  4  0  0  0  0
 15 16  4  0  0  0  0
 16 17  4  0  0  0  0
 17 18  4  0  0  0  0
 17 20  1  0  0  0  0
 18 19  4  0  0  0  0
M  STY  1   1 DAT
M  SAL   1  1   8
M  SDT   1 MRV_IMPLICIT_H                                        
M  SDD   1     0.0000    0.0000    DR    ALL  0       0  
M  SED   1 IMPL_H1
M  END
>  <Name_Molregno>
676271

>  <HISTAMINE H3>
7.9

>  <HISTAMINE H4>
7

$$$$
676272
  Marvin  02231216192D 0   1.00000     0.00000     0

 20 21  0  0  0  0  0  0  0  0999 V2000
   -0.1733   -2.3952    0.0000 I   0  0  0  0  0  0  0  0  0
    0.5412   -1.9827    0.0000 C   0  0  0  0  0  0  0  0  0
    0.5412   -1.1577    0.0000 C   0  0  0  0  0  0  0  0  0
    1.2557   -0.7452    0.0000 C   0  0  0  0  0  0  0  0  0
    1.9702   -1.1577    0.0000 C   0  0  0  0  0  0  0  0  0
    1.9702   -1.9827    0.0000 C   0  0  0  0  0  0  0  0  0
    1.2557   -2.3952    0.0000 C   0  0  0  0  0  0  0  0  0
    2.6846   -0.7452    0.0000 C   0  0  0  0  0  0  0  0  0
    3.3991   -1.1577    0.0000 N   0  0  0  0  0  0  0  0  0
    4.1136   -0.7452    0.0000 C   0  0  0  0  0  0  0  0  0
    4.8280   -1.1577    0.0000 S   0  0  0  0  0  0  0  0  0
    5.5425   -0.7452    0.0000 C   0  0  0  0  0  0  0  0  0
    6.2570   -1.1577    0.0000 C   0  0  0  0  0  0  0  0  0
    6.9715   -0.7452    0.0000 C   0  0  0  0  0  0  0  0  0
    7.6859   -1.1577    0.0000 C   0  0  0  0  0  0  0  0  0
    8.4396   -0.8222    0.0000 N   0  0  0  0  0  0  0  0  0
    8.9916   -1.4353    0.0000 C   0  0  0  0  0  0  0  0  0
    8.5791   -2.1497    0.0000 N   0  0  0  0  0  0  0  0  0
    7.7722   -1.9782    0.0000 C   0  0  0  0  0  0  0  0  0
    4.1136    0.0798    0.0000 N   0  0  0  0  0  0  0  0  0
  1  2  1  0  0  0  0
  2  3  4  0  0  0  0
  2  7  4  0  0  0  0
  3  4  4  0  0  0  0
  4  5  4  0  0  0  0
  5  6  4  0  0  0  0
  5  8  1  0  0  0  0
  6  7  4  0  0  0  0
  8  9  1  0  0  0  0
  9 10  1  0  0  0  0
 10 11  1  0  0  0  0
 10 20  2  0  0  0  0
 11 12  1  0  0  0  0
 12 13  1  0  0  0  0
 13 14  1  0  0  0  0
 14 15  1  0  0  0  0
 15 16  4  0  0  0  0
 15 19  4  0  0  0  0
 16 17  4  0  0  0  0
 17 18  4  0  0  0  0
 18 19  4  0  0  0  0
M  STY  1   1 DAT
M  SAL   1  1  18
M  SDT   1 MRV_IMPLICIT_H                                        
M  SDD   1     0.0000    0.0000    DR    ALL  0       0  
M  SED   1 IMPL_H1
M  END
>  <Name_Molregno>
676272

>  <HISTAMINE H3>
8.5

>  <HISTAMINE H4>
8

$$$$
676273
  Marvin  02231216192D 0   1.00000     0.00000     0

 21 22  0  0  0  0  0  0  0  0999 V2000
    0.0055    0.7460    0.0000 Cl  0  0  0  0  0  0  0  0  0
    0.7200    0.3335    0.0000 C   0  0  0  0  0  0  0  0  0
    1.4345    0.7460    0.0000 C   0  0  0  0  0  0  0  0  0
    2.1489    0.3335    0.0000 C   0  0  0  0  0  0  0  0  0
    2.1489   -0.4915    0.0000 C   0  0  0  0  0  0  0  0  0
    1.4345   -0.9040    0.0000 C   0  0  0  0  0  0  0  0  0
    0.7200   -0.4915    0.0000 C   0  0  0  0  0  0  0  0  0
    2.8634   -0.9040    0.0000 C   0  0  0  0  0  0  0  0  0
    3.5779   -0.4915    0.0000 C   0  0  0  0  0  0  0  0  0
    4.2923   -0.9040    0.0000 N   0  0  0  0  0  0  0  0  0
    5.0068   -0.4915    0.0000 C   0  0  0  0  0  0  0  0  0
    5.7213   -0.9040    0.0000 S   0  0  0  0  0  0  0  0  0
    6.4358   -0.4915    0.0000 C   0  0  0  0  0  0  0  0  0
    7.1502   -0.9040    0.0000 C   0  0  0  0  0  0  0  0  0
    7.8647   -0.4915    0.0000 C   0  0  0  0  0  0  0  0  0
    8.5792   -0.9040    0.0000 C   0  0  0  0  0  0  0  0  0
    9.3328   -0.5684    0.0000 N   0  0  0  0  0  0  0  0  0
    9.8849   -1.1815    0.0000 C   0  0  0  0  0  0  0  0  0
    9.4724   -1.8960    0.0000 N   0  0  0  0  0  0  0  0  0
    8.6654   -1.7245    0.0000 C   0  0  0  0  0  0  0  0  0
    5.0068    0.3335    0.0000 N   0  0  0  0  0  0  0  0  0
  1  2  1  0  0  0  0
  2  3  4  0  0  0  0
  2  7  4  0  0  0  0
  3  4  4  0  0  0  0
  4  5  4  0  0  0  0
  5  6  4  0  0  0  0
  5  8  1  0  0  0  0
  6  7  4  0  0  0  0
  8  9  1  0  0  0  0
  9 10  1  0  0  0  0
 10 11  1  0  0  0  0
 11 12  1  0  0  0  0
 11 21  2  0  0  0  0
 12 13  1  0  0  0  0
 13 14  1  0  0  0  0
 14 15  1  0  0  0  0
 15 16  1  0  0  0  0
 16 17  4  0  0  0  0
 16 20  4  0  0  0  0
 17 18  4  0  0  0  0
 18 19  4  0  0  0  0
 19 20  4  0  0  0  0
M  STY  1   1 DAT
M  SAL   1  1  19
M  SDT   1 MRV_IMPLICIT_H                                        
M  SDD   1     0.0000    0.0000    DR    ALL  0       0  
M  SED   1 IMPL_H1
M  END
>  <Name_Molregno>
676273

>  <HISTAMINE H3>
8

>  <HISTAMINE H4>
7.5

$$$$
676274
  Marvin  02231216192D 0   1.00000     0.00000     0

 27 29  0  0  0  0  0  0  0  0999 V2000
   -3.0200   -0.0238    0.0000 S   0  0  0  0  0  0  0  0  0
   -3.7344    0.3887    0.0000 C   0  0  0  0  0  0  0  0  0
   -4.4489   -0.0238    0.0000 C   0  0  0  0  0  0  0  0  0
   -5.1634    0.3887    0.0000 C   0  0  0  0  0  0  0  0  0
   -5.8778   -0.0238    0.0000 C   0  0  0  0  0  0  0  0  0
   -5.9641   -0.8443    0.0000 N   0  0  0  0  0  0  0  0  0
   -6.7710   -1.0158    0.0000 C   0  0  0  0  0  0  0  0  0
   -7.1835   -0.3014    0.0000 N   0  0  0  0  0  0  0  0  0
   -6.6315    0.3117    0.0000 C   0  0  0  0  0  0  0  0  0
   -2.3055    0.3887    0.0000 C   0  0  0  0  0  0  0  0  0
   -1.5910   -0.0238    0.0000 N   0  0  0  0  0  0  0  0  0
   -0.8765    0.3887    0.0000 C   0  0  0  0  0  0  0  0  0
   -0.1621   -0.0238    0.0000 C   0  0  0  0  0  0  0  0  0
    0.5524    0.3887    0.0000 C   0  0  0  0  0  0  0  0  0
    1.2669   -0.0238    0.0000 C   0  0  0  0  0  0  0  0  0
    1.9813    0.3887    0.0000 C   0  0  0  0  0  0  0  0  0
    2.6958   -0.0238    0.0000 C   0  0  0  0  0  0  0  0  0
    2.6958   -0.8488    0.0000 C   0  0  0  0  0  0  0  0  0
    1.9813   -1.2613    0.0000 C   0  0  0  0  0  0  0  0  0
    1.2669   -0.8488    0.0000 C   0  0  0  0  0  0  0  0  0
    0.5524    1.2137    0.0000 C   0  0  0  0  0  0  0  0  0
   -0.1621    1.6262    0.0000 C   0  0  0  0  0  0  0  0  0
   -0.1621    2.4512    0.0000 C   0  0  0  0  0  0  0  0  0
    0.5524    2.8637    0.0000 C   0  0  0  0  0  0  0  0  0
    1.2669    2.4512    0.0000 C   0  0  0  0  0  0  0  0  0
    1.2669    1.6262    0.0000 C   0  0  0  0  0  0  0  0  0
   -2.3055    1.2137    0.0000 N   0  0  0  0  0  0  0  0  0
  1  2  1  0  0  0  0
  1 10  1  0  0  0  0
  2  3  1  0  0  0  0
  3  4  1  0  0  0  0
  4  5  1  0  0  0  0
  5  6  4  0  0  0  0
  5  9  4  0  0  0  0
  6  7  4  0  0  0  0
  7  8  4  0  0  0  0
  8  9  4  0  0  0  0
 10 11  1  0  0  0  0
 10 27  2  0  0  0  0
 11 12  1  0  0  0  0
 12 13  1  0  0  0  0
 13 14  1  0  0  0  0
 14 15  1  0  0  0  0
 14 21  1  0  0  0  0
 15 16  4  0  0  0  0
 15 20  4  0  0  0  0
 16 17  4  0  0  0  0
 17 18  4  0  0  0  0
 18 19  4  0  0  0  0
 19 20  4  0  0  0  0
 21 22  4  0  0  0  0
 21 26  4  0  0  0  0
 22 23  4  0  0  0  0
 23 24  4  0  0  0  0
 24 25  4  0  0  0  0
 25 26  4  0  0  0  0
M  STY  1   1 DAT
M  SAL   1  1   8
M  SDT   1 MRV_IMPLICIT_H                                        
M  SDD   1     0.0000    0.0000    DR    ALL  0       0  
M  SED   1 IMPL_H1
M  END
>  <Name_Molregno>
676274

>  <HISTAMINE H3>
7.5

>  <HISTAMINE H4>
7.6

$$$$
676275
  Marvin  02231216192D 0   1.00000     0.00000     0

 19 20  0  0  0  0  0  0  0  0999 V2000
   -0.5003    0.0002    0.0000 S   0  0  0  0  0  0  0  0  0
   -1.2148    0.4127    0.0000 C   0  0  0  0  0  0  0  0  0
   -1.9293    0.0002    0.0000 C   0  0  0  0  0  0  0  0  0
   -2.6437    0.4127    0.0000 C   0  0  0  0  0  0  0  0  0
   -3.3582    0.0002    0.0000 C   0  0  0  0  0  0  0  0  0
   -3.4444   -0.8203    0.0000 N   0  0  0  0  0  0  0  0  0
   -4.2514   -0.9918    0.0000 C   0  0  0  0  0  0  0  0  0
   -4.6639   -0.2774    0.0000 N   0  0  0  0  0  0  0  0  0
   -4.1119    0.3357    0.0000 C   0  0  0  0  0  0  0  0  0
    0.2141    0.4127    0.0000 C   0  0  0  0  0  0  0  0  0
    0.9286    0.0002    0.0000 N   0  0  0  0  0  0  0  0  0
    1.6431    0.4127    0.0000 C   0  0  0  0  0  0  0  0  0
    2.3576    0.0002    0.0000 C   0  0  0  0  0  0  0  0  0
    3.0720    0.4127    0.0000 C   0  0  0  0  0  0  0  0  0
    3.7865    0.0002    0.0000 C   0  0  0  0  0  0  0  0  0
    3.7865   -0.8248    0.0000 C   0  0  0  0  0  0  0  0  0
    3.0720   -1.2373    0.0000 C   0  0  0  0  0  0  0  0  0
    2.3576   -0.8248    0.0000 C   0  0  0  0  0  0  0  0  0
    0.2141    1.2377    0.0000 N   0  0  0  0  0  0  0  0  0
  1  2  1  0  0  0  0
  1 10  1  0  0  0  0
  2  3  1  0  0  0  0
  3  4  1  0  0  0  0
  4  5  1  0  0  0  0
  5  6  4  0  0  0  0
  5  9  4  0  0  0  0
  6  7  4  0  0  0  0
  7  8  4  0  0  0  0
  8  9  4  0  0  0  0
 10 11  1  0  0  0  0
 10 19  2  0  0  0  0
 11 12  1  0  0  0  0
 12 13  1  0  0  0  0
 13 14  4  0  0  0  0
 13 18  4  0  0  0  0
 14 15  4  0  0  0  0
 15 16  4  0  0  0  0
 16 17  4  0  0  0  0
 17 18  4  0  0  0  0
M  STY  1   1 DAT
M  SAL   1  1   8
M  SDT   1 MRV_IMPLICIT_H                                        
M  SDD   1     0.0000    0.0000    DR    ALL  0       0  
M  SED   1 IMPL_H1
M  END
>  <Name_Molregno>
676275

>  <HISTAMINE H3>
8.1

>  <HISTAMINE H4>
7.6

$$$$
676276
  Marvin  02231216192D 0   1.00000     0.00000     0

 22 23  0  0  0  0  0  0  0  0999 V2000
   -2.1601    0.8140    0.0000 S   0  0  0  0  0  0  0  0  0
   -2.8746    0.4015    0.0000 C   0  0  0  0  0  0  0  0  0
   -3.5891    0.8140    0.0000 C   0  0  0  0  0  0  0  0  0
   -4.3035    0.4015    0.0000 C   0  0  0  0  0  0  0  0  0
   -5.0180    0.8140    0.0000 C   0  0  0  0  0  0  0  0  0
   -5.7717    0.4784    0.0000 N   0  0  0  0  0  0  0  0  0
   -6.3237    1.0915    0.0000 C   0  0  0  0  0  0  0  0  0
   -5.9112    1.8060    0.0000 N   0  0  0  0  0  0  0  0  0
   -5.1042    1.6344    0.0000 C   0  0  0  0  0  0  0  0  0
   -1.4457    0.4015    0.0000 C   0  0  0  0  0  0  0  0  0
   -0.7312    0.8140    0.0000 N   0  0  0  0  0  0  0  0  0
   -0.0167    0.4015    0.0000 C   0  0  0  0  0  0  0  0  0
    0.6978    0.8140    0.0000 C   0  0  0  0  0  0  0  0  0
    1.4122    0.4015    0.0000 C   0  0  0  0  0  0  0  0  0
    2.1267    0.8140    0.0000 C   0  0  0  0  0  0  0  0  0
    2.8412    0.4015    0.0000 C   0  0  0  0  0  0  0  0  0
    2.8412   -0.4235    0.0000 C   0  0  0  0  0  0  0  0  0
    3.5556   -0.8360    0.0000 O   0  0  0  0  0  0  0  0  0
    4.2701   -0.4235    0.0000 C   0  0  0  0  0  0  0  0  0
    2.1267   -0.8360    0.0000 C   0  0  0  0  0  0  0  0  0
    1.4122   -0.4235    0.0000 C   0  0  0  0  0  0  0  0  0
   -1.4457   -0.4235    0.0000 N   0  0  0  0  0  0  0  0  0
  1  2  1  0  0  0  0
  1 10  1  0  0  0  0
  2  3  1  0  0  0  0
  3  4  1  0  0  0  0
  4  5  1  0  0  0  0
  5  6  4  0  0  0  0
  5  9  4  0  0  0  0
  6  7  4  0  0  0  0
  7  8  4  0  0  0  0
  8  9  4  0  0  0  0
 10 11  1  0  0  0  0
 10 22  2  0  0  0  0
 11 12  1  0  0  0  0
 12 13  1  0  0  0  0
 13 14  1  0  0  0  0
 14 15  4  0  0  0  0
 14 21  4  0  0  0  0
 15 16  4  0  0  0  0
 16 17  4  0  0  0  0
 17 18  1  0  0  0  0
 17 20  4  0  0  0  0
 18 19  1  0  0  0  0
 20 21  4  0  0  0  0
M  STY  1   1 DAT
M  SAL   1  1   8
M  SDT   1 MRV_IMPLICIT_H                                        
M  SDD   1     0.0000    0.0000    DR    ALL  0       0  
M  SED   1 IMPL_H1
M  END
>  <Name_Molregno>
676276

>  <HISTAMINE H3>
7.7

>  <HISTAMINE H4>
6.8

$$$$
676277
  Marvin  02231216192D 0   1.00000     0.00000     0

 20 21  0  0  0  0  0  0  0  0999 V2000
   -0.1155    0.0288    0.0000 Cl  0  0  0  0  0  0  0  0  0
    0.5990   -0.3837    0.0000 C   0  0  0  0  0  0  0  0  0
    1.3135    0.0288    0.0000 C   0  0  0  0  0  0  0  0  0
    2.0279   -0.3837    0.0000 C   0  0  0  0  0  0  0  0  0
    2.0279   -1.2087    0.0000 C   0  0  0  0  0  0  0  0  0
    1.3135   -1.6212    0.0000 C   0  0  0  0  0  0  0  0  0
    0.5990   -1.2087    0.0000 C   0  0  0  0  0  0  0  0  0
    2.7424    0.0288    0.0000 C   0  0  0  0  0  0  0  0  0
    3.4569   -0.3837    0.0000 N   0  0  0  0  0  0  0  0  0
    4.1713    0.0288    0.0000 C   0  0  0  0  0  0  0  0  0
    4.8858   -0.3837    0.0000 S   0  0  0  0  0  0  0  0  0
    5.6003    0.0288    0.0000 C   0  0  0  0  0  0  0  0  0
    6.3148   -0.3837    0.0000 C   0  0  0  0  0  0  0  0  0
    7.0292    0.0288    0.0000 C   0  0  0  0  0  0  0  0  0
    7.7437   -0.3837    0.0000 C   0  0  0  0  0  0  0  0  0
    8.4974   -0.0481    0.0000 N   0  0  0  0  0  0  0  0  0
    9.0494   -0.6612    0.0000 C   0  0  0  0  0  0  0  0  0
    8.6369   -1.3757    0.0000 N   0  0  0  0  0  0  0  0  0
    7.8299   -1.2042    0.0000 C   0  0  0  0  0  0  0  0  0
    4.1713    0.8538    0.0000 N   0  0  0  0  0  0  0  0  0
  1  2  1  0  0  0  0
  2  3  4  0  0  0  0
  2  7  4  0  0  0  0
  3  4  4  0  0  0  0
  4  5  4  0  0  0  0
  4  8  1  0  0  0  0
  5  6  4  0  0  0  0
  6  7  4  0  0  0  0
  8  9  1  0  0  0  0
  9 10  1  0  0  0  0
 10 11  1  0  0  0  0
 10 20  2  0  0  0  0
 11 12  1  0  0  0  0
 12 13  1  0  0  0  0
 13 14  1  0  0  0  0
 14 15  1  0  0  0  0
 15 16  4  0  0  0  0
 15 19  4  0  0  0  0
 16 17  4  0  0  0  0
 17 18  4  0  0  0  0
 18 19  4  0  0  0  0
M  STY  1   1 DAT
M  SAL   1  1  18
M  SDT   1 MRV_IMPLICIT_H                                        
M  SDD   1     0.0000    0.0000    DR    ALL  0       0  
M  SED   1 IMPL_H1
M  END
>  <Name_Molregno>
676277

>  <HISTAMINE H3>
8.1

>  <HISTAMINE H4>
7.8

$$$$
676279
  Marvin  02231216192D 0   1.00000     0.00000     0

 20 21  0  0  0  0  0  0  0  0999 V2000
   -0.9702    0.0061    0.0000 S   0  0  0  0  0  0  0  0  0
   -1.6846    0.4186    0.0000 C   0  0  0  0  0  0  0  0  0
   -2.3991    0.0061    0.0000 C   0  0  0  0  0  0  0  0  0
   -3.1136    0.4186    0.0000 C   0  0  0  0  0  0  0  0  0
   -3.8281    0.0061    0.0000 C   0  0  0  0  0  0  0  0  0
   -3.9143   -0.8143    0.0000 N   0  0  0  0  0  0  0  0  0
   -4.7213   -0.9859    0.0000 C   0  0  0  0  0  0  0  0  0
   -5.1338   -0.2714    0.0000 N   0  0  0  0  0  0  0  0  0
   -4.5817    0.3417    0.0000 C   0  0  0  0  0  0  0  0  0
   -0.2557    0.4186    0.0000 C   0  0  0  0  0  0  0  0  0
    0.4588    0.0061    0.0000 N   0  0  0  0  0  0  0  0  0
    1.1732    0.4186    0.0000 C   0  0  0  0  0  0  0  0  0
    1.8877    0.0061    0.0000 C   0  0  0  0  0  0  0  0  0
    2.6022    0.4186    0.0000 C   0  0  0  0  0  0  0  0  0
    3.3167    0.0061    0.0000 C   0  0  0  0  0  0  0  0  0
    3.3167   -0.8189    0.0000 C   0  0  0  0  0  0  0  0  0
    4.0311   -1.2314    0.0000 F   0  0  0  0  0  0  0  0  0
    2.6022   -1.2314    0.0000 C   0  0  0  0  0  0  0  0  0
    1.8877   -0.8189    0.0000 C   0  0  0  0  0  0  0  0  0
   -0.2557    1.2436    0.0000 N   0  0  0  0  0  0  0  0  0
  1  2  1  0  0  0  0
  1 10  1  0  0  0  0
  2  3  1  0  0  0  0
  3  4  1  0  0  0  0
  4  5  1  0  0  0  0
  5  6  4  0  0  0  0
  5  9  4  0  0  0  0
  6  7  4  0  0  0  0
  7  8  4  0  0  0  0
  8  9  4  0  0  0  0
 10 11  1  0  0  0  0
 10 20  2  0  0  0  0
 11 12  1  0  0  0  0
 12 13  1  0  0  0  0
 13 14  4  0  0  0  0
 13 19  4  0  0  0  0
 14 15  4  0  0  0  0
 15 16  4  0  0  0  0
 16 17  1  0  0  0  0
 16 18  4  0  0  0  0
 18 19  4  0  0  0  0
M  STY  1   1 DAT
M  SAL   1  1   8
M  SDT   1 MRV_IMPLICIT_H                                        
M  SDD   1     0.0000    0.0000    DR    ALL  0       0  
M  SED   1 IMPL_H1
M  END
>  <Name_Molregno>
676279

>  <HISTAMINE H3>
8.3

>  <HISTAMINE H4>
7.6

$$$$
676280
  Marvin  02231216192D 0   1.00000     0.00000     0

 20 21  0  0  0  0  0  0  0  0999 V2000
   -0.9702    0.0061    0.0000 S   0  0  0  0  0  0  0  0  0
   -1.6846    0.4186    0.0000 C   0  0  0  0  0  0  0  0  0
   -2.3991    0.0061    0.0000 C   0  0  0  0  0  0  0  0  0
   -3.1136    0.4186    0.0000 C   0  0  0  0  0  0  0  0  0
   -3.8281    0.0061    0.0000 C   0  0  0  0  0  0  0  0  0
   -3.9143   -0.8143    0.0000 N   0  0  0  0  0  0  0  0  0
   -4.7213   -0.9859    0.0000 C   0  0  0  0  0  0  0  0  0
   -5.1338   -0.2714    0.0000 N   0  0  0  0  0  0  0  0  0
   -4.5817    0.3417    0.0000 C   0  0  0  0  0  0  0  0  0
   -0.2557    0.4186    0.0000 C   0  0  0  0  0  0  0  0  0
    0.4588    0.0061    0.0000 N   0  0  0  0  0  0  0  0  0
    1.1732    0.4186    0.0000 C   0  0  0  0  0  0  0  0  0
    1.8877    0.0061    0.0000 C   0  0  0  0  0  0  0  0  0
    2.6022    0.4186    0.0000 C   0  0  0  0  0  0  0  0  0
    3.3167    0.0061    0.0000 C   0  0  0  0  0  0  0  0  0
    3.3167   -0.8189    0.0000 C   0  0  0  0  0  0  0  0  0
    2.6022   -1.2314    0.0000 C   0  0  0  0  0  0  0  0  0
    1.8877   -0.8189    0.0000 C   0  0  0  0  0  0  0  0  0
    4.0311   -1.2314    0.0000 C   0  0  0  0  0  0  0  0  0
   -0.2557    1.2436    0.0000 N   0  0  0  0  0  0  0  0  0
  1  2  1  0  0  0  0
  1 10  1  0  0  0  0
  2  3  1  0  0  0  0
  3  4  1  0  0  0  0
  4  5  1  0  0  0  0
  5  6  4  0  0  0  0
  5  9  4  0  0  0  0
  6  7  4  0  0  0  0
  7  8  4  0  0  0  0
  8  9  4  0  0  0  0
 10 11  1  0  0  0  0
 10 20  2  0  0  0  0
 11 12  1  0  0  0  0
 12 13  1  0  0  0  0
 13 14  4  0  0  0  0
 13 18  4  0  0  0  0
 14 15  4  0  0  0  0
 15 16  4  0  0  0  0
 16 17  4  0  0  0  0
 16 19  1  0  0  0  0
 17 18  4  0  0  0  0
M  STY  1   1 DAT
M  SAL   1  1   8
M  SDT   1 MRV_IMPLICIT_H                                        
M  SDD   1     0.0000    0.0000    DR    ALL  0       0  
M  SED   1 IMPL_H1
M  END
>  <Name_Molregno>
676280

>  <HISTAMINE H3>
8.2

>  <HISTAMINE H4>
7.6

$$$$
676281
  Marvin  02231216192D 0   1.00000     0.00000     0

 20 21  0  0  0  0  0  0  0  0999 V2000
   -1.1789    0.0037    0.0000 S   0  0  0  0  0  0  0  0  0
   -1.8934   -0.4088    0.0000 C   0  0  0  0  0  0  0  0  0
   -2.6078    0.0037    0.0000 C   0  0  0  0  0  0  0  0  0
   -3.3223   -0.4088    0.0000 C   0  0  0  0  0  0  0  0  0
   -4.0368    0.0037    0.0000 C   0  0  0  0  0  0  0  0  0
   -4.7904   -0.3319    0.0000 N   0  0  0  0  0  0  0  0  0
   -5.3425    0.2812    0.0000 C   0  0  0  0  0  0  0  0  0
   -4.9300    0.9957    0.0000 N   0  0  0  0  0  0  0  0  0
   -4.1230    0.8242    0.0000 C   0  0  0  0  0  0  0  0  0
   -0.4644   -0.4088    0.0000 C   0  0  0  0  0  0  0  0  0
    0.2501    0.0037    0.0000 N   0  0  0  0  0  0  0  0  0
    0.9645   -0.4088    0.0000 C   0  0  0  0  0  0  0  0  0
    1.6790    0.0037    0.0000 C   0  0  0  0  0  0  0  0  0
    2.3935   -0.4088    0.0000 C   0  0  0  0  0  0  0  0  0
    3.1079    0.0037    0.0000 C   0  0  0  0  0  0  0  0  0
    3.8224   -0.4088    0.0000 C   0  0  0  0  0  0  0  0  0
    3.8224   -1.2338    0.0000 C   0  0  0  0  0  0  0  0  0
    3.1079   -1.6463    0.0000 C   0  0  0  0  0  0  0  0  0
    2.3935   -1.2338    0.0000 C   0  0  0  0  0  0  0  0  0
   -0.4644   -1.2338    0.0000 N   0  0  0  0  0  0  0  0  0
  1  2  1  0  0  0  0
  1 10  1  0  0  0  0
  2  3  1  0  0  0  0
  3  4  1  0  0  0  0
  4  5  1  0  0  0  0
  5  6  4  0  0  0  0
  5  9  4  0  0  0  0
  6  7  4  0  0  0  0
  7  8  4  0  0  0  0
  8  9  4  0  0  0  0
 10 11  1  0  0  0  0
 10 20  2  0  0  0  0
 11 12  1  0  0  0  0
 12 13  1  0  0  0  0
 13 14  1  0  0  0  0
 14 15  4  0  0  0  0
 14 19  4  0  0  0  0
 15 16  4  0  0  0  0
 16 17  4  0  0  0  0
 17 18  4  0  0  0  0
 18 19  4  0  0  0  0
M  STY  1   1 DAT
M  SAL   1  1   8
M  SDT   1 MRV_IMPLICIT_H                                        
M  SDD   1     0.0000    0.0000    DR    ALL  0       0  
M  SED   1 IMPL_H1
M  END
>  <Name_Molregno>
676281

>  <HISTAMINE H3>
7.7

>  <HISTAMINE H4>
7.2

$$$$
676282
  Marvin  02231216192D 0   1.00000     0.00000     0

 21 22  0  0  0  0  0  0  0  0999 V2000
   -1.8634   -0.0023    0.0000 S   0  0  0  0  0  0  0  0  0
   -2.5778    0.4102    0.0000 C   0  0  0  0  0  0  0  0  0
   -3.2923   -0.0023    0.0000 C   0  0  0  0  0  0  0  0  0
   -4.0068    0.4102    0.0000 C   0  0  0  0  0  0  0  0  0
   -4.7213   -0.0023    0.0000 C   0  0  0  0  0  0  0  0  0
   -4.8075   -0.8228    0.0000 N   0  0  0  0  0  0  0  0  0
   -5.6145   -0.9943    0.0000 C   0  0  0  0  0  0  0  0  0
   -6.0270   -0.2798    0.0000 N   0  0  0  0  0  0  0  0  0
   -5.4749    0.3333    0.0000 C   0  0  0  0  0  0  0  0  0
   -1.1489    0.4102    0.0000 C   0  0  0  0  0  0  0  0  0
   -0.4344   -0.0023    0.0000 N   0  0  0  0  0  0  0  0  0
    0.2800    0.4102    0.0000 C   0  0  0  0  0  0  0  0  0
    0.9945   -0.0023    0.0000 C   0  0  0  0  0  0  0  0  0
    1.7090    0.4102    0.0000 C   0  0  0  0  0  0  0  0  0
    2.4235   -0.0023    0.0000 C   0  0  0  0  0  0  0  0  0
    3.1379    0.4102    0.0000 C   0  0  0  0  0  0  0  0  0
    3.8524   -0.0023    0.0000 C   0  0  0  0  0  0  0  0  0
    3.8524   -0.8273    0.0000 C   0  0  0  0  0  0  0  0  0
    3.1379   -1.2398    0.0000 C   0  0  0  0  0  0  0  0  0
    2.4235   -0.8273    0.0000 C   0  0  0  0  0  0  0  0  0
   -1.1489    1.2352    0.0000 N   0  0  0  0  0  0  0  0  0
  1  2  1  0  0  0  0
  1 10  1  0  0  0  0
  2  3  1  0  0  0  0
  3  4  1  0  0  0  0
  4  5  1  0  0  0  0
  5  6  4  0  0  0  0
  5  9  4  0  0  0  0
  6  7  4  0  0  0  0
  7  8  4  0  0  0  0
  8  9  4  0  0  0  0
 10 11  1  0  0  0  0
 10 21  2  0  0  0  0
 11 12  1  0  0  0  0
 12 13  1  0  0  0  0
 13 14  1  0  0  0  0
 14 15  1  0  0  0  0
 15 16  4  0  0  0  0
 15 20  4  0  0  0  0
 16 17  4  0  0  0  0
 17 18  4  0  0  0  0
 18 19  4  0  0  0  0
 19 20  4  0  0  0  0
M  STY  1   1 DAT
M  SAL   1  1   8
M  SDT   1 MRV_IMPLICIT_H                                        
M  SDD   1     0.0000    0.0000    DR    ALL  0       0  
M  SED   1 IMPL_H1
M  END
>  <Name_Molregno>
676282

>  <HISTAMINE H3>
8

>  <HISTAMINE H4>
7.3

$$$$
676283
  Marvin  02231216192D 0   1.00000     0.00000     0

 21 22  0  0  0  0  0  0  0  0999 V2000
   -0.1150   -0.0143    0.0000 Cl  0  0  0  0  0  0  0  0  0
    0.5994   -0.4268    0.0000 C   0  0  0  0  0  0  0  0  0
    1.3139   -0.0143    0.0000 C   0  0  0  0  0  0  0  0  0
    2.0284   -0.4268    0.0000 C   0  0  0  0  0  0  0  0  0
    2.0284   -1.2518    0.0000 C   0  0  0  0  0  0  0  0  0
    1.3139   -1.6643    0.0000 C   0  0  0  0  0  0  0  0  0
    0.5994   -1.2518    0.0000 C   0  0  0  0  0  0  0  0  0
   -0.1150   -1.6643    0.0000 Cl  0  0  0  0  0  0  0  0  0
    2.7428   -0.0143    0.0000 C   0  0  0  0  0  0  0  0  0
    3.4573   -0.4268    0.0000 N   0  0  0  0  0  0  0  0  0
    4.1718   -0.0143    0.0000 C   0  0  0  0  0  0  0  0  0
    4.8863   -0.4268    0.0000 S   0  0  0  0  0  0  0  0  0
    5.6007   -0.0143    0.0000 C   0  0  0  0  0  0  0  0  0
    6.3152   -0.4268    0.0000 C   0  0  0  0  0  0  0  0  0
    7.0297   -0.0143    0.0000 C   0  0  0  0  0  0  0  0  0
    7.7441   -0.4268    0.0000 C   0  0  0  0  0  0  0  0  0
    8.4978   -0.0913    0.0000 N   0  0  0  0  0  0  0  0  0
    9.0499   -0.7044    0.0000 C   0  0  0  0  0  0  0  0  0
    8.6374   -1.4188    0.0000 N   0  0  0  0  0  0  0  0  0
    7.8304   -1.2473    0.0000 C   0  0  0  0  0  0  0  0  0
    4.1718    0.8107    0.0000 N   0  0  0  0  0  0  0  0  0
  1  2  1  0  0  0  0
  2  3  4  0  0  0  0
  2  7  4  0  0  0  0
  3  4  4  0  0  0  0
  4  5  4  0  0  0  0
  4  9  1  0  0  0  0
  5  6  4  0  0  0  0
  6  7  4  0  0  0  0
  7  8  1  0  0  0  0
  9 10  1  0  0  0  0
 10 11  1  0  0  0  0
 11 12  1  0  0  0  0
 11 21  2  0  0  0  0
 12 13  1  0  0  0  0
 13 14  1  0  0  0  0
 14 15  1  0  0  0  0
 15 16  1  0  0  0  0
 16 17  4  0  0  0  0
 16 20  4  0  0  0  0
 17 18  4  0  0  0  0
 18 19  4  0  0  0  0
 19 20  4  0  0  0  0
M  STY  1   1 DAT
M  SAL   1  1  19
M  SDT   1 MRV_IMPLICIT_H                                        
M  SDD   1     0.0000    0.0000    DR    ALL  0       0  
M  SED   1 IMPL_H1
M  END
>  <Name_Molregno>
676283

>  <HISTAMINE H3>
8.2

>  <HISTAMINE H4>
8.8

$$$$
2-(2-(4-tert-Butylphenylthio)ethyl)-1H-imidazole
  Marvin  02231216192D 0   1.00000     0.00000     0

 18 19  0  0  0  0  0  0  0  0999 V2000
   -1.5728   -0.4149    0.0000 S   0  0  0  0  0  0  0  0  0
   -1.5728   -1.2399    0.0000 C   0  0  0  0  0  0  0  0  0
   -2.2872   -1.6524    0.0000 C   0  0  0  0  0  0  0  0  0
   -2.2872   -2.4774    0.0000 C   0  0  0  0  0  0  0  0  0
   -1.6198   -2.9624    0.0000 N   0  0  0  0  0  0  0  0  0
   -1.8747   -3.7470    0.0000 C   0  0  0  0  0  0  0  0  0
   -2.6997   -3.7470    0.0000 N   0  0  0  0  0  0  0  0  0
   -2.9547   -2.9624    0.0000 C   0  0  0  0  0  0  0  0  0
   -0.8583   -0.0024    0.0000 C   0  0  0  0  0  0  0  0  0
   -0.8583    0.8226    0.0000 C   0  0  0  0  0  0  0  0  0
   -0.1438    1.2351    0.0000 C   0  0  0  0  0  0  0  0  0
    0.5707    0.8226    0.0000 C   0  0  0  0  0  0  0  0  0
    0.5707   -0.0024    0.0000 C   0  0  0  0  0  0  0  0  0
   -0.1438   -0.4149    0.0000 C   0  0  0  0  0  0  0  0  0
    1.2851    1.2351    0.0000 C   0  0  0  0  0  0  0  0  0
    1.9996    1.6476    0.0000 C   0  0  0  0  0  0  0  0  0
    1.6976    0.5206    0.0000 C   0  0  0  0  0  0  0  0  0
    0.8726    1.9495    0.0000 C   0  0  0  0  0  0  0  0  0
  1  2  1  0  0  0  0
  1  9  1  0  0  0  0
  2  3  1  0  0  0  0
  3  4  1  0  0  0  0
  4  5  4  0  0  0  0
  4  8  4  0  0  0  0
  5  6  4  0  0  0  0
  6  7  4  0  0  0  0
  7  8  4  0  0  0  0
  9 10  4  0  0  0  0
  9 14  4  0  0  0  0
 10 11  4  0  0  0  0
 11 12  4  0  0  0  0
 12 13  4  0  0  0  0
 12 15  1  0  0  0  0
 13 14  4  0  0  0  0
 15 16  1  0  0  0  0
 15 17  1  0  0  0  0
 15 18  1  0  0  0  0
M  STY  1   1 DAT
M  SAL   1  1   5
M  SDT   1 MRV_IMPLICIT_H                                        
M  SDD   1     0.0000    0.0000    DR    ALL  0       0  
M  SED   1 IMPL_H1
M  END
>  <Name_Molregno>
2-(2-(4-tert-Butylphenylthio)ethyl)-1H-imidazole

>  <HISTAMINE H3>
9.77

$$$$
4-(2-(3,4-Dimethylphenylamino)ethyl)-1H-imidazole
  Marvin  02231216192D 0   1.00000     0.00000     0

 16 17  0  0  0  0  0  0  0  0999 V2000
    1.4927   -2.6562    0.0000 N   0  0  0  0  0  0  0  0  0
    1.2378   -3.4409    0.0000 C   0  0  0  0  0  0  0  0  0
    0.4128   -3.4409    0.0000 N   0  0  0  0  0  0  0  0  0
    0.1579   -2.6562    0.0000 C   0  0  0  0  0  0  0  0  0
    0.8253   -2.1713    0.0000 C   0  0  0  0  0  0  0  0  0
    0.8253   -1.3463    0.0000 C   0  0  0  0  0  0  0  0  0
    1.5398   -0.9338    0.0000 C   0  0  0  0  0  0  0  0  0
    1.5398   -0.1088    0.0000 N   0  0  0  0  0  0  0  0  0
    2.2542    0.3037    0.0000 C   0  0  0  0  0  0  0  0  0
    2.2542    1.1287    0.0000 C   0  0  0  0  0  0  0  0  0
    2.9687    1.5412    0.0000 C   0  0  0  0  0  0  0  0  0
    2.9687    2.3662    0.0000 C   0  0  0  0  0  0  0  0  0
    3.6832    1.1287    0.0000 C   0  0  0  0  0  0  0  0  0
    3.6832    0.3037    0.0000 C   0  0  0  0  0  0  0  0  0
    2.9687   -0.1088    0.0000 C   0  0  0  0  0  0  0  0  0
    4.3977    1.5412    0.0000 C   0  0  0  0  0  0  0  0  0
  1  2  4  0  0  0  0
  1  5  4  0  0  0  0
  2  3  4  0  0  0  0
  3  4  4  0  0  0  0
  4  5  4  0  0  0  0
  5  6  1  0  0  0  0
  6  7  1  0  0  0  0
  7  8  1  0  0  0  0
  8  9  1  0  0  0  0
  9 10  4  0  0  0  0
  9 15  4  0  0  0  0
 10 11  4  0  0  0  0
 11 12  1  0  0  0  0
 11 13  4  0  0  0  0
 13 14  4  0  0  0  0
 13 16  1  0  0  0  0
 14 15  4  0  0  0  0
M  STY  1   1 DAT
M  SAL   1  1   1
M  SDT   1 MRV_IMPLICIT_H                                        
M  SDD   1     0.0000    0.0000    DR    ALL  0       0  
M  SED   1 IMPL_H1
M  END
>  <Name_Molregno>
4-(2-(3,4-Dimethylphenylamino)ethyl)-1H-imidazole

>  <HISTAMINE H3>
8

$$$$
4-(2-(3-tert-Butylphenylamino)ethyl)-1H-imidazole
  Marvin  02231216192D 0   1.00000     0.00000     0

 18 19  0  0  0  0  0  0  0  0999 V2000
    1.8254   -3.2771    0.0000 N   0  0  0  0  0  0  0  0  0
    1.5705   -4.0617    0.0000 C   0  0  0  0  0  0  0  0  0
    0.7455   -4.0617    0.0000 N   0  0  0  0  0  0  0  0  0
    0.4905   -3.2771    0.0000 C   0  0  0  0  0  0  0  0  0
    1.1580   -2.7922    0.0000 C   0  0  0  0  0  0  0  0  0
    1.1580   -1.9672    0.0000 C   0  0  0  0  0  0  0  0  0
    1.8724   -1.5547    0.0000 C   0  0  0  0  0  0  0  0  0
    1.8724   -0.7297    0.0000 N   0  0  0  0  0  0  0  0  0
    2.5869   -0.3172    0.0000 C   0  0  0  0  0  0  0  0  0
    2.5869    0.5078    0.0000 C   0  0  0  0  0  0  0  0  0
    3.3014    0.9203    0.0000 C   0  0  0  0  0  0  0  0  0
    4.0158    0.5078    0.0000 C   0  0  0  0  0  0  0  0  0
    4.0158   -0.3172    0.0000 C   0  0  0  0  0  0  0  0  0
    3.3014   -0.7297    0.0000 C   0  0  0  0  0  0  0  0  0
    3.3014    1.7453    0.0000 C   0  0  0  0  0  0  0  0  0
    3.3014    2.5703    0.0000 C   0  0  0  0  0  0  0  0  0
    4.1264    1.7453    0.0000 C   0  0  0  0  0  0  0  0  0
    2.4764    1.7453    0.0000 C   0  0  0  0  0  0  0  0  0
  1  2  4  0  0  0  0
  1  5  4  0  0  0  0
  2  3  4  0  0  0  0
  3  4  4  0  0  0  0
  4  5  4  0  0  0  0
  5  6  1  0  0  0  0
  6  7  1  0  0  0  0
  7  8  1  0  0  0  0
  8  9  1  0  0  0  0
  9 10  4  0  0  0  0
  9 14  4  0  0  0  0
 10 11  4  0  0  0  0
 11 12  4  0  0  0  0
 11 15  1  0  0  0  0
 12 13  4  0  0  0  0
 13 14  4  0  0  0  0
 15 16  1  0  0  0  0
 15 17  1  0  0  0  0
 15 18  1  0  0  0  0
M  STY  1   1 DAT
M  SAL   1  1   1
M  SDT   1 MRV_IMPLICIT_H                                        
M  SDD   1     0.0000    0.0000    DR    ALL  0       0  
M  SED   1 IMPL_H1
M  END
>  <Name_Molregno>
4-(2-(3-tert-Butylphenylamino)ethyl)-1H-imidazole

>  <HISTAMINE H3>
8.66

$$$$
4-(2-(4-Cyclohexylphenylamino)ethyl)-1H-imidazole
  Marvin  02231216192D 0   1.00000     0.00000     0

 20 22  0  0  0  0  0  0  0  0999 V2000
    2.3032   -2.8204    0.0000 N   0  0  0  0  0  0  0  0  0
    2.0482   -3.6050    0.0000 C   0  0  0  0  0  0  0  0  0
    1.2232   -3.6050    0.0000 N   0  0  0  0  0  0  0  0  0
    0.9683   -2.8204    0.0000 C   0  0  0  0  0  0  0  0  0
    1.6357   -2.3355    0.0000 C   0  0  0  0  0  0  0  0  0
    1.6357   -1.5105    0.0000 C   0  0  0  0  0  0  0  0  0
    2.3502   -1.0980    0.0000 C   0  0  0  0  0  0  0  0  0
    2.3502   -0.2730    0.0000 N   0  0  0  0  0  0  0  0  0
    3.0647    0.1395    0.0000 C   0  0  0  0  0  0  0  0  0
    3.0647    0.9645    0.0000 C   0  0  0  0  0  0  0  0  0
    3.7791    1.3770    0.0000 C   0  0  0  0  0  0  0  0  0
    4.4936    0.9645    0.0000 C   0  0  0  0  0  0  0  0  0
    4.4936    0.1395    0.0000 C   0  0  0  0  0  0  0  0  0
    3.7791   -0.2730    0.0000 C   0  0  0  0  0  0  0  0  0
    5.2081    1.3770    0.0000 C   0  0  0  0  0  0  0  0  0
    5.2081    2.2020    0.0000 C   0  0  0  0  0  0  0  0  0
    5.9225    2.6145    0.0000 C   0  0  0  0  0  0  0  0  0
    6.6370    2.2020    0.0000 C   0  0  0  0  0  0  0  0  0
    6.6370    1.3770    0.0000 C   0  0  0  0  0  0  0  0  0
    5.9225    0.9645    0.0000 C   0  0  0  0  0  0  0  0  0
  1  2  4  0  0  0  0
  1  5  4  0  0  0  0
  2  3  4  0  0  0  0
  3  4  4  0  0  0  0
  4  5  4  0  0  0  0
  5  6  1  0  0  0  0
  6  7  1  0  0  0  0
  7  8  1  0  0  0  0
  8  9  1  0  0  0  0
  9 10  4  0  0  0  0
  9 14  4  0  0  0  0
 10 11  4  0  0  0  0
 11 12  4  0  0  0  0
 12 13  4  0  0  0  0
 12 15  1  0  0  0  0
 13 14  4  0  0  0  0
 15 16  1  0  0  0  0
 15 20  1  0  0  0  0
 16 17  1  0  0  0  0
 17 18  1  0  0  0  0
 18 19  1  0  0  0  0
 19 20  1  0  0  0  0
M  STY  1   1 DAT
M  SAL   1  1   1
M  SDT   1 MRV_IMPLICIT_H                                        
M  SDD   1     0.0000    0.0000    DR    ALL  0       0  
M  SED   1 IMPL_H1
M  END
>  <Name_Molregno>
4-(2-(4-Cyclohexylphenylamino)ethyl)-1H-imidazole

>  <HISTAMINE H3>
8.39

$$$$
4-(2-(4-Methoxyphenylamino)ethyl)-1H-imidazole
  Marvin  02231216192D 0   1.00000     0.00000     0

 16 17  0  0  0  0  0  0  0  0999 V2000
   -0.9435    1.0898    0.0000 S   0  0  0  0  0  0  0  0  0
   -0.9435    0.2648    0.0000 C   0  0  0  0  0  0  0  0  0
   -1.6580   -0.1477    0.0000 C   0  0  0  0  0  0  0  0  0
   -1.6580   -0.9727    0.0000 C   0  0  0  0  0  0  0  0  0
   -0.9906   -1.4576    0.0000 N   0  0  0  0  0  0  0  0  0
   -1.2455   -2.2422    0.0000 C   0  0  0  0  0  0  0  0  0
   -2.0705   -2.2422    0.0000 N   0  0  0  0  0  0  0  0  0
   -2.3255   -1.4576    0.0000 C   0  0  0  0  0  0  0  0  0
   -0.2291    1.5023    0.0000 C   0  0  0  0  0  0  0  0  0
   -0.2291    2.3273    0.0000 C   0  0  0  0  0  0  0  0  0
    0.4854    2.7398    0.0000 C   0  0  0  0  0  0  0  0  0
    1.1999    2.3273    0.0000 C   0  0  0  0  0  0  0  0  0
    1.9143    2.7398    0.0000 O   0  0  0  0  0  0  0  0  0
    1.9143    3.5648    0.0000 C   0  0  0  0  0  0  0  0  0
    1.1999    1.5023    0.0000 C   0  0  0  0  0  0  0  0  0
    0.4854    1.0898    0.0000 C   0  0  0  0  0  0  0  0  0
  1  2  1  0  0  0  0
  1  9  1  0  0  0  0
  2  3  1  0  0  0  0
  3  4  1  0  0  0  0
  4  5  4  0  0  0  0
  4  8  4  0  0  0  0
  5  6  4  0  0  0  0
  6  7  4  0  0  0  0
  7  8  4  0  0  0  0
  9 10  4  0  0  0  0
  9 16  4  0  0  0  0
 10 11  4  0  0  0  0
 11 12  4  0  0  0  0
 12 13  1  0  0  0  0
 12 15  4  0  0  0  0
 13 14  1  0  0  0  0
 15 16  4  0  0  0  0
M  STY  1   1 DAT
M  SAL   1  1   5
M  SDT   1 MRV_IMPLICIT_H                                        
M  SDD   1     0.0000    0.0000    DR    ALL  0       0  
M  SED   1 IMPL_H1
M  END
>  <Name_Molregno>
4-(2-(4-Methoxyphenylamino)ethyl)-1H-imidazole

>  <HISTAMINE H3>
7.62

$$$$
4-(2-(4-Methylphenylamino)ethyl)-1H-imidazole
  Marvin  02231216192D 0   1.00000     0.00000     0

 15 16  0  0  0  0  0  0  0  0999 V2000
    2.0474   -2.3706    0.0000 N   0  0  0  0  0  0  0  0  0
    1.7925   -3.1552    0.0000 C   0  0  0  0  0  0  0  0  0
    0.9675   -3.1552    0.0000 N   0  0  0  0  0  0  0  0  0
    0.7125   -2.3706    0.0000 C   0  0  0  0  0  0  0  0  0
    1.3800   -1.8857    0.0000 C   0  0  0  0  0  0  0  0  0
    1.3800   -1.0607    0.0000 C   0  0  0  0  0  0  0  0  0
    2.0944   -0.6482    0.0000 C   0  0  0  0  0  0  0  0  0
    2.0944    0.1768    0.0000 N   0  0  0  0  0  0  0  0  0
    2.8089    0.5893    0.0000 C   0  0  0  0  0  0  0  0  0
    2.8089    1.4143    0.0000 C   0  0  0  0  0  0  0  0  0
    3.5234    1.8268    0.0000 C   0  0  0  0  0  0  0  0  0
    4.2378    1.4143    0.0000 C   0  0  0  0  0  0  0  0  0
    4.2378    0.5893    0.0000 C   0  0  0  0  0  0  0  0  0
    3.5234    0.1768    0.0000 C   0  0  0  0  0  0  0  0  0
    4.9523    1.8268    0.0000 C   0  0  0  0  0  0  0  0  0
  1  2  4  0  0  0  0
  1  5  4  0  0  0  0
  2  3  4  0  0  0  0
  3  4  4  0  0  0  0
  4  5  4  0  0  0  0
  5  6  1  0  0  0  0
  6  7  1  0  0  0  0
  7  8  1  0  0  0  0
  8  9  1  0  0  0  0
  9 10  4  0  0  0  0
  9 14  4  0  0  0  0
 10 11  4  0  0  0  0
 11 12  4  0  0  0  0
 12 13  4  0  0  0  0
 12 15  1  0  0  0  0
 13 14  4  0  0  0  0
M  STY  1   1 DAT
M  SAL   1  1   1
M  SDT   1 MRV_IMPLICIT_H                                        
M  SDD   1     0.0000    0.0000    DR    ALL  0       0  
M  SED   1 IMPL_H1
M  END
>  <Name_Molregno>
4-(2-(4-Methylphenylamino)ethyl)-1H-imidazole

>  <HISTAMINE H3>
7.85

$$$$
4-(2-(4-tert-Butylphenylamino)ethyl)-1H-imidazole
  Marvin  02231216192D 0   1.00000     0.00000     0

 18 19  0  0  0  0  0  0  0  0999 V2000
    2.2080   -2.6597    0.0000 N   0  0  0  0  0  0  0  0  0
    1.9530   -3.4444    0.0000 C   0  0  0  0  0  0  0  0  0
    1.1280   -3.4444    0.0000 N   0  0  0  0  0  0  0  0  0
    0.8731   -2.6597    0.0000 C   0  0  0  0  0  0  0  0  0
    1.5405   -2.1748    0.0000 C   0  0  0  0  0  0  0  0  0
    1.5405   -1.3498    0.0000 C   0  0  0  0  0  0  0  0  0
    2.2550   -0.9373    0.0000 C   0  0  0  0  0  0  0  0  0
    2.2550   -0.1123    0.0000 N   0  0  0  0  0  0  0  0  0
    2.9695    0.3002    0.0000 C   0  0  0  0  0  0  0  0  0
    2.9695    1.1252    0.0000 C   0  0  0  0  0  0  0  0  0
    3.6840    1.5377    0.0000 C   0  0  0  0  0  0  0  0  0
    4.3984    1.1252    0.0000 C   0  0  0  0  0  0  0  0  0
    4.3984    0.3002    0.0000 C   0  0  0  0  0  0  0  0  0
    3.6840   -0.1123    0.0000 C   0  0  0  0  0  0  0  0  0
    5.1129    1.5377    0.0000 C   0  0  0  0  0  0  0  0  0
    5.8274    1.9502    0.0000 C   0  0  0  0  0  0  0  0  0
    5.5254    0.8232    0.0000 C   0  0  0  0  0  0  0  0  0
    4.7004    2.2521    0.0000 C   0  0  0  0  0  0  0  0  0
  1  2  4  0  0  0  0
  1  5  4  0  0  0  0
  2  3  4  0  0  0  0
  3  4  4  0  0  0  0
  4  5  4  0  0  0  0
  5  6  1  0  0  0  0
  6  7  1  0  0  0  0
  7  8  1  0  0  0  0
  8  9  1  0  0  0  0
  9 10  4  0  0  0  0
  9 14  4  0  0  0  0
 10 11  4  0  0  0  0
 11 12  4  0  0  0  0
 12 13  4  0  0  0  0
 12 15  1  0  0  0  0
 13 14  4  0  0  0  0
 15 16  1  0  0  0  0
 15 17  1  0  0  0  0
 15 18  1  0  0  0  0
M  STY  1   1 DAT
M  SAL   1  1   1
M  SDT   1 MRV_IMPLICIT_H                                        
M  SDD   1     0.0000    0.0000    DR    ALL  0       0  
M  SED   1 IMPL_H1
M  END
>  <Name_Molregno>
4-(2-(4-tert-Butylphenylamino)ethyl)-1H-imidazole

>  <HISTAMINE H3>
9.05

$$$$
4-(2-(4-Trifluoromethylphenylamino)ethyl)-1H-imidazole
  Marvin  02231216192D 0   1.00000     0.00000     0

 18 19  0  0  0  0  0  0  0  0999 V2000
   -1.5728    0.8507    0.0000 S   0  0  0  0  0  0  0  0  0
   -1.5728    0.0257    0.0000 C   0  0  0  0  0  0  0  0  0
   -2.2872   -0.3868    0.0000 C   0  0  0  0  0  0  0  0  0
   -2.2872   -1.2118    0.0000 C   0  0  0  0  0  0  0  0  0
   -1.6198   -1.6968    0.0000 N   0  0  0  0  0  0  0  0  0
   -1.8747   -2.4814    0.0000 C   0  0  0  0  0  0  0  0  0
   -2.6997   -2.4814    0.0000 N   0  0  0  0  0  0  0  0  0
   -2.9547   -1.6968    0.0000 C   0  0  0  0  0  0  0  0  0
   -0.8583    1.2632    0.0000 C   0  0  0  0  0  0  0  0  0
   -0.8583    2.0882    0.0000 C   0  0  0  0  0  0  0  0  0
   -0.1438    2.5007    0.0000 C   0  0  0  0  0  0  0  0  0
    0.5707    2.0882    0.0000 C   0  0  0  0  0  0  0  0  0
    0.5707    1.2632    0.0000 C   0  0  0  0  0  0  0  0  0
   -0.1438    0.8507    0.0000 C   0  0  0  0  0  0  0  0  0
    1.2851    2.5007    0.0000 C   0  0  0  0  0  0  0  0  0
    1.9996    2.9132    0.0000 F   0  0  0  0  0  0  0  0  0
    1.6976    1.7862    0.0000 F   0  0  0  0  0  0  0  0  0
    0.8726    3.2151    0.0000 F   0  0  0  0  0  0  0  0  0
  1  2  1  0  0  0  0
  1  9  1  0  0  0  0
  2  3  1  0  0  0  0
  3  4  1  0  0  0  0
  4  5  4  0  0  0  0
  4  8  4  0  0  0  0
  5  6  4  0  0  0  0
  6  7  4  0  0  0  0
  7  8  4  0  0  0  0
  9 10  4  0  0  0  0
  9 14  4  0  0  0  0
 10 11  4  0  0  0  0
 11 12  4  0  0  0  0
 12 13  4  0  0  0  0
 12 15  1  0  0  0  0
 13 14  4  0  0  0  0
 15 16  1  0  0  0  0
 15 17  1  0  0  0  0
 15 18  1  0  0  0  0
M  STY  1   1 DAT
M  SAL   1  1   5
M  SDT   1 MRV_IMPLICIT_H                                        
M  SDD   1     0.0000    0.0000    DR    ALL  0       0  
M  SED   1 IMPL_H1
M  END
>  <Name_Molregno>
4-(2-(4-Trifluoromethylphenylamino)ethyl)-1H-imidazole

>  <HISTAMINE H3>
8.96

$$$$
4-(2-(Cyclohexylamino)ethyl)-1H-imidazole
  Marvin  02231216192D 0   1.00000     0.00000     0

 14 15  0  0  0  0  0  0  0  0999 V2000
    1.9712   -2.2776    0.0000 N   0  0  0  0  0  0  0  0  0
    1.7162   -3.0622    0.0000 C   0  0  0  0  0  0  0  0  0
    0.8912   -3.0622    0.0000 N   0  0  0  0  0  0  0  0  0
    0.6363   -2.2776    0.0000 C   0  0  0  0  0  0  0  0  0
    1.3037   -1.7927    0.0000 C   0  0  0  0  0  0  0  0  0
    1.3037   -0.9677    0.0000 C   0  0  0  0  0  0  0  0  0
    2.0182   -0.5552    0.0000 C   0  0  0  0  0  0  0  0  0
    2.0182    0.2698    0.0000 N   0  0  0  0  0  0  0  0  0
    2.7327    0.6823    0.0000 C   0  0  0  0  0  0  0  0  0
    2.7327    1.5073    0.0000 C   0  0  0  0  0  0  0  0  0
    3.4471    1.9198    0.0000 C   0  0  0  0  0  0  0  0  0
    4.1616    1.5073    0.0000 C   0  0  0  0  0  0  0  0  0
    4.1616    0.6823    0.0000 C   0  0  0  0  0  0  0  0  0
    3.4471    0.2698    0.0000 C   0  0  0  0  0  0  0  0  0
  1  2  4  0  0  0  0
  1  5  4  0  0  0  0
  2  3  4  0  0  0  0
  3  4  4  0  0  0  0
  4  5  4  0  0  0  0
  5  6  1  0  0  0  0
  6  7  1  0  0  0  0
  7  8  1  0  0  0  0
  8  9  1  0  0  0  0
  9 10  4  0  0  0  0
  9 14  4  0  0  0  0
 10 11  4  0  0  0  0
 11 12  4  0  0  0  0
 12 13  4  0  0  0  0
 13 14  4  0  0  0  0
M  STY  1   1 DAT
M  SAL   1  1   1
M  SDT   1 MRV_IMPLICIT_H                                        
M  SDD   1     0.0000    0.0000    DR    ALL  0       0  
M  SED   1 IMPL_H1
M  END
>  <Name_Molregno>
4-(2-(Cyclohexylamino)ethyl)-1H-imidazole

>  <HISTAMINE H3>
6.53

$$$$
8-Chloro-11-{4-[4-(3-piperidin-1-yl-propoxy)-benzyl]-piperazin-1-yl}-5H-dibenzo[
  Marvin  02231216192D 0   1.00000     0.00000     0

  8  7  0  0  0  0  0  0  0  0999 V2000
   -0.0537   -0.0112    0.0000 O   0  0  0  0  0  0  0  0  0
    0.6607   -0.4238    0.0000 N   0  0  0  0  0  0  0  0  0
    1.3752   -0.0112    0.0000 N   0  0  0  0  0  0  0  0  0
    2.0897   -0.4238    0.0000 C   0  0  0  0  0  0  0  0  0
    2.8041   -0.0113    0.0000 C   0  0  0  0  0  0  0  0  0
    3.5186   -0.4238    0.0000 C   0  0  0  0  0  0  0  0  0
    4.2331   -0.0113    0.0000 C   0  0  0  0  0  0  0  0  0
    1.3752    0.8138    0.0000 C   0  0  0  0  0  0  0  0  0
  1  2  2  0  0  0  0
  2  3  1  0  0  0  0
  3  4  1  0  0  0  0
  3  8  1  0  0  0  0
  4  5  1  0  0  0  0
  5  6  1  0  0  0  0
  6  7  1  0  0  0  0
M  END
>  <Name_Molregno>
8-Chloro-11-{4-[4-(3-piperidin-1-yl-propoxy)-benzyl]-piperazin-1-yl}-5H-dibenzo[b,e][1,4]diazepine

>  <DOPAMINE D1>
6.06

>  <DOPAMINE D2>
6.55

>  <DOPAMINE D3>
6.65

>  <DOPAMINE D5>
6.04

>  <HISTAMINE H1>
6.72

>  <HISTAMINE H3>
8.49

$$$$
alpha-methylhistamine
  Marvin  02231216192D 0   1.00000     0.00000     0

  9  9  0  0  1  0  0  0  0  0999 V2000
    0.7212   -1.2558    0.0000 N   0  0  0  0  0  0  0  0  0
    0.4663   -2.0404    0.0000 C   0  0  0  0  0  0  0  0  0
   -0.3587   -2.0404    0.0000 N   0  0  0  0  0  0  0  0  0
   -0.6137   -1.2558    0.0000 C   0  0  0  0  0  0  0  0  0
    0.0538   -0.7708    0.0000 C   0  0  0  0  0  0  0  0  0
    0.0538    0.0542    0.0000 C   0  0  0  0  0  0  0  0  0
    0.7682    0.4667    0.0000 C   0  0  0  0  0  0  0  0  0
    0.7682    1.2917    0.0000 N   0  0  0  0  0  0  0  0  0
    1.4827    0.0542    0.0000 C   0  0  0  0  0  0  0  0  0
  1  2  4  0  0  0  0
  1  5  4  0  0  0  0
  2  3  4  0  0  0  0
  3  4  4  0  0  0  0
  4  5  4  0  0  0  0
  5  6  1  0  0  0  0
  6  7  1  0  0  0  0
  7  8  1  0  0  0  0
  7  9  1  0  0  0  0
M  STY  1   1 DAT
M  SAL   1  1   1
M  SDT   1 MRV_IMPLICIT_H                                        
M  SDD   1     0.0000    0.0000    DR    ALL  0       0  
M  SED   1 IMPL_H1
M  END
>  <Name_Molregno>
alpha-methylhistamine

>  <HISTAMINE H3>
9.07

>  <HISTAMINE H4>
6.35

$$$$
AMITRIPTYLINE
  Marvin  02231216192D 0   1.00000     0.00000     0

 21 23  0  0  0  0  0  0  0  0999 V2000
    0.4326    2.9044    0.0000 N   0  0  0  0  0  0  0  0  0
    1.1470    2.4919    0.0000 C   0  0  0  0  0  0  0  0  0
    1.8615    2.9044    0.0000 C   0  0  0  0  0  0  0  0  0
    2.5760    2.4919    0.0000 C   0  0  0  0  0  0  0  0  0
    2.5760    1.6669    0.0000 C   0  0  0  0  0  0  0  0  0
    3.3193    1.3089    0.0000 C   0  0  0  0  0  0  0  0  0
    3.5029    0.5046    0.0000 C   0  0  0  0  0  0  0  0  0
    2.9885   -0.1404    0.0000 C   0  0  0  0  0  0  0  0  0
    2.1635   -0.1404    0.0000 C   0  0  0  0  0  0  0  0  0
    1.6491    0.5046    0.0000 C   0  0  0  0  0  0  0  0  0
    1.8327    1.3089    0.0000 C   0  0  0  0  0  0  0  0  0
    1.2279    1.8701    0.0000 C   0  0  0  0  0  0  0  0  0
    0.4396    1.6269    0.0000 C   0  0  0  0  0  0  0  0  0
    0.2560    0.8226    0.0000 C   0  0  0  0  0  0  0  0  0
    0.8608    0.2615    0.0000 C   0  0  0  0  0  0  0  0  0
    4.2912    0.2615    0.0000 C   0  0  0  0  0  0  0  0  0
    4.8960    0.8226    0.0000 C   0  0  0  0  0  0  0  0  0
    4.7124    1.6269    0.0000 C   0  0  0  0  0  0  0  0  0
    3.9241    1.8701    0.0000 C   0  0  0  0  0  0  0  0  0
   -0.2819    2.4919    0.0000 C   0  0  0  0  0  0  0  0  0
    0.4326    3.7294    0.0000 C   0  0  0  0  0  0  0  0  0
  1  2  1  0  0  0  0
  1 20  1  0  0  0  0
  1 21  1  0  0  0  0
  2  3  1  0  0  0  0
  3  4  1  0  0  0  0
  4  5  2  0  0  0  0
  5  6  1  0  0  0  0
  5 11  1  0  0  0  0
  6  7  4  0  0  0  0
  6 19  4  0  0  0  0
  7  8  1  0  0  0  0
  7 16  4  0  0  0  0
  8  9  1  0  0  0  0
  9 10  1  0  0  0  0
 10 11  4  0  0  0  0
 10 15  4  0  0  0  0
 11 12  4  0  0  0  0
 12 13  4  0  0  0  0
 13 14  4  0  0  0  0
 14 15  4  0  0  0  0
 16 17  4  0  0  0  0
 17 18  4  0  0  0  0
 18 19  4  0  0  0  0
M  END
>  <Name_Molregno>
AMITRIPTYLINE

>  <5-HT1A>
6.35

>  <5-HT2A>
7.64

>  <5-HT6>
7.02

>  <DOPAMINE D1>
7.05

>  <DOPAMINE D2>
6.42

>  <DOPAMINE D3>
6.69

>  <DOPAMINE D5>
6.77

>  <Dopamine transporter>
5.4

>  <HISTAMINE H1>
9.08

>  <HISTAMINE H3>
6

>  <HISTAMINE H4>
7.47

>  <Muscarinic acetylcholine receptor M1>
7.89

>  <Muscarinic acetylcholine receptor M2>
7.93

>  <Muscarinic acetylcholine receptor M3>
7.65

>  <Muscarinic acetylcholine receptor M4>
8.14

>  <Muscarinic acetylcholine receptor M5>
7.71

>  <Norepinephrine transporter>
7.45

>  <Serotonin transporter>
8

$$$$
Burimamide
  Marvin  02231216192D 0   1.00000     0.00000     0

 14 14  0  0  0  0  0  0  0  0999 V2000
    0.7471   -1.0385    0.0000 S   0  0  0  0  0  0  0  0  0
    0.7471   -1.8635    0.0000 C   0  0  0  0  0  0  0  0  0
    0.0326   -2.2760    0.0000 N   0  0  0  0  0  0  0  0  0
   -0.6819   -1.8635    0.0000 C   0  0  0  0  0  0  0  0  0
   -1.3964   -2.2760    0.0000 C   0  0  0  0  0  0  0  0  0
   -2.1108   -1.8635    0.0000 C   0  0  0  0  0  0  0  0  0
   -2.8253   -2.2760    0.0000 C   0  0  0  0  0  0  0  0  0
   -3.5398   -1.8635    0.0000 C   0  0  0  0  0  0  0  0  0
   -4.2934   -2.1990    0.0000 N   0  0  0  0  0  0  0  0  0
   -4.8455   -1.5859    0.0000 C   0  0  0  0  0  0  0  0  0
   -4.4330   -0.8715    0.0000 N   0  0  0  0  0  0  0  0  0
   -3.6260   -1.0430    0.0000 C   0  0  0  0  0  0  0  0  0
    1.4615   -2.2760    0.0000 N   0  0  0  0  0  0  0  0  0
    2.1760   -1.8635    0.0000 C   0  0  0  0  0  0  0  0  0
  1  2  2  0  0  0  0
  2  3  1  0  0  0  0
  2 13  1  0  0  0  0
  3  4  1  0  0  0  0
  4  5  1  0  0  0  0
  5  6  1  0  0  0  0
  6  7  1  0  0  0  0
  7  8  1  0  0  0  0
  8  9  4  0  0  0  0
  8 12  4  0  0  0  0
  9 10  4  0  0  0  0
 10 11  4  0  0  0  0
 11 12  4  0  0  0  0
 13 14  1  0  0  0  0
M  STY  1   1 DAT
M  SAL   1  1   9
M  SDT   1 MRV_IMPLICIT_H                                        
M  SDD   1     0.0000    0.0000    DR    ALL  0       0  
M  SED   1 IMPL_H1
M  END
>  <Name_Molregno>
Burimamide

>  <HISTAMINE H3>
7.09

>  <HISTAMINE H4>
6.74

$$$$
CHLORPROMAZINE
  Marvin  02231216192D 0   1.00000     0.00000     0

 21 23  0  0  0  0  0  0  0  0999 V2000
   -1.3730   -3.5598    0.0000 Cl  0  0  0  0  0  0  0  0  0
   -2.0875   -3.1473    0.0000 C   0  0  0  0  0  0  0  0  0
   -2.0875   -2.3223    0.0000 C   0  0  0  0  0  0  0  0  0
   -2.8019   -1.9098    0.0000 C   0  0  0  0  0  0  0  0  0
   -2.8019   -1.0848    0.0000 N   0  0  0  0  0  0  0  0  0
   -3.5164   -0.6723    0.0000 C   0  0  0  0  0  0  0  0  0
   -4.2309   -1.0848    0.0000 C   0  0  0  0  0  0  0  0  0
   -4.2309   -1.9098    0.0000 S   0  0  0  0  0  0  0  0  0
   -3.5164   -2.3223    0.0000 C   0  0  0  0  0  0  0  0  0
   -3.5164   -3.1473    0.0000 C   0  0  0  0  0  0  0  0  0
   -2.8019   -3.5598    0.0000 C   0  0  0  0  0  0  0  0  0
   -4.9453   -0.6723    0.0000 C   0  0  0  0  0  0  0  0  0
   -4.9453    0.1527    0.0000 C   0  0  0  0  0  0  0  0  0
   -4.2309    0.5652    0.0000 C   0  0  0  0  0  0  0  0  0
   -3.5164    0.1527    0.0000 C   0  0  0  0  0  0  0  0  0
   -2.0875   -0.6723    0.0000 C   0  0  0  0  0  0  0  0  0
   -1.3730   -1.0848    0.0000 C   0  0  0  0  0  0  0  0  0
   -0.6585   -0.6723    0.0000 C   0  0  0  0  0  0  0  0  0
    0.0560   -1.0848    0.0000 N   0  0  0  0  0  0  0  0  0
    0.7704   -0.6723    0.0000 C   0  0  0  0  0  0  0  0  0
    0.0560   -1.9098    0.0000 C   0  0  0  0  0  0  0  0  0
  1  2  1  0  0  0  0
  2  3  4  0  0  0  0
  2 11  4  0  0  0  0
  3  4  4  0  0  0  0
  4  5  1  0  0  0  0
  4  9  4  0  0  0  0
  5  6  1  0  0  0  0
  5 16  1  0  0  0  0
  6  7  4  0  0  0  0
  6 15  4  0  0  0  0
  7  8  1  0  0  0  0
  7 12  4  0  0  0  0
  8  9  1  0  0  0  0
  9 10  4  0  0  0  0
 10 11  4  0  0  0  0
 12 13  4  0  0  0  0
 13 14  4  0  0  0  0
 14 15  4  0  0  0  0
 16 17  1  0  0  0  0
 17 18  1  0  0  0  0
 18 19  1  0  0  0  0
 19 20  1  0  0  0  0
 19 21  1  0  0  0  0
M  END
>  <Name_Molregno>
CHLORPROMAZINE

>  <5-HT1A>
5.98

>  <5-HT1B>
5.83

>  <5-HT1D>
6.34

>  <5-HT1E>
6.46

>  <5-HT2A>
8.36

>  <5-HT2C>
7.74

>  <5-HT3>
6.01

>  <5-HT5>
6.93

>  <5-HT6>
7.59

>  <5-HT7>
7.54

>  <Alpha-1A>
9.55

>  <Alpha-1B>
9.09

>  <Alpha-2A>
6.71

>  <Alpha-2B>
7.81

>  <Alpha-2C>
7.36

>  <Beta-1>
5

>  <Beta-2>
5

>  <DOPAMINE D1>
7.1

>  <DOPAMINE D2>
8.51

>  <DOPAMINE D3>
8.58

>  <DOPAMINE D4>
8.03

>  <DOPAMINE D5>
6.82

>  <Dopamine transporter>
5

>  <HISTAMINE H1>
8.47

>  <HISTAMINE H2>
6.76

>  <HISTAMINE H3>
6

>  <HISTAMINE H4>
6.3

>  <Muscarinic acetylcholine receptor M1>
7.36

>  <Muscarinic acetylcholine receptor M2>
6.67

>  <Muscarinic acetylcholine receptor M3>
7.25

>  <Muscarinic acetylcholine receptor M4>
7.11

>  <Muscarinic acetylcholine receptor M5>
7.5

>  <Norepinephrine transporter>
5.61

>  <Serotonin transporter>
6.54

$$$$
CHLORPROTHIXENE
  Marvin  02231216192D 0   1.00000     0.00000     0

 21 23  0  0  0  0  0  0  0  0999 V2000
    5.5918   -1.4384    0.0000 Cl  0  0  0  0  0  0  0  0  0
    4.8773   -1.0259    0.0000 C   0  0  0  0  0  0  0  0  0
    4.1628   -1.4384    0.0000 C   0  0  0  0  0  0  0  0  0
    3.4484   -1.0259    0.0000 C   0  0  0  0  0  0  0  0  0
    3.4484   -0.2009    0.0000 C   0  0  0  0  0  0  0  0  0
    2.7339    0.2116    0.0000 S   0  0  0  0  0  0  0  0  0
    2.0194   -0.2009    0.0000 C   0  0  0  0  0  0  0  0  0
    2.0194   -1.0259    0.0000 C   0  0  0  0  0  0  0  0  0
    1.3049   -1.4384    0.0000 C   0  0  0  0  0  0  0  0  0
    0.5905   -1.0259    0.0000 C   0  0  0  0  0  0  0  0  0
    0.5905   -0.2009    0.0000 C   0  0  0  0  0  0  0  0  0
    1.3049    0.2116    0.0000 C   0  0  0  0  0  0  0  0  0
    2.7339   -1.4384    0.0000 C   0  0  0  0  0  0  0  0  0
    2.7339   -2.2634    0.0000 C   0  0  0  0  0  0  0  0  0
    2.0194   -2.6759    0.0000 C   0  0  0  0  0  0  0  0  0
    2.0194   -3.5009    0.0000 C   0  0  0  0  0  0  0  0  0
    1.3049   -3.9134    0.0000 N   0  0  0  0  0  0  0  0  0
    1.3049   -4.7384    0.0000 C   0  0  0  0  0  0  0  0  0
    0.5905   -3.5009    0.0000 C   0  0  0  0  0  0  0  0  0
    4.1628    0.2116    0.0000 C   0  0  0  0  0  0  0  0  0
    4.8773   -0.2009    0.0000 C   0  0  0  0  0  0  0  0  0
  1  2  1  0  0  0  0
  2  3  4  0  0  0  0
  2 21  4  0  0  0  0
  3  4  4  0  0  0  0
  4  5  4  0  0  0  0
  4 13  1  0  0  0  0
  5  6  1  0  0  0  0
  5 20  4  0  0  0  0
  6  7  1  0  0  0  0
  7  8  4  0  0  0  0
  7 12  4  0  0  0  0
  8  9  4  0  0  0  0
  8 13  1  0  0  0  0
  9 10  4  0  0  0  0
 10 11  4  0  0  0  0
 11 12  4  0  0  0  0
 13 14  2  0  0  0  0
 14 15  1  0  0  0  0
 15 16  1  0  0  0  0
 16 17  1  0  0  0  0
 17 18  1  0  0  0  0
 17 19  1  0  0  0  0
 20 21  4  0  0  0  0
M  END
>  <Name_Molregno>
CHLORPROTHIXENE

>  <5-HT2A>
9.37

>  <DOPAMINE D1>
7.74

>  <DOPAMINE D2>
8.37

>  <DOPAMINE D3>
8.34

>  <DOPAMINE D4>
9.19

>  <DOPAMINE D5>
8.05

>  <HISTAMINE H1>
8.43

>  <HISTAMINE H3>
6

>  <Muscarinic acetylcholine receptor M1>
7.96

>  <Muscarinic acetylcholine receptor M2>
7.55

>  <Muscarinic acetylcholine receptor M3>
7.66

>  <Muscarinic acetylcholine receptor M4>
7.74

>  <Muscarinic acetylcholine receptor M5>
7.6

$$$$
CIMETIDINE
  Marvin  02231216192D 0   1.00000     0.00000     0

 17 17  0  0  0  0  0  0  0  0999 V2000
   -1.4925   -0.0975    0.0000 S   0  0  0  0  0  0  0  0  0
   -2.2070   -0.5100    0.0000 C   0  0  0  0  0  0  0  0  0
   -2.9215   -0.0975    0.0000 C   0  0  0  0  0  0  0  0  0
   -3.6752   -0.4331    0.0000 N   0  0  0  0  0  0  0  0  0
   -4.2272    0.1800    0.0000 C   0  0  0  0  0  0  0  0  0
   -3.8147    0.8945    0.0000 N   0  0  0  0  0  0  0  0  0
   -3.0077    0.7230    0.0000 C   0  0  0  0  0  0  0  0  0
   -2.3946    1.2750    0.0000 C   0  0  0  0  0  0  0  0  0
   -0.7781   -0.5100    0.0000 C   0  0  0  0  0  0  0  0  0
   -0.0636   -0.0975    0.0000 C   0  0  0  0  0  0  0  0  0
    0.6509   -0.5100    0.0000 N   0  0  0  0  0  0  0  0  0
    1.3653   -0.0975    0.0000 C   0  0  0  0  0  0  0  0  0
    1.3653    0.7275    0.0000 N   0  0  0  0  0  0  0  0  0
    2.0798    1.1400    0.0000 C   0  0  0  0  0  0  0  0  0
    2.0798   -0.5100    0.0000 N   0  0  0  0  0  0  0  0  0
    2.7943   -0.0975    0.0000 C   0  0  0  0  0  0  0  0  0
    3.5088    0.3150    0.0000 N   0  0  0  0  0  0  0  0  0
  1  2  1  0  0  0  0
  1  9  1  0  0  0  0
  2  3  1  0  0  0  0
  3  4  4  0  0  0  0
  3  7  4  0  0  0  0
  4  5  4  0  0  0  0
  5  6  4  0  0  0  0
  6  7  4  0  0  0  0
  7  8  1  0  0  0  0
  9 10  1  0  0  0  0
 10 11  1  0  0  0  0
 11 12  1  0  0  0  0
 12 13  2  0  0  0  0
 12 15  1  0  0  0  0
 13 14  1  0  0  0  0
 15 16  1  0  0  0  0
 16 17  3  0  0  0  0
M  STY  1   1 DAT
M  SAL   1  1   6
M  SDT   1 MRV_IMPLICIT_H                                        
M  SDD   1     0.0000    0.0000    DR    ALL  0       0  
M  SED   1 IMPL_H1
M  END
>  <Name_Molregno>
CIMETIDINE

>  <5-HT2A>
5.15

>  <HISTAMINE H1>
5

>  <HISTAMINE H3>
5

>  <HISTAMINE H4>
5

$$$$
Cirazoline
  Marvin  02231216192D 0   1.00000     0.00000     0

 16 18  0  0  0  0  0  0  0  0999 V2000
   -0.4849    0.5579    0.0000 O   0  0  0  0  0  0  0  0  0
   -0.4849   -0.2671    0.0000 C   0  0  0  0  0  0  0  0  0
   -1.1994   -0.6796    0.0000 C   0  0  0  0  0  0  0  0  0
   -1.2856   -1.5001    0.0000 N   0  0  0  0  0  0  0  0  0
   -2.0926   -1.6716    0.0000 C   0  0  0  0  0  0  0  0  0
   -2.5051   -0.9571    0.0000 C   0  0  0  0  0  0  0  0  0
   -1.9531   -0.3440    0.0000 N   0  0  0  0  0  0  0  0  0
    0.2295    0.9704    0.0000 C   0  0  0  0  0  0  0  0  0
    0.2295    1.7954    0.0000 C   0  0  0  0  0  0  0  0  0
    0.9440    2.2079    0.0000 C   0  0  0  0  0  0  0  0  0
    1.6585    1.7954    0.0000 C   0  0  0  0  0  0  0  0  0
    1.6585    0.9704    0.0000 C   0  0  0  0  0  0  0  0  0
    0.9440    0.5579    0.0000 C   0  0  0  0  0  0  0  0  0
    0.9440   -0.2671    0.0000 C   0  0  0  0  0  0  0  0  0
    1.3565   -0.9815    0.0000 C   0  0  0  0  0  0  0  0  0
    0.5315   -0.9815    0.0000 C   0  0  0  0  0  0  0  0  0
  1  2  1  0  0  0  0
  1  8  1  0  0  0  0
  2  3  1  0  0  0  0
  3  4  1  0  0  0  0
  3  7  2  0  0  0  0
  4  5  1  0  0  0  0
  5  6  1  0  0  0  0
  6  7  1  0  0  0  0
  8  9  4  0  0  0  0
  8 13  4  0  0  0  0
  9 10  4  0  0  0  0
 10 11  4  0  0  0  0
 11 12  4  0  0  0  0
 12 13  4  0  0  0  0
 13 14  1  0  0  0  0
 14 15  1  0  0  0  0
 14 16  1  0  0  0  0
 15 16  1  0  0  0  0
M  END
>  <Name_Molregno>
Cirazoline

>  <Alpha-2A>
7.23

>  <Alpha-2B>
6.28

>  <Alpha-2C>
6.26

>  <HISTAMINE H3>
5

$$$$
Clobenpropit
  Marvin  02231216192D 0   1.00000     0.00000     0

 20 21  0  0  0  0  0  0  0  0999 V2000
    0.2554    0.9207    0.0000 Cl  0  0  0  0  0  0  0  0  0
    0.9699    1.3332    0.0000 C   0  0  0  0  0  0  0  0  0
    0.9699    2.1582    0.0000 C   0  0  0  0  0  0  0  0  0
    1.6844    2.5707    0.0000 C   0  0  0  0  0  0  0  0  0
    2.3988    2.1582    0.0000 C   0  0  0  0  0  0  0  0  0
    2.3988    1.3332    0.0000 C   0  0  0  0  0  0  0  0  0
    1.6844    0.9207    0.0000 C   0  0  0  0  0  0  0  0  0
    3.1133    2.5707    0.0000 C   0  0  0  0  0  0  0  0  0
    3.8278    2.1582    0.0000 N   0  0  0  0  0  0  0  0  0
    3.8278    1.3332    0.0000 C   0  0  0  0  0  0  0  0  0
    4.5422    0.9207    0.0000 S   0  0  0  0  0  0  0  0  0
    5.2567    1.3332    0.0000 C   0  0  0  0  0  0  0  0  0
    5.9712    0.9207    0.0000 C   0  0  0  0  0  0  0  0  0
    6.6857    1.3332    0.0000 C   0  0  0  0  0  0  0  0  0
    7.4001    0.9207    0.0000 C   0  0  0  0  0  0  0  0  0
    8.1538    1.2562    0.0000 N   0  0  0  0  0  0  0  0  0
    8.7058    0.6431    0.0000 C   0  0  0  0  0  0  0  0  0
    8.2933   -0.0713    0.0000 N   0  0  0  0  0  0  0  0  0
    7.4864    0.1002    0.0000 C   0  0  0  0  0  0  0  0  0
    3.1133    0.9207    0.0000 N   0  0  0  0  0  0  0  0  0
  1  2  1  0  0  0  0
  2  3  4  0  0  0  0
  2  7  4  0  0  0  0
  3  4  4  0  0  0  0
  4  5  4  0  0  0  0
  5  6  4  0  0  0  0
  5  8  1  0  0  0  0
  6  7  4  0  0  0  0
  8  9  1  0  0  0  0
  9 10  2  0  0  0  0
 10 11  1  0  0  0  0
 10 20  1  0  0  0  0
 11 12  1  0  0  0  0
 12 13  1  0  0  0  0
 13 14  1  0  0  0  0
 14 15  1  0  0  0  0
 15 16  4  0  0  0  0
 15 19  4  0  0  0  0
 16 17  4  0  0  0  0
 17 18  4  0  0  0  0
 18 19  4  0  0  0  0
M  STY  1   1 DAT
M  SAL   1  1  16
M  SDT   1 MRV_IMPLICIT_H                                        
M  SDD   1     0.0000    0.0000    DR    ALL  0       0  
M  SED   1 IMPL_H1
M  END
>  <Name_Molregno>
Clobenpropit

>  <Alpha-2A>
7.76

>  <Alpha-2C>
7.8

>  <HISTAMINE H1>
5.56

>  <HISTAMINE H2>
5.24

>  <HISTAMINE H3>
8.4

>  <HISTAMINE H4>
7.64

$$$$
CLOBENPROPIT-2
  Marvin  02231216192D 0   1.00000     0.00000     0

 20 21  0  0  0  0  0  0  0  0999 V2000
   -0.1733   -2.3952    0.0000 Cl  0  0  0  0  0  0  0  0  0
    0.5412   -1.9827    0.0000 C   0  0  0  0  0  0  0  0  0
    0.5412   -1.1577    0.0000 C   0  0  0  0  0  0  0  0  0
    1.2557   -0.7452    0.0000 C   0  0  0  0  0  0  0  0  0
    1.9702   -1.1577    0.0000 C   0  0  0  0  0  0  0  0  0
    1.9702   -1.9827    0.0000 C   0  0  0  0  0  0  0  0  0
    1.2557   -2.3952    0.0000 C   0  0  0  0  0  0  0  0  0
    2.6846   -0.7452    0.0000 C   0  0  0  0  0  0  0  0  0
    3.3991   -1.1577    0.0000 N   0  0  0  0  0  0  0  0  0
    4.1136   -0.7452    0.0000 C   0  0  0  0  0  0  0  0  0
    4.8280   -1.1577    0.0000 S   0  0  0  0  0  0  0  0  0
    5.5425   -0.7452    0.0000 C   0  0  0  0  0  0  0  0  0
    6.2570   -1.1577    0.0000 C   0  0  0  0  0  0  0  0  0
    6.9715   -0.7452    0.0000 C   0  0  0  0  0  0  0  0  0
    7.6859   -1.1577    0.0000 C   0  0  0  0  0  0  0  0  0
    8.4396   -0.8222    0.0000 N   0  0  0  0  0  0  0  0  0
    8.9916   -1.4353    0.0000 C   0  0  0  0  0  0  0  0  0
    8.5791   -2.1497    0.0000 N   0  0  0  0  0  0  0  0  0
    7.7722   -1.9782    0.0000 C   0  0  0  0  0  0  0  0  0
    4.1136    0.0798    0.0000 N   0  0  0  0  0  0  0  0  0
  1  2  1  0  0  0  0
  2  3  4  0  0  0  0
  2  7  4  0  0  0  0
  3  4  4  0  0  0  0
  4  5  4  0  0  0  0
  5  6  4  0  0  0  0
  5  8  1  0  0  0  0
  6  7  4  0  0  0  0
  8  9  1  0  0  0  0
  9 10  1  0  0  0  0
 10 11  1  0  0  0  0
 10 20  2  0  0  0  0
 11 12  1  0  0  0  0
 12 13  1  0  0  0  0
 13 14  1  0  0  0  0
 14 15  1  0  0  0  0
 15 16  4  0  0  0  0
 15 19  4  0  0  0  0
 16 17  4  0  0  0  0
 17 18  4  0  0  0  0
 18 19  4  0  0  0  0
M  STY  1   1 DAT
M  SAL   1  1  18
M  SDT   1 MRV_IMPLICIT_H                                        
M  SDD   1     0.0000    0.0000    DR    ALL  0       0  
M  SED   1 IMPL_H1
M  END
>  <Name_Molregno>
CLOBENPROPIT-2

>  <HISTAMINE H3>
8.62

>  <HISTAMINE H4>
8.37

$$$$
CLOZAPINE
  Marvin  02231216192D 0   1.00000     0.00000     0

 23 26  0  0  0  0  0  0  0  0999 V2000
   -0.5622   -2.2603    0.0000 Cl  0  0  0  0  0  0  0  0  0
    0.2262   -2.5035    0.0000 C   0  0  0  0  0  0  0  0  0
    0.8309   -1.9424    0.0000 C   0  0  0  0  0  0  0  0  0
    1.6193   -2.1855    0.0000 C   0  0  0  0  0  0  0  0  0
    2.1337   -1.5405    0.0000 N   0  0  0  0  0  0  0  0  0
    2.9587   -1.5405    0.0000 C   0  0  0  0  0  0  0  0  0
    3.3166   -0.7972    0.0000 N   0  0  0  0  0  0  0  0  0
    2.8519   -0.1156    0.0000 C   0  0  0  0  0  0  0  0  0
    3.2098    0.6277    0.0000 C   0  0  0  0  0  0  0  0  0
    4.0325    0.6894    0.0000 N   0  0  0  0  0  0  0  0  0
    4.4973    0.0077    0.0000 C   0  0  0  0  0  0  0  0  0
    4.1393   -0.7356    0.0000 C   0  0  0  0  0  0  0  0  0
    4.3905    1.4327    0.0000 C   0  0  0  0  0  0  0  0  0
    3.4730   -2.1855    0.0000 C   0  0  0  0  0  0  0  0  0
    3.2895   -2.9898    0.0000 C   0  0  0  0  0  0  0  0  0
    2.5462   -3.3478    0.0000 N   0  0  0  0  0  0  0  0  0
    1.8029   -2.9898    0.0000 C   0  0  0  0  0  0  0  0  0
    1.1981   -3.5510    0.0000 C   0  0  0  0  0  0  0  0  0
    0.4098   -3.3078    0.0000 C   0  0  0  0  0  0  0  0  0
    3.8942   -3.5510    0.0000 C   0  0  0  0  0  0  0  0  0
    4.6826   -3.3078    0.0000 C   0  0  0  0  0  0  0  0  0
    4.8662   -2.5035    0.0000 C   0  0  0  0  0  0  0  0  0
    4.2614   -1.9424    0.0000 C   0  0  0  0  0  0  0  0  0
  1  2  1  0  0  0  0
  2  3  4  0  0  0  0
  2 19  4  0  0  0  0
  3  4  4  0  0  0  0
  4  5  1  0  0  0  0
  4 17  4  0  0  0  0
  5  6  1  0  0  0  0
  6  7  1  0  0  0  0
  6 14  2  0  0  0  0
  7  8  1  0  0  0  0
  7 12  1  0  0  0  0
  8  9  1  0  0  0  0
  9 10  1  0  0  0  0
 10 11  1  0  0  0  0
 10 13  1  0  0  0  0
 11 12  1  0  0  0  0
 14 15  1  0  0  0  0
 14 23  1  0  0  0  0
 15 16  2  0  0  0  0
 15 20  1  0  0  0  0
 16 17  1  0  0  0  0
 17 18  4  0  0  0  0
 18 19  4  0  0  0  0
 20 21  2  0  0  0  0
 21 22  1  0  0  0  0
 22 23  2  0  0  0  0
M  END
>  <Name_Molregno>
CLOZAPINE

>  <5-HT1A>
6.88

>  <5-HT1B>
6.33

>  <5-HT1D>
6.27

>  <5-HT1E>
6.19

>  <5-HT2A>
8.22

>  <5-HT2C>
8

>  <5-HT3>
6.62

>  <5-HT5>
5.41

>  <5-HT6>
7.9

>  <5-HT7>
8.05

>  <Alpha-1A>
8.8

>  <Alpha-1B>
8.15

>  <Alpha-2A>
7.15

>  <Alpha-2B>
7.61

>  <Alpha-2C>
7.88

>  <Beta-1>
5.15

>  <Beta-2>
5.39

>  <DOPAMINE D1>
6.69

>  <DOPAMINE D2>
6.9

>  <DOPAMINE D3>
6.62

>  <DOPAMINE D4>
7.62

>  <DOPAMINE D5>
6.62

>  <Dopamine transporter>
5

>  <HISTAMINE H1>
8.81

>  <HISTAMINE H2>
6.82

>  <HISTAMINE H3>
5.25

>  <HISTAMINE H4>
6.15

>  <Muscarinic acetylcholine receptor M1>
8.26

>  <Muscarinic acetylcholine receptor M2>
7.17

>  <Muscarinic acetylcholine receptor M3>
7.59

>  <Muscarinic acetylcholine receptor M4>
7.85

>  <Muscarinic acetylcholine receptor M5>
7.79

>  <Norepinephrine transporter>
5.5

>  <Serotonin transporter>
5.73

$$$$
CLOZAPINE-2
  Marvin  02231216192D 0   1.00000     0.00000     0

 23 26  0  0  0  0  0  0  0  0999 V2000
   -0.5622   -2.2603    0.0000 Cl  0  0  0  0  0  0  0  0  0
    0.2262   -2.5035    0.0000 C   0  0  0  0  0  0  0  0  0
    0.8309   -1.9424    0.0000 C   0  0  0  0  0  0  0  0  0
    1.6193   -2.1855    0.0000 C   0  0  0  0  0  0  0  0  0
    2.1337   -1.5405    0.0000 N   0  0  0  0  0  0  0  0  0
    2.9587   -1.5405    0.0000 C   0  0  0  0  0  0  0  0  0
    3.3166   -0.7972    0.0000 N   0  0  0  0  0  0  0  0  0
    2.8519   -0.1156    0.0000 C   0  0  0  0  0  0  0  0  0
    3.2098    0.6277    0.0000 C   0  0  0  0  0  0  0  0  0
    4.0325    0.6894    0.0000 N   0  0  0  0  0  0  0  0  0
    4.4973    0.0077    0.0000 C   0  0  0  0  0  0  0  0  0
    4.1393   -0.7356    0.0000 C   0  0  0  0  0  0  0  0  0
    4.3905    1.4327    0.0000 C   0  0  0  0  0  0  0  0  0
    3.4730   -2.1855    0.0000 C   0  0  0  0  0  0  0  0  0
    3.2895   -2.9898    0.0000 C   0  0  0  0  0  0  0  0  0
    2.5462   -3.3478    0.0000 N   0  0  0  0  0  0  0  0  0
    1.8029   -2.9898    0.0000 C   0  0  0  0  0  0  0  0  0
    1.1981   -3.5510    0.0000 C   0  0  0  0  0  0  0  0  0
    0.4098   -3.3078    0.0000 C   0  0  0  0  0  0  0  0  0
    3.8942   -3.5510    0.0000 C   0  0  0  0  0  0  0  0  0
    4.6826   -3.3078    0.0000 C   0  0  0  0  0  0  0  0  0
    4.8662   -2.5035    0.0000 C   0  0  0  0  0  0  0  0  0
    4.2614   -1.9424    0.0000 C   0  0  0  0  0  0  0  0  0
  1  2  1  0  0  0  0
  2  3  4  0  0  0  0
  2 19  4  0  0  0  0
  3  4  4  0  0  0  0
  4  5  1  0  0  0  0
  4 17  4  0  0  0  0
  5  6  2  0  0  0  0
  6  7  1  0  0  0  0
  6 14  1  0  0  0  0
  7  8  1  0  0  0  0
  7 12  1  0  0  0  0
  8  9  1  0  0  0  0
  9 10  1  0  0  0  0
 10 11  1  0  0  0  0
 10 13  1  0  0  0  0
 11 12  1  0  0  0  0
 14 15  4  0  0  0  0
 14 23  4  0  0  0  0
 15 16  1  0  0  0  0
 15 20  4  0  0  0  0
 16 17  1  0  0  0  0
 17 18  4  0  0  0  0
 18 19  4  0  0  0  0
 20 21  4  0  0  0  0
 21 22  4  0  0  0  0
 22 23  4  0  0  0  0
M  END
>  <Name_Molregno>
CLOZAPINE-2

>  <5-HT1A>
6.92

>  <5-HT2A>
8.15

>  <5-HT2C>
7.92

>  <5-HT3>
6.4

>  <5-HT5>
6

>  <5-HT6>
7.85

>  <5-HT7>
7.47

>  <Alpha-2A>
7.62

>  <Alpha-2C>
8.54

>  <DOPAMINE D1>
7

>  <DOPAMINE D2>
7.03

>  <DOPAMINE D3>
6.48

>  <DOPAMINE D4>
7.6

>  <DOPAMINE D5>
6.7

>  <HISTAMINE H1>
8.77

>  <HISTAMINE H3>
6.1

>  <HISTAMINE H4>
6.75

>  <Muscarinic acetylcholine receptor M1>
8.47

>  <Muscarinic acetylcholine receptor M4>
7.9

>  <Serotonin transporter>
5.41

$$$$
CYPROHEPTADINE
  Marvin  02231216192D 0   1.00000     0.00000     0

 22 25  0  0  0  0  0  0  0  0999 V2000
    2.3061   -2.3673    0.0000 N   0  0  0  0  0  0  0  0  0
    1.5917   -1.9548    0.0000 C   0  0  0  0  0  0  0  0  0
    1.5917   -1.1298    0.0000 C   0  0  0  0  0  0  0  0  0
    2.3061   -0.7173    0.0000 C   0  0  0  0  0  0  0  0  0
    3.0206   -1.1298    0.0000 C   0  0  0  0  0  0  0  0  0
    3.0206   -1.9548    0.0000 C   0  0  0  0  0  0  0  0  0
    2.3061    0.1077    0.0000 C   0  0  0  0  0  0  0  0  0
    3.0494    0.4657    0.0000 C   0  0  0  0  0  0  0  0  0
    3.2330    1.2700    0.0000 C   0  0  0  0  0  0  0  0  0
    2.7186    1.9150    0.0000 C   0  0  0  0  0  0  0  0  0
    1.8936    1.9150    0.0000 C   0  0  0  0  0  0  0  0  0
    1.3792    1.2700    0.0000 C   0  0  0  0  0  0  0  0  0
    1.5628    0.4657    0.0000 C   0  0  0  0  0  0  0  0  0
    0.9581   -0.0955    0.0000 C   0  0  0  0  0  0  0  0  0
    0.1697    0.1477    0.0000 C   0  0  0  0  0  0  0  0  0
   -0.0139    0.9520    0.0000 C   0  0  0  0  0  0  0  0  0
    0.5909    1.5132    0.0000 C   0  0  0  0  0  0  0  0  0
    4.0214    1.5132    0.0000 C   0  0  0  0  0  0  0  0  0
    4.6261    0.9520    0.0000 C   0  0  0  0  0  0  0  0  0
    4.4425    0.1477    0.0000 C   0  0  0  0  0  0  0  0  0
    3.6542   -0.0955    0.0000 C   0  0  0  0  0  0  0  0  0
    2.3061   -3.1923    0.0000 C   0  0  0  0  0  0  0  0  0
  1  2  1  0  0  0  0
  1  6  1  0  0  0  0
  1 22  1  0  0  0  0
  2  3  1  0  0  0  0
  3  4  1  0  0  0  0
  4  5  1  0  0  0  0
  4  7  2  0  0  0  0
  5  6  1  0  0  0  0
  7  8  1  0  0  0  0
  7 13  1  0  0  0  0
  8  9  4  0  0  0  0
  8 21  4  0  0  0  0
  9 10  1  0  0  0  0
  9 18  4  0  0  0  0
 10 11  2  0  0  0  0
 11 12  1  0  0  0  0
 12 13  4  0  0  0  0
 12 17  4  0  0  0  0
 13 14  4  0  0  0  0
 14 15  4  0  0  0  0
 15 16  4  0  0  0  0
 16 17  4  0  0  0  0
 18 19  4  0  0  0  0
 19 20  4  0  0  0  0
 20 21  4  0  0  0  0
M  END
>  <Name_Molregno>
CYPROHEPTADINE

>  <5-HT1A>
7.12

>  <5-HT1D>
5.89

>  <5-HT2A>
8.42

>  <5-HT2C>
8.65

>  <5-HT6>
6.85

>  <5-HT7>
6.91

>  <DOPAMINE D1>
6.93

>  <DOPAMINE D2>
6.95

>  <DOPAMINE D3>
8.1

>  <HISTAMINE H1>
10.22

>  <HISTAMINE H3>
5

>  <HISTAMINE H4>
5.85

>  <Muscarinic acetylcholine receptor M1>
7.92

>  <Muscarinic acetylcholine receptor M2>
8.15

>  <Muscarinic acetylcholine receptor M3>
7.92

>  <Muscarinic acetylcholine receptor M4>
8.1

>  <Muscarinic acetylcholine receptor M5>
7.93

$$$$
Diphenhydramine
  Marvin  02231216192D 0   1.00000     0.00000     0

 19 20  0  0  0  0  0  0  0  0999 V2000
    0.5098    1.4209    0.0000 O   0  0  0  0  0  0  0  0  0
   -0.2047    1.0084    0.0000 C   0  0  0  0  0  0  0  0  0
   -0.9192    1.4209    0.0000 C   0  0  0  0  0  0  0  0  0
   -1.6337    1.0084    0.0000 C   0  0  0  0  0  0  0  0  0
   -2.3481    1.4209    0.0000 C   0  0  0  0  0  0  0  0  0
   -2.3481    2.2459    0.0000 C   0  0  0  0  0  0  0  0  0
   -1.6337    2.6584    0.0000 C   0  0  0  0  0  0  0  0  0
   -0.9192    2.2459    0.0000 C   0  0  0  0  0  0  0  0  0
   -0.2047    0.1834    0.0000 C   0  0  0  0  0  0  0  0  0
    0.5098   -0.2291    0.0000 C   0  0  0  0  0  0  0  0  0
    0.5098   -1.0541    0.0000 C   0  0  0  0  0  0  0  0  0
   -0.2047   -1.4666    0.0000 C   0  0  0  0  0  0  0  0  0
   -0.9192   -1.0541    0.0000 C   0  0  0  0  0  0  0  0  0
   -0.9192   -0.2291    0.0000 C   0  0  0  0  0  0  0  0  0
    1.2242    1.0084    0.0000 C   0  0  0  0  0  0  0  0  0
    1.9387    1.4209    0.0000 C   0  0  0  0  0  0  0  0  0
    2.6532    1.0084    0.0000 N   0  0  0  0  0  0  0  0  0
    3.3676    1.4209    0.0000 C   0  0  0  0  0  0  0  0  0
    2.6532    0.1834    0.0000 C   0  0  0  0  0  0  0  0  0
  1  2  1  0  0  0  0
  1 15  1  0  0  0  0
  2  3  1  0  0  0  0
  2  9  1  0  0  0  0
  3  4  4  0  0  0  0
  3  8  4  0  0  0  0
  4  5  4  0  0  0  0
  5  6  4  0  0  0  0
  6  7  4  0  0  0  0
  7  8  4  0  0  0  0
  9 10  4  0  0  0  0
  9 14  4  0  0  0  0
 10 11  4  0  0  0  0
 11 12  4  0  0  0  0
 12 13  4  0  0  0  0
 13 14  4  0  0  0  0
 15 16  1  0  0  0  0
 16 17  1  0  0  0  0
 17 18  1  0  0  0  0
 17 19  1  0  0  0  0
M  END
>  <Name_Molregno>
Diphenhydramine

>  <HISTAMINE H1>
7.78

>  <HISTAMINE H3>
5

>  <HISTAMINE H4>
5

>  <Muscarinic acetylcholine receptor M1>
7

>  <Muscarinic acetylcholine receptor M2>
6.92

>  <Muscarinic acetylcholine receptor M3>
6.64

>  <Muscarinic acetylcholine receptor M4>
6.95

>  <Muscarinic acetylcholine receptor M5>
6.59

$$$$
FLUOXETINE
  Marvin  02231216192D 0   1.00000     0.00000     0

 22 23  0  0  1  0  0  0  0  0999 V2000
    0.2470    0.2265    0.0000 F   0  0  0  0  0  0  0  0  0
    0.9615   -0.1860    0.0000 C   0  0  0  0  0  0  0  0  0
    0.5490   -0.9005    0.0000 F   0  0  0  0  0  0  0  0  0
    1.3740    0.5285    0.0000 F   0  0  0  0  0  0  0  0  0
    1.6760   -0.5985    0.0000 C   0  0  0  0  0  0  0  0  0
    2.3904   -0.1860    0.0000 C   0  0  0  0  0  0  0  0  0
    3.1049   -0.5985    0.0000 C   0  0  0  0  0  0  0  0  0
    3.1049   -1.4235    0.0000 C   0  0  0  0  0  0  0  0  0
    3.8194   -1.8360    0.0000 O   0  0  0  0  0  0  0  0  0
    4.5339   -1.4235    0.0000 C   0  0  0  0  0  0  0  0  0
    5.2483   -1.8360    0.0000 C   0  0  0  0  0  0  0  0  0
    5.9628   -1.4235    0.0000 C   0  0  0  0  0  0  0  0  0
    6.6773   -1.8360    0.0000 N   0  0  0  0  0  0  0  0  0
    7.3917   -1.4235    0.0000 C   0  0  0  0  0  0  0  0  0
    4.5339   -0.5985    0.0000 C   0  0  0  0  0  0  0  0  0
    3.8194   -0.1860    0.0000 C   0  0  0  0  0  0  0  0  0
    3.8194    0.6390    0.0000 C   0  0  0  0  0  0  0  0  0
    4.5339    1.0515    0.0000 C   0  0  0  0  0  0  0  0  0
    5.2483    0.6390    0.0000 C   0  0  0  0  0  0  0  0  0
    5.2483   -0.1860    0.0000 C   0  0  0  0  0  0  0  0  0
    2.3904   -1.8360    0.0000 C   0  0  0  0  0  0  0  0  0
    1.6760   -1.4235    0.0000 C   0  0  0  0  0  0  0  0  0
  1  2  1  0  0  0  0
  2  3  1  0  0  0  0
  2  4  1  0  0  0  0
  2  5  1  0  0  0  0
  5  6  4  0  0  0  0
  5 22  4  0  0  0  0
  6  7  4  0  0  0  0
  7  8  4  0  0  0  0
  8  9  1  0  0  0  0
  8 21  4  0  0  0  0
  9 10  1  0  0  0  0
 10 11  1  0  0  0  0
 10 15  1  0  0  0  0
 11 12  1  0  0  0  0
 12 13  1  0  0  0  0
 13 14  1  0  0  0  0
 15 16  4  0  0  0  0
 15 20  4  0  0  0  0
 16 17  4  0  0  0  0
 17 18  4  0  0  0  0
 18 19  4  0  0  0  0
 19 20  4  0  0  0  0
 21 22  4  0  0  0  0
M  END
>  <Name_Molregno>
FLUOXETINE

>  <5-HT1A>
5

>  <5-HT2A>
6.72

>  <5-HT2C>
6.67

>  <Alpha-2A>
8.2

>  <DOPAMINE D2>
5

>  <Dopamine transporter>
5.32

>  <HISTAMINE H1>
5.62

>  <HISTAMINE H3>
5.14

>  <Muscarinic acetylcholine receptor M1>
6.05

>  <Muscarinic acetylcholine receptor M2>
5.57

>  <Muscarinic acetylcholine receptor M3>
6

>  <Muscarinic acetylcholine receptor M4>
5.54

>  <Muscarinic acetylcholine receptor M5>
5.57

>  <Norepinephrine transporter>
6.05

>  <Serotonin transporter>
8.57

$$$$
FLUPHENAZINE
  Marvin  02231216192D 0   1.00000     0.00000     0

 38 41  0  0  0  0  0  0  0  0999 V2000
   -7.1492   -1.5262    0.0000 S   0  0  0  0  0  0  0  0  0
   -7.1492   -2.3512    0.0000 C   0  0  0  0  0  0  0  0  0
   -6.4348   -2.7637    0.0000 C   0  0  0  0  0  0  0  0  0
   -5.7203   -2.3512    0.0000 N   0  0  0  0  0  0  0  0  0
   -5.7203   -1.5262    0.0000 C   0  0  0  0  0  0  0  0  0
   -6.4348   -1.1137    0.0000 C   0  0  0  0  0  0  0  0  0
   -6.4348   -0.2887    0.0000 C   0  0  0  0  0  0  0  0  0
   -5.7203    0.1238    0.0000 C   0  0  0  0  0  0  0  0  0
   -5.0058   -0.2887    0.0000 C   0  0  0  0  0  0  0  0  0
   -5.0058   -1.1137    0.0000 C   0  0  0  0  0  0  0  0  0
   -5.0058   -2.7637    0.0000 C   0  0  0  0  0  0  0  0  0
   -4.2914   -2.3512    0.0000 C   0  0  0  0  0  0  0  0  0
   -3.5769   -2.7637    0.0000 C   0  0  0  0  0  0  0  0  0
   -2.8624   -2.3512    0.0000 N   0  0  0  0  0  0  0  0  0
   -2.8624   -1.5262    0.0000 C   0  0  0  0  0  0  0  0  0
   -2.1479   -1.1137    0.0000 C   0  0  0  0  0  0  0  0  0
   -1.4335   -1.5262    0.0000 N   0  0  0  0  0  0  0  0  0
   -1.4335   -2.3512    0.0000 C   0  0  0  0  0  0  0  0  0
   -2.1479   -2.7637    0.0000 C   0  0  0  0  0  0  0  0  0
   -0.7190   -1.1137    0.0000 C   0  0  0  0  0  0  0  0  0
   -0.0045   -1.5262    0.0000 C   0  0  0  0  0  0  0  0  0
    0.7099   -1.1137    0.0000 O   0  0  0  0  0  0  0  0  0
    1.4244   -1.5262    0.0000 C   0  0  0  0  0  0  0  0  0
    1.4244   -2.3512    0.0000 O   0  0  0  0  0  0  0  0  0
    2.1389   -1.1137    0.0000 C   0  0  0  0  0  0  0  0  0
    2.8534   -1.5262    0.0000 C   0  0  0  0  0  0  0  0  0
    3.5678   -1.1137    0.0000 C   0  0  0  0  0  0  0  0  0
    4.2823   -1.5262    0.0000 C   0  0  0  0  0  0  0  0  0
    4.9968   -1.1137    0.0000 C   0  0  0  0  0  0  0  0  0
    5.7112   -1.5262    0.0000 C   0  0  0  0  0  0  0  0  0
   -6.4348   -3.5887    0.0000 C   0  0  0  0  0  0  0  0  0
   -7.1492   -4.0012    0.0000 C   0  0  0  0  0  0  0  0  0
   -7.8637   -3.5887    0.0000 C   0  0  0  0  0  0  0  0  0
   -7.8637   -2.7637    0.0000 C   0  0  0  0  0  0  0  0  0
   -7.1492   -4.8262    0.0000 C   0  0  0  0  0  0  0  0  0
   -7.1492   -5.6512    0.0000 F   0  0  0  0  0  0  0  0  0
   -7.9742   -4.8262    0.0000 F   0  0  0  0  0  0  0  0  0
   -6.3242   -4.8262    0.0000 F   0  0  0  0  0  0  0  0  0
  1  2  1  0  0  0  0
  1  6  1  0  0  0  0
  2  3  4  0  0  0  0
  2 34  4  0  0  0  0
  3  4  1  0  0  0  0
  3 31  4  0  0  0  0
  4  5  1  0  0  0  0
  4 11  1  0  0  0  0
  5  6  4  0  0  0  0
  5 10  4  0  0  0  0
  6  7  4  0  0  0  0
  7  8  4  0  0  0  0
  8  9  4  0  0  0  0
  9 10  4  0  0  0  0
 11 12  1  0  0  0  0
 12 13  1  0  0  0  0
 13 14  1  0  0  0  0
 14 15  1  0  0  0  0
 14 19  1  0  0  0  0
 15 16  1  0  0  0  0
 16 17  1  0  0  0  0
 17 18  1  0  0  0  0
 17 20  1  0  0  0  0
 18 19  1  0  0  0  0
 20 21  1  0  0  0  0
 21 22  1  0  0  0  0
 22 23  1  0  0  0  0
 23 24  2  0  0  0  0
 23 25  1  0  0  0  0
 25 26  1  0  0  0  0
 26 27  1  0  0  0  0
 27 28  1  0  0  0  0
 28 29  1  0  0  0  0
 29 30  1  0  0  0  0
 31 32  4  0  0  0  0
 32 33  4  0  0  0  0
 32 35  1  0  0  0  0
 33 34  4  0  0  0  0
 35 36  1  0  0  0  0
 35 37  1  0  0  0  0
 35 38  1  0  0  0  0
M  END
>  <Name_Molregno>
FLUPHENAZINE

>  <5-HT1A>
6.41

>  <5-HT1B>
6.48

>  <5-HT1D>
6.48

>  <5-HT1E>
6.27

>  <5-HT2A>
7.87

>  <5-HT2C>
6.05

>  <5-HT3>
5

>  <5-HT5>
6.84

>  <5-HT6>
7.46

>  <5-HT7>
8.1

>  <Alpha-1A>
8.19

>  <Alpha-1B>
7.89

>  <Alpha-2A>
6.5

>  <Alpha-2B>
7.09

>  <Alpha-2C>
7.54

>  <Beta-1>
5

>  <Beta-2>
5

>  <DOPAMINE D1>
7.55

>  <DOPAMINE D2>
9.22

>  <DOPAMINE D3>
9.33

>  <DOPAMINE D4>
7.52

>  <DOPAMINE D5>
7.82

>  <Dopamine transporter>
5

>  <HISTAMINE H1>
7.72

>  <HISTAMINE H2>
6.25

>  <HISTAMINE H3>
6

>  <HISTAMINE H4>
5

>  <Muscarinic acetylcholine receptor M1>
5.96

>  <Muscarinic acetylcholine receptor M2>
5.14

>  <Muscarinic acetylcholine receptor M3>
5.84

>  <Muscarinic acetylcholine receptor M4>
5.27

>  <Muscarinic acetylcholine receptor M5>
6.45

>  <Norepinephrine transporter>
5.51

>  <Serotonin transporter>
5.23

$$$$
FLUPHENAZINE-2
  Marvin  02231216192D 0   1.00000     0.00000     0

 30 33  0  0  0  0  0  0  0  0999 V2000
    2.0347   -4.2531    0.0000 S   0  0  0  0  0  0  0  0  0
    2.7492   -3.8406    0.0000 C   0  0  0  0  0  0  0  0  0
    2.7492   -3.0156    0.0000 C   0  0  0  0  0  0  0  0  0
    2.0347   -2.6031    0.0000 N   0  0  0  0  0  0  0  0  0
    1.3203   -3.0156    0.0000 C   0  0  0  0  0  0  0  0  0
    1.3203   -3.8406    0.0000 C   0  0  0  0  0  0  0  0  0
    0.6058   -4.2531    0.0000 C   0  0  0  0  0  0  0  0  0
   -0.1087   -3.8406    0.0000 C   0  0  0  0  0  0  0  0  0
   -0.1087   -3.0156    0.0000 C   0  0  0  0  0  0  0  0  0
    0.6058   -2.6031    0.0000 C   0  0  0  0  0  0  0  0  0
    2.0347   -1.7781    0.0000 C   0  0  0  0  0  0  0  0  0
    1.3203   -1.3656    0.0000 C   0  0  0  0  0  0  0  0  0
    1.3203   -0.5406    0.0000 C   0  0  0  0  0  0  0  0  0
    0.6058   -0.1281    0.0000 N   0  0  0  0  0  0  0  0  0
   -0.1087   -0.5406    0.0000 C   0  0  0  0  0  0  0  0  0
   -0.8231   -0.1281    0.0000 C   0  0  0  0  0  0  0  0  0
   -0.8231    0.6969    0.0000 N   0  0  0  0  0  0  0  0  0
   -0.1087    1.1094    0.0000 C   0  0  0  0  0  0  0  0  0
    0.6058    0.6969    0.0000 C   0  0  0  0  0  0  0  0  0
   -1.5376    1.1094    0.0000 C   0  0  0  0  0  0  0  0  0
   -1.5376    1.9344    0.0000 C   0  0  0  0  0  0  0  0  0
   -2.2521    2.3469    0.0000 O   0  0  0  0  0  0  0  0  0
    3.4637   -2.6031    0.0000 C   0  0  0  0  0  0  0  0  0
    4.1782   -3.0156    0.0000 C   0  0  0  0  0  0  0  0  0
    4.1782   -3.8406    0.0000 C   0  0  0  0  0  0  0  0  0
    3.4637   -4.2531    0.0000 C   0  0  0  0  0  0  0  0  0
    4.8926   -2.6031    0.0000 C   0  0  0  0  0  0  0  0  0
    5.6071   -2.1906    0.0000 F   0  0  0  0  0  0  0  0  0
    5.3051   -3.3176    0.0000 F   0  0  0  0  0  0  0  0  0
    4.4801   -1.8887    0.0000 F   0  0  0  0  0  0  0  0  0
  1  2  1  0  0  0  0
  1  6  1  0  0  0  0
  2  3  4  0  0  0  0
  2 26  4  0  0  0  0
  3  4  1  0  0  0  0
  3 23  4  0  0  0  0
  4  5  1  0  0  0  0
  4 11  1  0  0  0  0
  5  6  4  0  0  0  0
  5 10  4  0  0  0  0
  6  7  4  0  0  0  0
  7  8  4  0  0  0  0
  8  9  4  0  0  0  0
  9 10  4  0  0  0  0
 11 12  1  0  0  0  0
 12 13  1  0  0  0  0
 13 14  1  0  0  0  0
 14 15  1  0  0  0  0
 14 19  1  0  0  0  0
 15 16  1  0  0  0  0
 16 17  1  0  0  0  0
 17 18  1  0  0  0  0
 17 20  1  0  0  0  0
 18 19  1  0  0  0  0
 20 21  1  0  0  0  0
 21 22  1  0  0  0  0
 23 24  4  0  0  0  0
 24 25  4  0  0  0  0
 24 27  1  0  0  0  0
 25 26  4  0  0  0  0
 27 28  1  0  0  0  0
 27 29  1  0  0  0  0
 27 30  1  0  0  0  0
M  END
>  <Name_Molregno>
FLUPHENAZINE-2

>  <5-HT6>
7.3

>  <DOPAMINE D1>
6.75

>  <DOPAMINE D2>
8.84

>  <DOPAMINE D3>
8.49

>  <DOPAMINE D5>
7.68

>  <HISTAMINE H1>
7.4

>  <HISTAMINE H3>
6

$$$$
HISTAMINE
  Marvin  02231216192D 0   1.00000     0.00000     0

  8  8  0  0  0  0  0  0  0  0999 V2000
    1.0236   -1.0521    0.0000 N   0  0  0  0  0  0  0  0  0
    0.7687   -1.8367    0.0000 C   0  0  0  0  0  0  0  0  0
   -0.0563   -1.8367    0.0000 N   0  0  0  0  0  0  0  0  0
   -0.3113   -1.0521    0.0000 C   0  0  0  0  0  0  0  0  0
    0.3562   -0.5672    0.0000 C   0  0  0  0  0  0  0  0  0
    0.3562    0.2578    0.0000 C   0  0  0  0  0  0  0  0  0
    1.0706    0.6703    0.0000 C   0  0  0  0  0  0  0  0  0
    1.0706    1.4953    0.0000 N   0  0  0  0  0  0  0  0  0
  1  2  4  0  0  0  0
  1  5  4  0  0  0  0
  2  3  4  0  0  0  0
  3  4  4  0  0  0  0
  4  5  4  0  0  0  0
  5  6  1  0  0  0  0
  6  7  1  0  0  0  0
  7  8  1  0  0  0  0
M  STY  1   1 DAT
M  SAL   1  1   1
M  SDT   1 MRV_IMPLICIT_H                                        
M  SDD   1     0.0000    0.0000    DR    ALL  0       0  
M  SED   1 IMPL_H1
M  END
>  <Name_Molregno>
HISTAMINE

>  <5-HT2A>
5

>  <5-HT3>
5

>  <5-HT7>
5

>  <HISTAMINE H1>
5.5

>  <HISTAMINE H2>
5

>  <HISTAMINE H3>
7.87

>  <HISTAMINE H4>
7.46

$$$$
Imetit
  Marvin  02231216192D 0   1.00000     0.00000     0

 11 11  0  0  0  0  0  0  0  0999 V2000
    2.3375    0.0073    0.0000 S   0  0  0  0  0  0  0  0  0
    1.6230   -0.4052    0.0000 C   0  0  0  0  0  0  0  0  0
    0.9085    0.0073    0.0000 C   0  0  0  0  0  0  0  0  0
    0.1941   -0.4052    0.0000 C   0  0  0  0  0  0  0  0  0
    0.1078   -1.2257    0.0000 N   0  0  0  0  0  0  0  0  0
   -0.6992   -1.3972    0.0000 C   0  0  0  0  0  0  0  0  0
   -1.1117   -0.6827    0.0000 N   0  0  0  0  0  0  0  0  0
   -0.5596   -0.0696    0.0000 C   0  0  0  0  0  0  0  0  0
    3.0519   -0.4052    0.0000 C   0  0  0  0  0  0  0  0  0
    3.7664    0.0073    0.0000 N   0  0  0  0  0  0  0  0  0
    3.0519   -1.2302    0.0000 N   0  0  0  0  0  0  0  0  0
  1  2  1  0  0  0  0
  1  9  1  0  0  0  0
  2  3  1  0  0  0  0
  3  4  1  0  0  0  0
  4  5  4  0  0  0  0
  4  8  4  0  0  0  0
  5  6  4  0  0  0  0
  6  7  4  0  0  0  0
  7  8  4  0  0  0  0
  9 10  1  0  0  0  0
  9 11  2  0  0  0  0
M  STY  1   1 DAT
M  SAL   1  1   5
M  SDT   1 MRV_IMPLICIT_H                                        
M  SDD   1     0.0000    0.0000    DR    ALL  0       0  
M  SED   1 IMPL_H1
M  END
>  <Name_Molregno>
Imetit

>  <HISTAMINE H3>
8.35

>  <HISTAMINE H4>
6.99

$$$$
IMETIT-2
  Marvin  02231216192D 0   1.00000     0.00000     0

 11 11  0  0  0  0  0  0  0  0999 V2000
    2.3375    0.0073    0.0000 S   0  0  0  0  0  0  0  0  0
    1.6230   -0.4052    0.0000 C   0  0  0  0  0  0  0  0  0
    0.9085    0.0073    0.0000 C   0  0  0  0  0  0  0  0  0
    0.1941   -0.4052    0.0000 C   0  0  0  0  0  0  0  0  0
    0.1078   -1.2257    0.0000 N   0  0  0  0  0  0  0  0  0
   -0.6992   -1.3972    0.0000 C   0  0  0  0  0  0  0  0  0
   -1.1117   -0.6827    0.0000 N   0  0  0  0  0  0  0  0  0
   -0.5596   -0.0696    0.0000 C   0  0  0  0  0  0  0  0  0
    3.0519   -0.4052    0.0000 C   0  0  0  0  0  0  0  0  0
    3.7664    0.0073    0.0000 N   0  0  0  0  0  0  0  0  0
    3.0519   -1.2302    0.0000 N   0  0  0  0  0  0  0  0  0
  1  2  1  0  0  0  0
  1  9  1  0  0  0  0
  2  3  1  0  0  0  0
  3  4  1  0  0  0  0
  4  5  4  0  0  0  0
  4  8  4  0  0  0  0
  5  6  4  0  0  0  0
  6  7  4  0  0  0  0
  7  8  4  0  0  0  0
  9 10  1  0  0  0  0
  9 11  2  0  0  0  0
M  STY  1   1 DAT
M  SAL   1  1   7
M  SDT   1 MRV_IMPLICIT_H                                        
M  SDD   1     0.0000    0.0000    DR    ALL  0       0  
M  SED   1 IMPL_H1
M  END
>  <Name_Molregno>
IMETIT-2

>  <HISTAMINE H3>
9.02

>  <HISTAMINE H4>
8.32

$$$$
Imidazole
  Marvin  02231216192D 0   1.00000     0.00000     0

  5  5  0  0  0  0  0  0  0  0999 V2000
    0.8844    0.8845    0.0000 N   0  0  0  0  0  0  0  0  0
    0.6294    0.0998    0.0000 C   0  0  0  0  0  0  0  0  0
   -0.1956    0.0998    0.0000 C   0  0  0  0  0  0  0  0  0
   -0.4505    0.8845    0.0000 N   0  0  0  0  0  0  0  0  0
    0.2169    1.3694    0.0000 C   0  0  0  0  0  0  0  0  0
  1  2  4  0  0  0  0
  1  5  4  0  0  0  0
  2  3  4  0  0  0  0
  3  4  4  0  0  0  0
  4  5  4  0  0  0  0
M  STY  1   1 DAT
M  SAL   1  1   1
M  SDT   1 MRV_IMPLICIT_H                                        
M  SDD   1     0.0000    0.0000    DR    ALL  0       0  
M  SED   1 IMPL_H1
M  END
>  <Name_Molregno>
Imidazole

>  <HISTAMINE H3>
5

$$$$
Immepip
  Marvin  02231216192D 0   1.00000     0.00000     0

 12 13  0  0  0  0  0  0  0  0999 V2000
    1.5604   -1.6758    0.0000 N   0  0  0  0  0  0  0  0  0
    1.3055   -2.4604    0.0000 C   0  0  0  0  0  0  0  0  0
    0.4805   -2.4604    0.0000 N   0  0  0  0  0  0  0  0  0
    0.2255   -1.6758    0.0000 C   0  0  0  0  0  0  0  0  0
    0.8930   -1.1908    0.0000 C   0  0  0  0  0  0  0  0  0
    0.8930   -0.3658    0.0000 C   0  0  0  0  0  0  0  0  0
    1.6075    0.0467    0.0000 C   0  0  0  0  0  0  0  0  0
    1.6075    0.8717    0.0000 C   0  0  0  0  0  0  0  0  0
    2.3219    1.2842    0.0000 C   0  0  0  0  0  0  0  0  0
    3.0364    0.8717    0.0000 N   0  0  0  0  0  0  0  0  0
    3.0364    0.0467    0.0000 C   0  0  0  0  0  0  0  0  0
    2.3219   -0.3658    0.0000 C   0  0  0  0  0  0  0  0  0
  1  2  4  0  0  0  0
  1  5  4  0  0  0  0
  2  3  4  0  0  0  0
  3  4  4  0  0  0  0
  4  5  4  0  0  0  0
  5  6  1  0  0  0  0
  6  7  1  0  0  0  0
  7  8  1  0  0  0  0
  7 12  1  0  0  0  0
  8  9  1  0  0  0  0
  9 10  1  0  0  0  0
 10 11  1  0  0  0  0
 11 12  1  0  0  0  0
M  STY  1   1 DAT
M  SAL   1  1   1
M  SDT   1 MRV_IMPLICIT_H                                        
M  SDD   1     0.0000    0.0000    DR    ALL  0       0  
M  SED   1 IMPL_H1
M  END
>  <Name_Molregno>
Immepip

>  <HISTAMINE H3>
7.73

>  <HISTAMINE H4>
8.05

$$$$
Impromidine
  Marvin  02231216192D 0   1.00000     0.00000     0

 22 23  0  0  0  0  0  0  0  0999 V2000
   -3.8767   -0.9205    0.0000 S   0  0  0  0  0  0  0  0  0
   -4.5911   -0.5080    0.0000 C   0  0  0  0  0  0  0  0  0
   -5.3056   -0.9205    0.0000 C   0  0  0  0  0  0  0  0  0
   -5.3918   -1.7410    0.0000 N   0  0  0  0  0  0  0  0  0
   -6.1988   -1.9125    0.0000 C   0  0  0  0  0  0  0  0  0
   -6.6113   -1.1980    0.0000 N   0  0  0  0  0  0  0  0  0
   -6.0593   -0.5849    0.0000 C   0  0  0  0  0  0  0  0  0
   -6.2308    0.2220    0.0000 C   0  0  0  0  0  0  0  0  0
   -3.1622   -0.5080    0.0000 C   0  0  0  0  0  0  0  0  0
   -2.4477   -0.9205    0.0000 C   0  0  0  0  0  0  0  0  0
   -1.7332   -0.5080    0.0000 N   0  0  0  0  0  0  0  0  0
   -1.0188   -0.9205    0.0000 C   0  0  0  0  0  0  0  0  0
   -0.3043   -0.5080    0.0000 N   0  0  0  0  0  0  0  0  0
   -0.3043    0.3170    0.0000 C   0  0  0  0  0  0  0  0  0
    0.4102    0.7295    0.0000 C   0  0  0  0  0  0  0  0  0
    0.4102    1.5545    0.0000 C   0  0  0  0  0  0  0  0  0
    1.1246    1.9670    0.0000 C   0  0  0  0  0  0  0  0  0
    1.2109    2.7875    0.0000 N   0  0  0  0  0  0  0  0  0
    2.0178    2.9590    0.0000 C   0  0  0  0  0  0  0  0  0
    2.4303    2.2445    0.0000 N   0  0  0  0  0  0  0  0  0
    1.8783    1.6314    0.0000 C   0  0  0  0  0  0  0  0  0
   -1.0188   -1.7455    0.0000 N   0  0  0  0  0  0  0  0  0
  1  2  1  0  0  0  0
  1  9  1  0  0  0  0
  2  3  1  0  0  0  0
  3  4  4  0  0  0  0
  3  7  4  0  0  0  0
  4  5  4  0  0  0  0
  5  6  4  0  0  0  0
  6  7  4  0  0  0  0
  7  8  1  0  0  0  0
  9 10  1  0  0  0  0
 10 11  1  0  0  0  0
 11 12  1  0  0  0  0
 12 13  2  0  0  0  0
 12 22  1  0  0  0  0
 13 14  1  0  0  0  0
 14 15  1  0  0  0  0
 15 16  1  0  0  0  0
 16 17  1  0  0  0  0
 17 18  4  0  0  0  0
 17 21  4  0  0  0  0
 18 19  4  0  0  0  0
 19 20  4  0  0  0  0
 20 21  4  0  0  0  0
M  STY  2   1 DAT   2 DAT
M  SAL   1  1   6
M  SDT   1 MRV_IMPLICIT_H                                        
M  SDD   1     0.0000    0.0000    DR    ALL  0       0  
M  SED   1 IMPL_H1
M  SAL   2  1  18
M  SDT   2 MRV_IMPLICIT_H                                        
M  SDD   2     0.0000    0.0000    DR    ALL  0       0  
M  SED   2 IMPL_H1
M  END
>  <Name_Molregno>
Impromidine

>  <HISTAMINE H3>
7.17

>  <HISTAMINE H4>
7.91

$$$$
Iodophenpropit
  Marvin  02231216192D 0   1.00000     0.00000     0

 21 22  0  0  1  0  0  0  0  0999 V2000
    0.0055    0.7460    0.0000 I   0  0  0  0  0  0  0  0  0
    0.7200    0.3335    0.0000 C   0  0  0  0  0  0  0  0  0
    1.4345    0.7460    0.0000 C   0  0  0  0  0  0  0  0  0
    2.1489    0.3335    0.0000 C   0  0  0  0  0  0  0  0  0
    2.1489   -0.4915    0.0000 C   0  0  0  0  0  0  0  0  0
    1.4345   -0.9040    0.0000 C   0  0  0  0  0  0  0  0  0
    0.7200   -0.4915    0.0000 C   0  0  0  0  0  0  0  0  0
    2.8634   -0.9040    0.0000 C   0  0  0  0  0  0  0  0  0
    3.5779   -0.4915    0.0000 C   0  0  0  0  0  0  0  0  0
    4.2923   -0.9040    0.0000 N   0  0  0  0  0  0  0  0  0
    5.0068   -0.4915    0.0000 C   0  0  0  0  0  0  0  0  0
    5.7213   -0.9040    0.0000 S   0  0  0  0  0  0  0  0  0
    6.4358   -0.4915    0.0000 C   0  0  0  0  0  0  0  0  0
    7.1502   -0.9040    0.0000 C   0  0  0  0  0  0  0  0  0
    7.8647   -0.4915    0.0000 C   0  0  0  0  0  0  0  0  0
    8.5792   -0.9040    0.0000 C   0  0  0  0  0  0  0  0  0
    9.3328   -0.5684    0.0000 N   0  0  0  0  0  0  0  0  0
    9.8849   -1.1815    0.0000 C   0  0  0  0  0  0  0  0  0
    9.4724   -1.8960    0.0000 N   0  0  0  0  0  0  0  0  0
    8.6654   -1.7245    0.0000 C   0  0  0  0  0  0  0  0  0
    5.0068    0.3335    0.0000 N   0  0  0  0  0  0  0  0  0
  1  2  1  0  0  0  0
  2  3  4  0  0  0  0
  2  7  4  0  0  0  0
  3  4  4  0  0  0  0
  4  5  4  0  0  0  0
  5  6  4  0  0  0  0
  5  8  1  0  0  0  0
  6  7  4  0  0  0  0
  8  9  1  0  0  0  0
  9 10  1  0  0  0  0
 10 11  1  0  0  0  0
 11 12  1  0  0  0  0
 11 21  1  0  0  0  0
 12 13  1  0  0  0  0
 13 14  1  0  0  0  0
 14 15  1  0  0  0  0
 15 16  1  0  0  0  0
 16 17  4  0  0  0  0
 16 20  4  0  0  0  0
 17 18  4  0  0  0  0
 18 19  4  0  0  0  0
 19 20  4  0  0  0  0
M  STY  1   1 DAT
M  SAL   1  1  17
M  SDT   1 MRV_IMPLICIT_H                                        
M  SDD   1     0.0000    0.0000    DR    ALL  0       0  
M  SED   1 IMPL_H1
M  END
>  <Name_Molregno>
Iodophenpropit

>  <HISTAMINE H3>
8.15

>  <Muscarinic acetylcholine receptor M3>
5.43

$$$$
MAPROTILINE
  Marvin  02231216192D 0   1.00000     0.00000     0

 21 24  0  0  0  0  0  0  0  0999 V2000
    1.1690   -3.5982    0.0000 N   0  0  0  0  0  0  0  0  0
    1.8855   -3.1892    0.0000 C   0  0  0  0  0  0  0  0  0
    1.8895   -2.3643    0.0000 C   0  0  0  0  0  0  0  0  0
    2.6060   -1.9553    0.0000 C   0  0  0  0  0  0  0  0  0
    2.6101   -1.1303    0.0000 C   0  0  0  0  0  0  0  0  0
    2.7498   -0.0917    0.0000 C   0  0  0  0  0  0  0  0  0
    2.5051    0.5142    0.0000 C   0  0  0  0  0  0  0  0  0
    2.4674   -0.3819    0.0000 C   0  0  0  0  0  0  0  0  0
    3.2060   -0.7142    0.0000 C   0  0  0  0  0  0  0  0  0
    3.3678   -1.5232    0.0000 C   0  0  0  0  0  0  0  0  0
    4.1493   -1.7876    0.0000 C   0  0  0  0  0  0  0  0  0
    4.7690   -1.2429    0.0000 C   0  0  0  0  0  0  0  0  0
    4.6072   -0.4340    0.0000 C   0  0  0  0  0  0  0  0  0
    3.8257   -0.1696    0.0000 C   0  0  0  0  0  0  0  0  0
    1.6636   -0.7338    0.0000 C   0  0  0  0  0  0  0  0  0
    1.7795   -1.5506    0.0000 C   0  0  0  0  0  0  0  0  0
    1.1301   -2.0594    0.0000 C   0  0  0  0  0  0  0  0  0
    0.3648   -1.7514    0.0000 C   0  0  0  0  0  0  0  0  0
    0.2488   -0.9346    0.0000 C   0  0  0  0  0  0  0  0  0
    0.8983   -0.4258    0.0000 C   0  0  0  0  0  0  0  0  0
    1.1649   -4.4232    0.0000 C   0  0  0  0  0  0  0  0  0
  1  2  1  0  0  0  0
  1 21  1  0  0  0  0
  2  3  1  0  0  0  0
  3  4  1  0  0  0  0
  4  5  1  0  0  0  0
  5  6  1  0  0  0  0
  5 10  1  0  0  0  0
  5 16  1  0  0  0  0
  6  7  1  0  0  0  0
  7  8  1  0  0  0  0
  8  9  1  0  0  0  0
  8 15  1  0  0  0  0
  9 10  4  0  0  0  0
  9 14  4  0  0  0  0
 10 11  4  0  0  0  0
 11 12  4  0  0  0  0
 12 13  4  0  0  0  0
 13 14  4  0  0  0  0
 15 16  4  0  0  0  0
 15 20  4  0  0  0  0
 16 17  4  0  0  0  0
 17 18  4  0  0  0  0
 18 19  4  0  0  0  0
 19 20  4  0  0  0  0
M  END
>  <Name_Molregno>
MAPROTILINE

>  <DOPAMINE D1>
6.4

>  <DOPAMINE D2>
6.18

>  <DOPAMINE D3>
6.3

>  <DOPAMINE D5>
6.37

>  <Dopamine transporter>
6

>  <HISTAMINE H1>
8.89

>  <HISTAMINE H3>
6

>  <Norepinephrine transporter>
7.95

>  <Serotonin transporter>
5.24

$$$$
MEPYRAMINE
  Marvin  02231216192D 0   1.00000     0.00000     0

 21 22  0  0  0  0  0  0  0  0999 V2000
   -6.0198    1.4523    0.0000 O   0  0  0  0  0  0  0  0  0
   -6.7343    1.0398    0.0000 C   0  0  0  0  0  0  0  0  0
   -5.3053    1.0398    0.0000 C   0  0  0  0  0  0  0  0  0
   -4.5908    1.4523    0.0000 C   0  0  0  0  0  0  0  0  0
   -3.8764    1.0398    0.0000 C   0  0  0  0  0  0  0  0  0
   -3.8764    0.2148    0.0000 C   0  0  0  0  0  0  0  0  0
   -4.5908   -0.1977    0.0000 C   0  0  0  0  0  0  0  0  0
   -5.3053    0.2148    0.0000 C   0  0  0  0  0  0  0  0  0
   -3.1619   -0.1977    0.0000 C   0  0  0  0  0  0  0  0  0
   -2.4474    0.2148    0.0000 N   0  0  0  0  0  0  0  0  0
   -1.7330   -0.1977    0.0000 C   0  0  0  0  0  0  0  0  0
   -1.0185    0.2148    0.0000 C   0  0  0  0  0  0  0  0  0
   -0.3040   -0.1977    0.0000 N   0  0  0  0  0  0  0  0  0
    0.4104    0.2148    0.0000 C   0  0  0  0  0  0  0  0  0
   -0.3040   -1.0227    0.0000 C   0  0  0  0  0  0  0  0  0
   -2.4474    1.0398    0.0000 C   0  0  0  0  0  0  0  0  0
   -3.1619    1.4523    0.0000 N   0  0  0  0  0  0  0  0  0
   -3.1619    2.2773    0.0000 C   0  0  0  0  0  0  0  0  0
   -2.4474    2.6898    0.0000 C   0  0  0  0  0  0  0  0  0
   -1.7330    2.2773    0.0000 C   0  0  0  0  0  0  0  0  0
   -1.7330    1.4523    0.0000 C   0  0  0  0  0  0  0  0  0
  1  2  1  0  0  0  0
  1  3  1  0  0  0  0
  3  4  4  0  0  0  0
  3  8  4  0  0  0  0
  4  5  4  0  0  0  0
  5  6  4  0  0  0  0
  6  7  4  0  0  0  0
  6  9  1  0  0  0  0
  7  8  4  0  0  0  0
  9 10  1  0  0  0  0
 10 11  1  0  0  0  0
 10 16  1  0  0  0  0
 11 12  1  0  0  0  0
 12 13  1  0  0  0  0
 13 14  1  0  0  0  0
 13 15  1  0  0  0  0
 16 17  4  0  0  0  0
 16 21  4  0  0  0  0
 17 18  4  0  0  0  0
 18 19  4  0  0  0  0
 19 20  4  0  0  0  0
 20 21  4  0  0  0  0
M  END
>  <Name_Molregno>
MEPYRAMINE

>  <5-HT1A>
5

>  <5-HT2A>
5.7

>  <5-HT3>
5

>  <HISTAMINE H1>
8.65

>  <HISTAMINE H3>
5

$$$$
METHIMEPIP
  Marvin  02231216192D 0   1.00000     0.00000     0

 13 14  0  0  0  0  0  0  0  0999 V2000
   -3.1437   -1.2213    0.0000 N   0  0  0  0  0  0  0  0  0
   -3.3986   -0.4367    0.0000 C   0  0  0  0  0  0  0  0  0
   -2.7312    0.0482    0.0000 C   0  0  0  0  0  0  0  0  0
   -2.0638   -0.4367    0.0000 N   0  0  0  0  0  0  0  0  0
   -2.3187   -1.2213    0.0000 C   0  0  0  0  0  0  0  0  0
   -2.7312    0.8732    0.0000 C   0  0  0  0  0  0  0  0  0
   -2.0167    1.2857    0.0000 C   0  0  0  0  0  0  0  0  0
   -2.0167    2.1107    0.0000 C   0  0  0  0  0  0  0  0  0
   -1.3022    2.5232    0.0000 C   0  0  0  0  0  0  0  0  0
   -0.5878    2.1107    0.0000 N   0  0  0  0  0  0  0  0  0
   -0.5878    1.2857    0.0000 C   0  0  0  0  0  0  0  0  0
   -1.3022    0.8732    0.0000 C   0  0  0  0  0  0  0  0  0
    0.1267    2.5232    0.0000 C   0  0  0  0  0  0  0  0  0
  1  2  4  0  0  0  0
  1  5  4  0  0  0  0
  2  3  4  0  0  0  0
  3  4  4  0  0  0  0
  3  6  1  0  0  0  0
  4  5  4  0  0  0  0
  6  7  1  0  0  0  0
  7  8  1  0  0  0  0
  7 12  1  0  0  0  0
  8  9  1  0  0  0  0
  9 10  1  0  0  0  0
 10 11  1  0  0  0  0
 10 13  1  0  0  0  0
 11 12  1  0  0  0  0
M  STY  1   1 DAT
M  SAL   1  1   1
M  SDT   1 MRV_IMPLICIT_H                                        
M  SDD   1     0.0000    0.0000    DR    ALL  0       0  
M  SED   1 IMPL_H1
M  END
>  <Name_Molregno>
METHIMEPIP

>  <HISTAMINE H1>
5

>  <HISTAMINE H2>
5

>  <HISTAMINE H3>
9

>  <HISTAMINE H4>
5.7

$$$$
N-methylhistamine
  Marvin  02231216192D 0   1.00000     0.00000     0

  9  9  0  0  0  0  0  0  0  0999 V2000
    1.6283   -1.4230    0.0000 N   0  0  0  0  0  0  0  0  0
    1.3733   -2.2076    0.0000 C   0  0  0  0  0  0  0  0  0
    0.5483   -2.2076    0.0000 N   0  0  0  0  0  0  0  0  0
    0.2934   -1.4230    0.0000 C   0  0  0  0  0  0  0  0  0
    0.9608   -0.9380    0.0000 C   0  0  0  0  0  0  0  0  0
    0.9608   -0.1130    0.0000 C   0  0  0  0  0  0  0  0  0
    0.2463    0.2995    0.0000 C   0  0  0  0  0  0  0  0  0
    0.2463    1.1245    0.0000 N   0  0  0  0  0  0  0  0  0
   -0.4681    1.5370    0.0000 C   0  0  0  0  0  0  0  0  0
  1  2  4  0  0  0  0
  1  5  4  0  0  0  0
  2  3  4  0  0  0  0
  3  4  4  0  0  0  0
  4  5  4  0  0  0  0
  5  6  1  0  0  0  0
  6  7  1  0  0  0  0
  7  8  1  0  0  0  0
  8  9  1  0  0  0  0
M  STY  1   1 DAT
M  SAL   1  1   1
M  SDT   1 MRV_IMPLICIT_H                                        
M  SDD   1     0.0000    0.0000    DR    ALL  0       0  
M  SED   1 IMPL_H1
M  END
>  <Name_Molregno>
N-methylhistamine

>  <HISTAMINE H3>
7.64

>  <HISTAMINE H4>
7.64

$$$$
PROXYFAN
  Marvin  02231216192D 0   1.00000     0.00000     0

 16 17  0  0  0  0  0  0  0  0999 V2000
   -0.9918    0.3694    0.0000 O   0  0  0  0  0  0  0  0  0
   -1.7063    0.7819    0.0000 C   0  0  0  0  0  0  0  0  0
   -2.4208    0.3694    0.0000 C   0  0  0  0  0  0  0  0  0
   -2.4208   -0.4556    0.0000 C   0  0  0  0  0  0  0  0  0
   -3.1353   -0.8681    0.0000 C   0  0  0  0  0  0  0  0  0
   -3.8497   -0.4556    0.0000 C   0  0  0  0  0  0  0  0  0
   -3.8497    0.3694    0.0000 C   0  0  0  0  0  0  0  0  0
   -3.1353    0.7819    0.0000 C   0  0  0  0  0  0  0  0  0
   -0.2774    0.7819    0.0000 C   0  0  0  0  0  0  0  0  0
    0.4371    0.3694    0.0000 C   0  0  0  0  0  0  0  0  0
    1.1516    0.7819    0.0000 C   0  0  0  0  0  0  0  0  0
    1.8660    0.3694    0.0000 C   0  0  0  0  0  0  0  0  0
    2.6197    0.7050    0.0000 N   0  0  0  0  0  0  0  0  0
    3.1717    0.0919    0.0000 C   0  0  0  0  0  0  0  0  0
    2.7592   -0.6226    0.0000 N   0  0  0  0  0  0  0  0  0
    1.9523   -0.4511    0.0000 C   0  0  0  0  0  0  0  0  0
  1  2  1  0  0  0  0
  1  9  1  0  0  0  0
  2  3  1  0  0  0  0
  3  4  4  0  0  0  0
  3  8  4  0  0  0  0
  4  5  4  0  0  0  0
  5  6  4  0  0  0  0
  6  7  4  0  0  0  0
  7  8  4  0  0  0  0
  9 10  1  0  0  0  0
 10 11  1  0  0  0  0
 11 12  1  0  0  0  0
 12 13  4  0  0  0  0
 12 16  4  0  0  0  0
 13 14  4  0  0  0  0
 14 15  4  0  0  0  0
 15 16  4  0  0  0  0
M  STY  1   1 DAT
M  SAL   1  1  15
M  SDT   1 MRV_IMPLICIT_H                                        
M  SDD   1     0.0000    0.0000    DR    ALL  0       0  
M  SED   1 IMPL_H1
M  END
>  <Name_Molregno>
PROXYFAN

>  <HISTAMINE H3>
8.59

$$$$
RANITIDINE
  Marvin  02231216192D 0   1.00000     0.00000     0

 21 21  0  0  0  0  0  0  0  0999 V2000
   -0.1828    0.2853    0.0000 S   0  0  0  0  0  0  0  0  0
   -0.8973    0.6978    0.0000 C   0  0  0  0  0  0  0  0  0
   -1.6118    0.2853    0.0000 C   0  0  0  0  0  0  0  0  0
   -1.6980   -0.5352    0.0000 O   0  0  0  0  0  0  0  0  0
   -2.5050   -0.7067    0.0000 C   0  0  0  0  0  0  0  0  0
   -2.9175    0.0078    0.0000 C   0  0  0  0  0  0  0  0  0
   -2.3655    0.6209    0.0000 C   0  0  0  0  0  0  0  0  0
   -2.8405   -1.4604    0.0000 C   0  0  0  0  0  0  0  0  0
   -3.6610   -1.5466    0.0000 N   0  0  0  0  0  0  0  0  0
   -3.9966   -2.3003    0.0000 C   0  0  0  0  0  0  0  0  0
   -4.1459   -0.8792    0.0000 C   0  0  0  0  0  0  0  0  0
    0.5316    0.6978    0.0000 C   0  0  0  0  0  0  0  0  0
    1.2461    0.2853    0.0000 C   0  0  0  0  0  0  0  0  0
    1.9606    0.6978    0.0000 N   0  0  0  0  0  0  0  0  0
    2.6751    0.2853    0.0000 C   0  0  0  0  0  0  0  0  0
    2.6751   -0.5397    0.0000 N   0  0  0  0  0  0  0  0  0
    3.3895   -0.9522    0.0000 C   0  0  0  0  0  0  0  0  0
    3.3895    0.6978    0.0000 C   0  0  0  0  0  0  0  0  0
    3.3895    1.5228    0.0000 N   0  3  0  0  0  0  0  0  0
    4.1040    1.9353    0.0000 O   0  5  0  0  0  0  0  0  0
    2.6751    1.9353    0.0000 O   0  5  0  0  0  0  0  0  0
  1  2  1  0  0  0  0
  1 12  1  0  0  0  0
  2  3  1  0  0  0  0
  3  4  4  0  0  0  0
  3  7  4  0  0  0  0
  4  5  4  0  0  0  0
  5  6  4  0  0  0  0
  5  8  1  0  0  0  0
  6  7  4  0  0  0  0
  8  9  1  0  0  0  0
  9 10  1  0  0  0  0
  9 11  1  0  0  0  0
 12 13  1  0  0  0  0
 13 14  1  0  0  0  0
 14 15  1  0  0  0  0
 15 16  1  0  0  0  0
 15 18  2  0  0  0  0
 16 17  1  0  0  0  0
 18 19  1  0  0  0  0
 19 20  1  0  0  0  0
 19 21  1  0  0  0  0
M  CHG  3  19   1  20  -1  21  -1
M  END
>  <Name_Molregno>
RANITIDINE

>  <5-HT3>
5

>  <HISTAMINE H1>
5

>  <HISTAMINE H3>
5

>  <HISTAMINE H4>
5

$$$$
SR144528
  Marvin  02231216192D 0   1.00000     0.00000     0

 34 38  0  0  1  0  0  0  0  0999 V2000
   -3.4859   -7.8445    0.0000 Cl  0  0  0  0  0  0  0  0  0
   -3.3410   -7.0323    0.0000 C   0  0  0  0  0  0  0  0  0
   -3.9720   -6.5008    0.0000 C   0  0  0  0  0  0  0  0  0
   -3.8271   -5.6886    0.0000 C   0  0  0  0  0  0  0  0  0
   -3.0513   -5.4080    0.0000 C   0  0  0  0  0  0  0  0  0
   -2.4203   -5.9395    0.0000 C   0  0  0  0  0  0  0  0  0
   -2.5652   -6.7517    0.0000 C   0  0  0  0  0  0  0  0  0
   -1.9343   -7.2833    0.0000 C   0  0  0  0  0  0  0  0  0
   -2.9064   -4.5958    0.0000 C   0  0  0  0  0  0  0  0  0
   -3.4783   -4.0012    0.0000 N   0  0  0  0  0  0  0  0  0
   -3.0895   -3.2735    0.0000 N   0  0  0  0  0  0  0  0  0
   -2.2773   -3.4184    0.0000 C   0  0  0  0  0  0  0  0  0
   -2.1641   -4.2356    0.0000 C   0  0  0  0  0  0  0  0  0
   -1.6827   -2.8465    0.0000 C   0  0  0  0  0  0  0  0  0
   -1.8807   -2.0456    0.0000 O   0  0  0  0  0  0  0  0  0
   -0.8901   -3.0755    0.0000 N   0  0  0  0  0  0  0  0  0
   -0.2955   -2.5036    0.0000 C   0  0  0  0  0  0  0  0  0
    0.0698   -1.8431    0.0000 C   0  0  0  0  0  0  0  0  0
    0.7101   -1.3929    0.0000 C   0  0  0  0  0  0  0  0  0
    0.5501   -0.5775    0.0000 C   0  0  0  0  0  0  0  0  0
    0.4800   -2.1133    0.0000 C   0  0  0  0  0  0  0  0  0
    1.2105   -2.4836    0.0000 C   0  0  0  0  0  0  0  0  0
    1.5056   -1.8582    0.0000 C   0  0  0  0  0  0  0  0  0
    0.4788   -2.9383    0.0000 C   0  0  0  0  0  0  0  0  0
   -0.7153   -1.5897    0.0000 C   0  0  0  0  0  0  0  0  0
   -0.2665   -1.0898    0.0000 C   0  0  0  0  0  0  0  0  0
   -4.2955   -4.1144    0.0000 C   0  0  0  0  0  0  0  0  0
   -4.8021   -3.4633    0.0000 C   0  0  0  0  0  0  0  0  0
   -5.6193   -3.5764    0.0000 C   0  0  0  0  0  0  0  0  0
   -6.1259   -2.9253    0.0000 C   0  0  0  0  0  0  0  0  0
   -5.8153   -2.1610    0.0000 C   0  0  0  0  0  0  0  0  0
   -4.9981   -2.0478    0.0000 C   0  0  0  0  0  0  0  0  0
   -4.4915   -2.6989    0.0000 C   0  0  0  0  0  0  0  0  0
   -6.3219   -1.5099    0.0000 C   0  0  0  0  0  0  0  0  0
  1  2  1  0  0  0  0
  2  3  4  0  0  0  0
  2  7  4  0  0  0  0
  3  4  4  0  0  0  0
  4  5  4  0  0  0  0
  5  6  4  0  0  0  0
  5  9  1  0  0  0  0
  6  7  4  0  0  0  0
  7  8  1  0  0  0  0
  9 10  4  0  0  0  0
  9 13  4  0  0  0  0
 10 11  4  0  0  0  0
 10 27  1  0  0  0  0
 11 12  4  0  0  0  0
 12 13  4  0  0  0  0
 12 14  1  0  0  0  0
 14 15  2  0  0  0  0
 14 16  1  0  0  0  0
 16 17  1  0  0  0  0
 17 18  1  0  0  0  0
 17 21  1  0  0  0  0
 18 19  1  0  0  0  0
 18 25  1  0  0  0  0
 18 26  1  0  0  0  0
 19 20  1  0  0  0  0
 19 23  1  0  0  0  0
 20 21  1  0  0  0  0
 21 22  1  0  0  0  0
 21 24  1  0  0  0  0
 22 23  1  0  0  0  0
 27 28  1  0  0  0  0
 28 29  4  0  0  0  0
 28 33  4  0  0  0  0
 29 30  4  0  0  0  0
 30 31  4  0  0  0  0
 31 32  4  0  0  0  0
 31 34  1  0  0  0  0
 32 33  4  0  0  0  0
M  END
>  <Name_Molregno>
SR144528

>  <5-HT1A>
5

>  <5-HT1B>
5

>  <5-HT1D>
5

>  <5-HT2A>
5

>  <5-HT2C>
5

>  <5-HT3>
5

>  <Beta-1>
5

>  <Beta-2>
5

>  <DOPAMINE D1>
5

>  <DOPAMINE D2>
5

>  <DOPAMINE D3>
5

>  <DOPAMINE D4>
5

>  <HISTAMINE H1>
5

>  <HISTAMINE H2>
5

>  <HISTAMINE H3>
5

>  <Muscarinic acetylcholine receptor M1>
5

>  <Muscarinic acetylcholine receptor M2>
5

>  <Muscarinic acetylcholine receptor M4>
5

$$$$
